REMARK  Name = ZINC45873366
REMARK  8 active torsions:
REMARK  status: ('A' for Active; 'I' for Inactive)
REMARK    1  A    between atoms: C_3  and  C_10
REMARK    2  A    between atoms: C_5  and  N_7
REMARK    3  A    between atoms: C_10  and  O_12
REMARK    4  A    between atoms: O_12  and  C_13
REMARK    5  A    between atoms: C_13  and  C_14
REMARK    6  A    between atoms: N_16  and  C_17
REMARK    7  A    between atoms: C_17  and  C_18
REMARK    8  A    between atoms: C_18  and  N_24
REMARK                            x       y       z     vdW  Elec       q    Type
REMARK                         _______ _______ _______ _____ _____    ______ ____
ROOT
ATOM      1  C   UNL     1       3.497   8.394  -1.439  0.00  0.00    +0.251 C 
ATOM      2  O   UNL     1       2.866   7.784  -0.602  0.00  0.00    -0.272 OA
ATOM      3  N   UNL     1       4.819   8.596  -1.272  0.00  0.00    -0.311 N 
ATOM      4  H   UNL     1       5.323   9.084  -1.942  0.00  0.00    +0.149 HD
ENDROOT
BRANCH   1   5
ATOM      5  C   UNL     1       2.802   8.926  -2.667  0.00  0.00    +0.328 C 
BRANCH   5   6
ATOM      6  O   UNL     1       1.415   8.586  -2.614  0.00  0.00    -0.452 OA
BRANCH   6   7
ATOM      7  C   UNL     1       0.647   8.991  -3.644  0.00  0.00    +0.340 C 
ATOM      8  O   UNL     1       1.141   9.615  -4.561  0.00  0.00    -0.245 OA
BRANCH   7  11
ATOM      9  C   UNL     1      -2.716   7.668  -2.623  0.00  0.00    +0.003 A 
ATOM     10  C   UNL     1      -1.367   7.958  -2.604  0.00  0.00    +0.015 A 
ATOM     11  C   UNL     1      -0.797   8.676  -3.657  0.00  0.00    +0.061 A 
ATOM     12  C   UNL     1      -1.596   9.094  -4.723  0.00  0.00    +0.047 A 
ATOM     13  C   UNL     1      -2.943   8.797  -4.729  0.00  0.00    +0.127 A 
ATOM     14  C   UNL     1      -3.502   8.086  -3.682  0.00  0.00    +0.033 A 
BRANCH  13  15
ATOM     15  N   UNL     1      -3.792   9.240  -5.857  0.00  0.00    +0.056 N 
ATOM     16  O   UNL     1      -3.305   9.862  -6.772  0.00  0.00    -0.126 OA
ATOM     17  O   UNL     1      -4.973   8.980  -5.864  0.00  0.00    -0.126 OA
ENDBRANCH  13  15
ENDBRANCH   7  11
ENDBRANCH   6   7
ENDBRANCH   5   6
ENDBRANCH   1   5
BRANCH   3  18
ATOM     18  C   UNL     1       5.494   8.079  -0.079  0.00  0.00    +0.126 C 
BRANCH  18  19
ATOM     19  C   UNL     1       6.949   8.549  -0.073  0.00  0.00    +0.038 C 
ATOM     20  C   UNL     1       7.689   7.902   1.099  0.00  0.00    +0.024 C 
ATOM     21  C   UNL     1       7.017   8.307   2.413  0.00  0.00    +0.002 C 
ATOM     22  C   UNL     1       7.060   9.829   2.560  0.00  0.00    +0.000 C 
ATOM     23  C   UNL     1       6.320  10.476   1.387  0.00  0.00    +0.002 C 
ATOM     24  C   UNL     1       6.993  10.072   0.074  0.00  0.00    +0.024 C 
BRANCH  19  25
ATOM     25  N   UNL     1       7.595   8.161  -1.334  0.00  0.00    -0.291 NA
ATOM     26  C   UNL     1       7.525   6.706  -1.536  0.00  0.00    +0.113 C 
ATOM     27  C   UNL     1       8.154   6.353  -2.885  0.00  0.00    +0.175 C 
ATOM     28  O   UNL     1       9.498   6.840  -2.921  0.00  0.00    -0.377 OA
ATOM     29  C   UNL     1       9.604   8.253  -2.729  0.00  0.00    +0.175 C 
ATOM     30  C   UNL     1       8.989   8.626  -1.377  0.00  0.00    +0.113 C 
ENDBRANCH  19  25
ENDBRANCH  18  19
ENDBRANCH   3  18
TORSDOF 8
