REMARK  Name = ZINC16463373
REMARK  6 active torsions:
REMARK  status: ('A' for Active; 'I' for Inactive)
REMARK    1  A    between atoms: C_1  and  C_2
REMARK    2  A    between atoms: C_2  and  N_3
REMARK    3  A    between atoms: C_7  and  C_9
REMARK    4  A    between atoms: C_9  and  N_10
REMARK    5  A    between atoms: C_13  and  C_17
REMARK    6  A    between atoms: C_13  and  C_18
REMARK                            x       y       z     vdW  Elec       q    Type
REMARK                         _______ _______ _______ _____ _____    ______ ____
ROOT
ATOM      1  N   UNL     1       2.397  -5.549   3.903  0.00  0.00    -0.215 N 
ATOM      2  C   UNL     1       1.445  -6.322   4.461  0.00  0.00    +0.251 C 
ATOM      3  O   UNL     1       0.448  -5.950   5.042  0.00  0.00    -0.272 OA
ATOM      4  C   UNL     1       1.879  -7.752   4.210  0.00  0.00    +0.135 C 
ATOM      5  N   UNL     1       3.145  -7.605   3.470  0.00  0.00    -0.281 N 
ATOM      6  C   UNL     1       3.361  -6.284   3.336  0.00  0.00    +0.310 C 
ATOM      7  O   UNL     1       4.324  -5.812   2.766  0.00  0.00    -0.252 OA
ATOM      8  C   UNL     1       0.842  -8.489   3.360  0.00  0.00    +0.047 C 
ATOM      9  H   UNL     1       3.711  -8.321   3.142  0.00  0.00    +0.152 HD
ENDROOT
BRANCH   4  10
ATOM     10  C   UNL     1       2.107  -8.474   5.513  0.00  0.00    -0.013 A 
ATOM     11  C   UNL     1       1.377  -8.123   6.633  0.00  0.00    +0.009 A 
ATOM     12  C   UNL     1       1.584  -8.784   7.830  0.00  0.00    +0.041 A 
ATOM     13  C   UNL     1       2.524  -9.797   7.907  0.00  0.00    +0.158 A 
ATOM     14  C   UNL     1       3.256 -10.148   6.784  0.00  0.00    +0.159 A 
ATOM     15  C   UNL     1       3.043  -9.488   5.586  0.00  0.00    +0.047 A 
ATOM     16  F   UNL     1       4.175 -11.136   6.857  0.00  0.00    -0.202 F 
ATOM     17  F   UNL     1       2.728 -10.442   9.077  0.00  0.00    -0.202 F 
ENDBRANCH   4  10
BRANCH   1  18
ATOM     18  C   UNL     1       2.378  -4.084   3.911  0.00  0.00    +0.214 C 
BRANCH  18  23
ATOM     19  N   UNL     1       0.711  -0.489   1.189  0.00  0.00    -0.299 N 
ATOM     20  C   UNL     1       0.854  -1.814   1.394  0.00  0.00    +0.306 C 
ATOM     21  O   UNL     1       0.395  -2.606   0.594  0.00  0.00    -0.252 OA
ATOM     22  N   UNL     1       1.506  -2.260   2.486  0.00  0.00    -0.239 N 
ATOM     23  C   UNL     1       1.649  -3.585   2.690  0.00  0.00    +0.238 C 
ATOM     24  O   UNL     1       1.191  -4.374   1.893  0.00  0.00    -0.274 OA
ATOM     25  H   UNL     1       1.077   0.142   1.827  0.00  0.00    +0.150 HD
ATOM     26  H   UNL     1       1.872  -1.628   3.124  0.00  0.00    +0.159 HD
BRANCH  19  28
ATOM     27  C   UNL     1      -0.019   1.526   0.010  0.00  0.00    +0.024 C 
ATOM     28  C   UNL     1       0.002  -0.004   0.002  0.00  0.00    +0.102 C 
ENDBRANCH  19  28
ENDBRANCH  18  23
ENDBRANCH   1  18
TORSDOF 4
