REMARK  Name = ZINC06074889
REMARK  13 active torsions:
REMARK  status: ('A' for Active; 'I' for Inactive)
REMARK    1  A    between atoms: C_1  and  C_2
REMARK    2  A    between atoms: C_2  and  C_3
REMARK    3  A    between atoms: C_2  and  C_4
REMARK    4  A    between atoms: C_2  and  N_5
REMARK    5  A    between atoms: C_6  and  C_8
REMARK    6  A    between atoms: C_8  and  C_10
REMARK    7  A    between atoms: C_8  and  N_17
REMARK    8  A    between atoms: N_17  and  C_18
REMARK    9  A    between atoms: C_18  and  C_19
REMARK   10  A    between atoms: C_19  and  N_66
REMARK   11  A    between atoms: C_25  and  C_27
REMARK   12  A    between atoms: C_28  and  N_35
REMARK   13  A    between atoms: C_29  and  C_32
REMARK                            x       y       z     vdW  Elec       q    Type
REMARK                         _______ _______ _______ _____ _____    ______ ____
ROOT
ATOM      1  N   UNL     1       4.767   0.927  -0.146  0.00  0.00    -0.283 N 
ATOM      2  C   UNL     1       3.652   0.504   0.482  0.00  0.00    +0.257 C 
ATOM      3  O   UNL     1       3.529   0.670   1.682  0.00  0.00    -0.269 OA
ENDROOT
BRANCH   2   4
ATOM      4  C   UNL     1       2.590  -0.157  -0.278  0.00  0.00    +0.115 A 
ATOM      5  C   UNL     1       1.759  -1.214   0.098  0.00  0.00    +0.076 A 
ATOM      6  C   UNL     1       0.860  -1.570  -0.907  0.00  0.00    +0.155 A 
ATOM      7  N   UNL     1       0.878  -0.916  -2.048  0.00  0.00    -0.203 NA
ATOM      8  S   UNL     1       2.011   0.173  -1.929  0.00  0.00    +0.019 S 
BRANCH   6   9
ATOM      9  C   UNL     1      -0.100  -2.669  -0.694  0.00  0.00    +0.262 C 
ATOM     10  O   UNL     1      -0.110  -3.270   0.363  0.00  0.00    -0.269 OA
ATOM     11  N   UNL     1      -0.965  -3.008  -1.670  0.00  0.00    -0.324 N 
ATOM     12  H   UNL     1      -0.956  -2.528  -2.513  0.00  0.00    +0.145 HD
ATOM     13  H   UNL     1      -1.596  -3.731  -1.530  0.00  0.00    +0.145 HD
ENDBRANCH   6   9
BRANCH   5  14
ATOM     14  N   UNL     1       1.821  -1.841   1.335  0.00  0.00    -0.355 N 
ATOM     15  H   UNL     1       1.216  -2.572   1.539  0.00  0.00    +0.142 HD
ATOM     16  H   UNL     1       2.469  -1.549   1.995  0.00  0.00    +0.142 HD
ENDBRANCH   5  14
ENDBRANCH   2   4
BRANCH   1  17
ATOM     17  C   UNL     1       4.906   0.747  -1.593  0.00  0.00    +0.192 C 
BRANCH  17  18
ATOM     18  C   UNL     1       4.522   2.023  -2.297  0.00  0.00    -0.018 A 
ATOM     19  C   UNL     1       4.788   3.244  -1.708  0.00  0.00    +0.009 A 
ATOM     20  C   UNL     1       4.441   4.415  -2.355  0.00  0.00    +0.038 A 
ATOM     21  C   UNL     1       3.817   4.364  -3.590  0.00  0.00    +0.123 A 
ATOM     22  C   UNL     1       3.546   3.139  -4.177  0.00  0.00    +0.038 A 
ATOM     23  C   UNL     1       3.899   1.970  -3.530  0.00  0.00    +0.009 A 
ATOM     24  F   UNL     1       3.473   5.507  -4.221  0.00  0.00    -0.205 F 
ENDBRANCH  17  18
BRANCH  17  26
ATOM     25  N   UNL     1       6.612  -0.681  -2.674  0.00  0.00    -0.309 N 
ATOM     26  C   UNL     1       6.335   0.402  -1.921  0.00  0.00    +0.238 C 
ATOM     27  O   UNL     1       7.238   1.100  -1.508  0.00  0.00    -0.273 OA
ATOM     28  H   UNL     1       5.890  -1.239  -3.004  0.00  0.00    +0.149 HD
BRANCH  25  30
ATOM     29  C   UNL     1       8.778  -1.258  -1.698  0.00  0.00    +0.031 C 
ATOM     30  C   UNL     1       8.002  -1.016  -2.993  0.00  0.00    +0.026 C 
ATOM     31  C   UNL     1       8.037  -2.281  -3.853  0.00  0.00    +0.031 C 
ATOM     32  C   UNL     1       8.641   0.141  -3.763  0.00  0.00    +0.031 C 
ENDBRANCH  25  30
ENDBRANCH  17  26
ENDBRANCH   1  17
BRANCH   1  33
ATOM     33  C   UNL     1       5.840   1.569   0.619  0.00  0.00    +0.091 C 
BRANCH  33  34
ATOM     34  C   UNL     1       6.702   0.495   1.286  0.00  0.00    -0.059 C 
BRANCH  34  40
ATOM     35  C   UNL     1       8.697   1.869   1.254  0.00  0.00    -0.050 C 
ATOM     36  C   UNL     1       9.725   2.572   2.144  0.00  0.00    +0.141 C 
ATOM     37  O   UNL     1      10.370   1.603   2.976  0.00  0.00    -0.383 OA
ATOM     38  C   UNL     1       9.469   0.874   3.813  0.00  0.00    +0.141 C 
ATOM     39  C   UNL     1       8.438   0.154   2.940  0.00  0.00    -0.050 C 
ATOM     40  N   UNL     1       7.731   1.157   2.117  0.00  0.00    +0.384 N 
ATOM     41  H   UNL     1       7.273   1.835   2.737  0.00  0.00    -0.082 HD
ENDBRANCH  34  40
ENDBRANCH  33  34
ENDBRANCH   1  33
TORSDOF 10
