REMARK  Name = ZINC12201890
REMARK  5 active torsions:
REMARK  status: ('A' for Active; 'I' for Inactive)
REMARK    1  A    between atoms: C_1  and  C_2
REMARK    2  A    between atoms: C_5  and  C_7
REMARK    3  A    between atoms: N_13  and  C_14
REMARK    4  A    between atoms: C_14  and  C_15
REMARK    5  A    between atoms: C_15  and  N_56
REMARK                            x       y       z     vdW  Elec       q    Type
REMARK                         _______ _______ _______ _____ _____    ______ ____
ROOT
ATOM      1  C   UNL     1       1.423   1.979  -0.001  0.00  0.00    +0.092 C 
ENDROOT
BRANCH   1   8
ATOM      2  C   UNL     1       5.409   1.452  -2.555  0.00  0.00    +0.129 A 
ATOM      3  C   UNL     1       6.026   2.354  -1.677  0.00  0.00    +0.166 A 
ATOM      4  N   UNL     1       5.324   2.866  -0.684  0.00  0.00    -0.152 NA
ATOM      5  N   UNL     1       4.089   2.544  -0.521  0.00  0.00    -0.113 NA
ATOM      6  C   UNL     1       3.478   1.693  -1.337  0.00  0.00    +0.236 A 
ATOM      7  N   UNL     1       4.128   1.139  -2.351  0.00  0.00    -0.209 NA
ATOM      8  N   UNL     1       2.148   1.376  -1.122  0.00  0.00    -0.314 N 
ATOM      9  H   UNL     1       1.696   0.755  -1.714  0.00  0.00    +0.149 HD
BRANCH   2  14
ATOM     10  C   UNL     1       6.462  -1.177  -6.696  0.00  0.00    +0.086 C 
ATOM     11  C   UNL     1       6.627  -0.290  -5.489  0.00  0.00    +0.103 A 
ATOM     12  C   UNL     1       7.780   0.284  -5.087  0.00  0.00    +0.045 A 
ATOM     13  C   UNL     1       7.489   1.024  -3.925  0.00  0.00    +0.052 A 
ATOM     14  C   UNL     1       6.161   0.859  -3.678  0.00  0.00    +0.155 A 
ATOM     15  O   UNL     1       5.654   0.055  -4.633  0.00  0.00    -0.458 OA
ENDBRANCH   2  14
ENDBRANCH   1   8
BRANCH   1  16
ATOM     16  C   UNL     1      -0.018   1.465   0.010  0.00  0.00    -0.049 C 
ATOM     17  C   UNL     1      -0.678   1.861   1.344  0.00  0.00    -0.010 C 
ATOM     18  C   UNL     1      -1.133   3.333   1.372  0.00  0.00    -0.001 C 
ATOM     19  C   UNL     1      -0.126   4.260   0.747  0.00  0.00    -0.000 C 
ATOM     20  C   UNL     1      -0.505   4.468  -0.733  0.00  0.00    -0.000 C 
ATOM     21  C   UNL     1      -0.077   3.361  -1.576  0.00  0.00    -0.001 C 
ATOM     22  C   UNL     1      -0.745   2.029  -1.180  0.00  0.00    -0.010 C 
BRANCH  16  28
ATOM     23  C   UNL     1      -1.365  -0.540  -0.175  0.00  0.00    -0.049 C 
ATOM     24  C   UNL     1      -1.299  -2.060  -0.342  0.00  0.00    +0.141 C 
ATOM     25  O   UNL     1      -0.558  -2.622   0.745  0.00  0.00    -0.383 OA
ATOM     26  C   UNL     1       0.777  -2.120   0.852  0.00  0.00    +0.141 C 
ATOM     27  C   UNL     1       0.731  -0.600   1.032  0.00  0.00    -0.049 C 
ATOM     28  N   UNL     1       0.013  -0.008  -0.117  0.00  0.00    +0.387 N 
ATOM     29  H   UNL     1       0.504  -0.259  -0.983  0.00  0.00    -0.081 HD
ENDBRANCH  16  28
ENDBRANCH   1  16
TORSDOF 4
