REMARK  Name = ZINC40173516
REMARK  13 active torsions:
REMARK  status: ('A' for Active; 'I' for Inactive)
REMARK    1  A    between atoms: C_1  and  C_2
REMARK    2  A    between atoms: C_2  and  C_3
REMARK    3  A    between atoms: C_3  and  C_5
REMARK    4  A    between atoms: C_3  and  N_24
REMARK    5  A    between atoms: N_7  and  C_8
REMARK    6  A    between atoms: C_9  and  C_19
REMARK    7  A    between atoms: C_10  and  C_13
REMARK    8  A    between atoms: C_19  and  O_21
REMARK    9  A    between atoms: O_21  and  C_22
REMARK   10  A    between atoms: C_22  and  C_23
REMARK   11  A    between atoms: C_28  and  S_29
REMARK   12  A    between atoms: S_29  and  C_30
REMARK   13  A    between atoms: C_30  and  C_31
REMARK                            x       y       z     vdW  Elec       q    Type
REMARK                         _______ _______ _______ _____ _____    ______ ____
ROOT
ATOM      1  C   UNL     1       0.632  -2.000  -1.327  0.00  0.00    +0.241 C 
ATOM      2  O   UNL     1       1.645  -2.666  -1.337  0.00  0.00    -0.273 OA
ATOM      3  N   UNL     1      -0.572  -2.604  -1.380  0.00  0.00    -0.278 N 
ATOM      4  H   UNL     1      -1.383  -2.072  -1.372  0.00  0.00    +0.155 HD
ENDROOT
BRANCH   3   5
ATOM      5  C   UNL     1      -0.652  -3.986  -1.445  0.00  0.00    +0.086 A 
ATOM      6  C   UNL     1      -1.794  -4.769  -1.510  0.00  0.00    +0.095 A 
ATOM      7  C   UNL     1      -1.593  -6.206  -1.570  0.00  0.00    +0.005 A 
ATOM      8  C   UNL     1      -0.298  -6.615  -1.556  0.00  0.00    +0.056 A 
ATOM      9  S   UNL     1       0.612  -5.088  -1.470  0.00  0.00    -0.080 S 
BRANCH   7  10
ATOM     10  C   UNL     1      -2.724  -7.161  -1.642  0.00  0.00    -0.017 A 
ATOM     11  C   UNL     1      -3.784  -7.059  -0.743  0.00  0.00    +0.008 A 
ATOM     12  C   UNL     1      -4.835  -7.951  -0.815  0.00  0.00    +0.001 A 
ATOM     13  C   UNL     1      -4.837  -8.946  -1.777  0.00  0.00    +0.000 A 
ATOM     14  C   UNL     1      -3.787  -9.052  -2.671  0.00  0.00    +0.001 A 
ATOM     15  C   UNL     1      -2.734  -8.162  -2.613  0.00  0.00    +0.008 A 
ENDBRANCH   7  10
BRANCH   6  16
ATOM     16  C   UNL     1      -3.132  -4.178  -1.517  0.00  0.00    +0.342 C 
ATOM     17  O   UNL     1      -3.662  -3.885  -2.572  0.00  0.00    -0.245 OA
BRANCH  16  18
ATOM     18  O   UNL     1      -3.778  -3.959  -0.353  0.00  0.00    -0.461 OA
BRANCH  18  19
ATOM     19  C   UNL     1      -5.082  -3.379  -0.434  0.00  0.00    +0.229 C 
ATOM     20  C   UNL     1      -5.652  -3.207   0.975  0.00  0.00    +0.048 C 
ENDBRANCH  18  19
ENDBRANCH  16  18
ENDBRANCH   6  16
ENDBRANCH   3   5
BRANCH   1  21
ATOM     21  C   UNL     1       0.718  -0.497  -1.257  0.00  0.00    +0.178 C 
BRANCH  21  22
ATOM     22  N   UNL     1       2.125  -0.091  -1.209  0.00  0.00    -0.279 N 
ATOM     23  C   UNL     1       3.032  -0.447  -0.252  0.00  0.00    +0.216 A 
ATOM     24  N   UNL     1       4.179   0.110  -0.553  0.00  0.00    -0.113 NA
ATOM     25  N   UNL     1       4.008   0.843  -1.734  0.00  0.00    -0.121 NA
ATOM     26  C   UNL     1       2.762   0.706  -2.119  0.00  0.00    +0.194 A 
ATOM     27  N   UNL     1       2.781  -1.258   0.848  0.00  0.00    -0.328 N 
ATOM     28  H   UNL     1       1.895  -1.626   0.988  0.00  0.00    +0.145 HD
ATOM     29  H   UNL     1       3.493  -1.455   1.477  0.00  0.00    +0.145 HD
BRANCH  26  30
ATOM     30  S   UNL     1       2.035   1.426  -3.553  0.00  0.00    -0.071 S 
BRANCH  30  31
ATOM     31  C   UNL     1       3.396   2.352  -4.316  0.00  0.00    +0.195 C 
BRANCH  31  32
ATOM     32  C   UNL     1       2.915   3.010  -5.542  0.00  0.00    +0.074 C 
ATOM     33  N   UNL     1       2.543   3.518  -6.488  0.00  0.00    -0.196 NA
ENDBRANCH  31  32
ENDBRANCH  30  31
ENDBRANCH  26  30
ENDBRANCH  21  22
BRANCH  21  35
ATOM     34  C   UNL     1      -0.019   1.526   0.010  0.00  0.00    +0.006 C 
ATOM     35  C   UNL     1       0.002  -0.004   0.002  0.00  0.00    +0.031 C 
ENDBRANCH  21  35
ENDBRANCH   1  21
TORSDOF 11
