REMARK  Name = ZINC19899429
REMARK  4 active torsions:
REMARK  status: ('A' for Active; 'I' for Inactive)
REMARK    1  A    between atoms: C_4  and  C_7
REMARK    2  A    between atoms: C_7  and  C_8
REMARK    3  A    between atoms: C_7  and  N_14
REMARK    4  A    between atoms: C_24  and  C_33
REMARK                            x       y       z     vdW  Elec       q    Type
REMARK                         _______ _______ _______ _____ _____    ______ ____
ROOT
ATOM      1  N   UNL     1       3.536  -1.963  -0.779  0.00  0.00    -0.289 NA
ATOM      2  C   UNL     1       2.503  -2.802  -0.157  0.00  0.00    +0.104 C 
ATOM      3  C   UNL     1       2.223  -4.012  -1.055  0.00  0.00    +0.123 C 
ATOM      4  N   UNL     1       3.497  -4.695  -1.329  0.00  0.00    -0.303 N 
ATOM      5  C   UNL     1       4.624  -3.892  -1.825  0.00  0.00    +0.123 C 
ATOM      6  C   UNL     1       4.809  -2.686  -0.897  0.00  0.00    +0.104 C 
ATOM      7  C   UNL     1       3.628  -6.036  -1.128  0.00  0.00    +0.175 C 
ATOM      8  N   UNL     1       2.599  -6.741  -0.687  0.00  0.00    -0.150 NA
ATOM      9  C   UNL     1       2.675  -8.044  -0.456  0.00  0.00    +0.258 C 
ATOM     10  O   UNL     1       1.686  -8.640  -0.075  0.00  0.00    -0.272 OA
ATOM     11  C   UNL     1       3.962  -8.803  -0.657  0.00  0.00    +0.202 C 
ATOM     12  C   UNL     1       4.801  -8.081  -1.718  0.00  0.00    +0.058 C 
ATOM     13  N   UNL     1       4.821  -6.651  -1.389  0.00  0.00    -0.312 N 
ATOM     14  C   UNL     1       6.226  -8.631  -1.713  0.00  0.00    +0.027 C 
ATOM     15  C   UNL     1       7.060  -7.900  -2.767  0.00  0.00    +0.002 C 
ATOM     16  C   UNL     1       6.432  -8.106  -4.147  0.00  0.00    +0.000 C 
ATOM     17  C   UNL     1       5.008  -7.546  -4.148  0.00  0.00    +0.002 C 
ATOM     18  C   UNL     1       4.172  -8.278  -3.096  0.00  0.00    +0.027 C 
ATOM     19  H   UNL     1       5.656  -6.158  -1.355  0.00  0.00    +0.149 HD
ENDROOT
BRANCH  11  20
ATOM     20  C   UNL     1       4.707  -8.855   0.612  0.00  0.00    +0.077 C 
ATOM     21  N   UNL     1       5.282  -8.896   1.591  0.00  0.00    -0.196 NA
ENDBRANCH  11  20
BRANCH   1  22
ATOM     22  C   UNL     1       3.711  -0.707  -0.038  0.00  0.00    +0.117 C 
BRANCH  22  26
ATOM     23  C   UNL     1       6.600   1.729  -2.029  0.00  0.00    +0.000 A 
ATOM     24  C   UNL     1       6.652   1.579  -0.656  0.00  0.00    +0.000 A 
ATOM     25  C   UNL     1       5.716   0.791  -0.011  0.00  0.00    +0.005 A 
ATOM     26  C   UNL     1       4.730   0.153  -0.740  0.00  0.00    -0.026 A 
ATOM     27  C   UNL     1       4.678   0.304  -2.113  0.00  0.00    +0.005 A 
ATOM     28  C   UNL     1       5.614   1.091  -2.758  0.00  0.00    +0.000 A 
ENDBRANCH  22  26
BRANCH  22  29
ATOM     29  C   UNL     1       2.396   0.025   0.028  0.00  0.00    -0.026 A 
ATOM     30  C   UNL     1       1.605   0.129  -1.101  0.00  0.00    +0.005 A 
ATOM     31  C   UNL     1       0.398   0.800  -1.041  0.00  0.00    +0.000 A 
ATOM     32  C   UNL     1      -0.018   1.367   0.148  0.00  0.00    +0.000 A 
ATOM     33  C   UNL     1       0.771   1.262   1.278  0.00  0.00    +0.000 A 
ATOM     34  C   UNL     1       1.976   0.587   1.219  0.00  0.00    +0.005 A 
ENDBRANCH  22  29
ENDBRANCH   1  22
TORSDOF 4
