REMARK  Name = ZINC04571727
REMARK  8 active torsions:
REMARK  status: ('A' for Active; 'I' for Inactive)
REMARK    1  A    between atoms: C_1  and  C_2
REMARK    2  A    between atoms: C_2  and  C_3
REMARK    3  A    between atoms: C_3  and  C_4
REMARK    4  A    between atoms: C_4  and  C_5
REMARK    5  A    between atoms: C_5  and  N_6
REMARK    6  A    between atoms: C_12  and  C_19
REMARK    7  A    between atoms: N_17  and  C_18
REMARK    8  A    between atoms: C_22  and  N_25
REMARK                            x       y       z     vdW  Elec       q    Type
REMARK                         _______ _______ _______ _____ _____    ______ ____
ROOT
ATOM      1  N   UNL     1       1.523  -4.012   2.465  0.00  0.00    -0.292 N 
ATOM      2  C   UNL     1       0.512  -4.902   3.056  0.00  0.00    +0.159 C 
ATOM      3  C   UNL     1       1.009  -6.301   2.769  0.00  0.00    +0.042 C 
ATOM      4  C   UNL     1       2.167  -6.160   2.092  0.00  0.00    +0.058 C 
ATOM      5  C   UNL     1       2.466  -4.795   1.909  0.00  0.00    +0.247 C 
ATOM      6  O   UNL     1       3.451  -4.378   1.327  0.00  0.00    -0.270 OA
ATOM      7  C   UNL     1       2.894  -7.421   1.671  0.00  0.00    +0.142 C 
ATOM      8  N   UNL     1       2.271  -8.704   2.037  0.00  0.00    -0.288 N 
ATOM      9  C   UNL     1       1.107  -8.682   2.717  0.00  0.00    +0.307 C 
ATOM     10  O   UNL     1       0.585  -9.736   3.024  0.00  0.00    -0.252 OA
ATOM     11  N   UNL     1       0.507  -7.536   3.064  0.00  0.00    -0.260 N 
ATOM     12  C   UNL     1      -0.756  -7.612   3.803  0.00  0.00    +0.139 C 
ATOM     13  H   UNL     1       2.688  -9.546   1.795  0.00  0.00    +0.151 HD
ENDROOT
BRANCH   7  14
ATOM     14  C   UNL     1       3.046  -7.391   0.172  0.00  0.00    -0.022 A 
ATOM     15  C   UNL     1       1.983  -7.745  -0.638  0.00  0.00    +0.008 A 
ATOM     16  C   UNL     1       2.123  -7.717  -2.013  0.00  0.00    +0.033 A 
ATOM     17  C   UNL     1       3.325  -7.335  -2.578  0.00  0.00    +0.126 A 
ATOM     18  C   UNL     1       4.387  -6.980  -1.769  0.00  0.00    +0.033 A 
ATOM     19  C   UNL     1       4.247  -7.004  -0.394  0.00  0.00    +0.008 A 
BRANCH  17  20
ATOM     20  N   UNL     1       3.474  -7.306  -4.051  0.00  0.00    +0.056 N 
ATOM     21  O   UNL     1       2.545  -7.617  -4.759  0.00  0.00    -0.126 OA
ATOM     22  O   UNL     1       4.526  -6.972  -4.545  0.00  0.00    -0.126 OA
ENDBRANCH  17  20
ENDBRANCH   7  14
BRANCH   1  23
ATOM     23  C   UNL     1       1.503  -2.548   2.473  0.00  0.00    +0.108 C 
BRANCH  23  24
ATOM     24  C   UNL     1       0.763  -2.041   1.233  0.00  0.00    +0.019 C 
BRANCH  24  25
ATOM     25  C   UNL     1       0.742  -0.511   1.242  0.00  0.00    +0.001 C 
BRANCH  25  27
ATOM     26  C   UNL     1      -0.019   1.526   0.010  0.00  0.00    +0.004 C 
ATOM     27  C   UNL     1       0.002  -0.004   0.002  0.00  0.00    -0.003 C 
ENDBRANCH  25  27
ENDBRANCH  24  25
ENDBRANCH  23  24
ENDBRANCH   1  23
TORSDOF 6
