REMARK  Name = ZINC52634707
REMARK  8 active torsions:
REMARK  status: ('A' for Active; 'I' for Inactive)
REMARK    1  A    between atoms: C_1  and  C_2
REMARK    2  A    between atoms: C_5  and  C_12
REMARK    3  A    between atoms: C_14  and  O_18
REMARK    4  A    between atoms: O_18  and  C_19
REMARK    5  A    between atoms: C_19  and  C_20
REMARK    6  A    between atoms: C_20  and  C_22
REMARK    7  A    between atoms: C_20  and  N_32
REMARK    8  A    between atoms: C_22  and  C_23
REMARK                            x       y       z     vdW  Elec       q    Type
REMARK                         _______ _______ _______ _____ _____    ______ ____
ROOT
ATOM      1  O   UNL     1      -9.246   2.355   0.139  0.00  0.00    -0.492 OA
ENDROOT
BRANCH   1   4
ATOM      2  C   UNL     1      -5.622   1.995   0.078  0.00  0.00    +0.022 A 
ATOM      3  C   UNL     1      -6.921   2.234  -0.376  0.00  0.00    +0.058 A 
ATOM      4  C   UNL     1      -7.965   2.131   0.534  0.00  0.00    +0.139 A 
ATOM      5  C   UNL     1      -7.684   1.797   1.852  0.00  0.00    +0.156 A 
ATOM      6  N   UNL     1      -6.445   1.578   2.246  0.00  0.00    -0.259 NA
ATOM      7  C   UNL     1      -5.425   1.659   1.416  0.00  0.00    +0.121 A 
BRANCH   2  12
ATOM      8  C   UNL     1      -0.013   1.086   0.008  0.00  0.00    +0.068 C 
ATOM      9  C   UNL     1      -0.742   1.585  -1.213  0.00  0.00    +0.068 A 
ATOM     10  C   UNL     1      -2.128   1.841  -1.298  0.00  0.00    +0.026 A 
ATOM     11  C   UNL     1      -3.204   1.744  -0.406  0.00  0.00    +0.040 A 
ATOM     12  C   UNL     1      -4.469   2.092  -0.851  0.00  0.00    +0.073 A 
ATOM     13  N   UNL     1      -4.668   2.511  -2.099  0.00  0.00    -0.253 NA
ATOM     14  C   UNL     1      -3.689   2.618  -2.970  0.00  0.00    +0.139 A 
ATOM     15  C   UNL     1      -2.385   2.291  -2.611  0.00  0.00    +0.084 A 
ATOM     16  N   UNL     1      -1.180   2.293  -3.263  0.00  0.00    -0.275 N 
ATOM     17  N   UNL     1      -0.197   1.857  -2.364  0.00  0.00    -0.178 NA
ATOM     18  H   UNL     1      -1.032   2.554  -4.185  0.00  0.00    +0.189 HD
ENDBRANCH   2  12
ENDBRANCH   1   4
BRANCH   1  19
ATOM     19  C   UNL     1     -10.263   2.229   1.135  0.00  0.00    +0.213 C 
BRANCH  19  20
ATOM     20  C   UNL     1     -11.629   2.516   0.508  0.00  0.00    -0.033 C 
BRANCH  20  21
ATOM     21  N   UNL     1     -11.935   1.484  -0.493  0.00  0.00    +0.382 N 
ATOM     22  H   UNL     1     -12.836   1.673  -0.906  0.00  0.00    -0.089 HD
ATOM     23  H   UNL     1     -11.227   1.492  -1.211  0.00  0.00    -0.089 HD
ATOM     24  H   UNL     1     -11.952   0.579  -0.048  0.00  0.00    -0.089 HD
ENDBRANCH  20  21
BRANCH  20  25
ATOM     25  C   UNL     1     -12.703   2.504   1.597  0.00  0.00    +0.020 C 
BRANCH  25  26
ATOM     26  C   UNL     1     -14.028   2.906   1.002  0.00  0.00    -0.043 C 
ATOM     27  C   UNL     1     -14.999   2.082   0.547  0.00  0.00    -0.001 A 
ATOM     28  C   UNL     1     -15.109   0.620   0.474  0.00  0.00    +0.010 A 
ATOM     29  C   UNL     1     -16.231   0.072  -0.045  0.00  0.00    +0.001 A 
ATOM     30  C   UNL     1     -17.289   0.862  -0.514  0.00  0.00    +0.002 A 
ATOM     31  C   UNL     1     -17.262   2.212  -0.479  0.00  0.00    +0.026 A 
ATOM     32  C   UNL     1     -16.131   2.894   0.046  0.00  0.00    +0.043 A 
ATOM     33  N   UNL     1     -15.869   4.171   0.185  0.00  0.00    -0.380 N 
ATOM     34  C   UNL     1     -14.543   4.313   0.797  0.00  0.00    +0.144 C 
ATOM     35  H   UNL     1     -16.455   4.901  -0.070  0.00  0.00    +0.160 HD
ENDBRANCH  25  26
ENDBRANCH  20  25
ENDBRANCH  19  20
ENDBRANCH   1  19
TORSDOF 7
