REMARK  Name = ZINC63221358
REMARK  5 active torsions:
REMARK  status: ('A' for Active; 'I' for Inactive)
REMARK    1  A    between atoms: C_3  and  N_9
REMARK    2  A    between atoms: C_6  and  C_7
REMARK    3  A    between atoms: C_10  and  C_12
REMARK    4  A    between atoms: C_12  and  S_13
REMARK    5  A    between atoms: S_13  and  C_14
REMARK                            x       y       z     vdW  Elec       q    Type
REMARK                         _______ _______ _______ _____ _____    ______ ____
ROOT
ATOM      1  C   UNL     1       6.042   2.257   0.172  0.00  0.00    +0.169 C 
ENDROOT
BRANCH   1   3
ATOM      2  N   UNL     1       3.579   2.133  -0.021  0.00  0.00    -0.285 N 
ATOM      3  C   UNL     1       4.755   1.480   0.066  0.00  0.00    +0.227 C 
ATOM      4  O   UNL     1       4.777   0.268   0.060  0.00  0.00    -0.275 OA
ATOM      5  H   UNL     1       3.566   3.100  -0.093  0.00  0.00    +0.155 HD
BRANCH   2   8
ATOM      6  C   UNL     1       1.097  -0.457   0.759  0.00  0.00    +0.020 A 
ATOM      7  C   UNL     1       2.278   0.251   0.744  0.00  0.00    +0.024 A 
ATOM      8  C   UNL     1       2.381   1.418  -0.007  0.00  0.00    +0.033 A 
ATOM      9  C   UNL     1       1.292   1.873  -0.744  0.00  0.00    +0.024 A 
ATOM     10  C   UNL     1       0.109   1.170  -0.733  0.00  0.00    +0.020 A 
ATOM     11  C   UNL     1       0.002  -0.003   0.019  0.00  0.00    +0.052 A 
BRANCH  11  12
ATOM     12  C   UNL     1      -1.228  -0.737   0.033  0.00  0.00    +0.099 C 
ATOM     13  N   UNL     1      -2.203  -1.320   0.043  0.00  0.00    -0.191 NA
ENDBRANCH  11  12
ENDBRANCH   2   8
ENDBRANCH   1   3
BRANCH   1  14
ATOM     14  S   UNL     1       7.438   1.103   0.273  0.00  0.00    -0.106 S 
BRANCH  14  15
ATOM     15  C   UNL     1       8.891   2.181   0.393  0.00  0.00    +0.236 C 
ATOM     16  N   UNL     1       8.950   3.080  -0.767  0.00  0.00    -0.355 N 
ATOM     17  C   UNL     1       8.885   4.300  -0.320  0.00  0.00    +0.061 A 
ATOM     18  C   UNL     1       8.897   5.610  -0.986  0.00  0.00    +0.029 A 
ATOM     19  C   UNL     1       8.815   6.734  -0.247  0.00  0.00    +0.022 A 
ATOM     20  C   UNL     1       8.715   6.712   1.157  0.00  0.00    +0.043 A 
ATOM     21  C   UNL     1       8.694   5.563   1.867  0.00  0.00    +0.047 A 
ATOM     22  C   UNL     1       8.780   4.277   1.165  0.00  0.00    +0.062 A 
ATOM     23  N   UNL     1       8.784   3.041   1.579  0.00  0.00    -0.355 N 
ATOM     24 CL   UNL     1       8.613   8.220   2.010  0.00  0.00    -0.083 Cl
ATOM     25  H   UNL     1       9.023   2.812  -1.697  0.00  0.00    +0.162 HD
ATOM     26  H   UNL     1       8.727   2.743   2.500  0.00  0.00    +0.162 HD
ENDBRANCH  14  15
ENDBRANCH   1  14
TORSDOF 5
