REMARK  Name = ZINC18217445
REMARK  7 active torsions:
REMARK  status: ('A' for Active; 'I' for Inactive)
REMARK    1  A    between atoms: C_3  and  C_21
REMARK    2  A    between atoms: C_6  and  C_7
REMARK    3  A    between atoms: C_7  and  N_8
REMARK    4  A    between atoms: C_9  and  C_11
REMARK    5  A    between atoms: C_14  and  N_20
REMARK    6  A    between atoms: C_15  and  N_17
REMARK    7  A    between atoms: C_21  and  N_22
REMARK                            x       y       z     vdW  Elec       q    Type
REMARK                         _______ _______ _______ _____ _____    ______ ____
ROOT
ATOM      1  N   UNL     1      -1.772  -0.872  -1.398  0.00  0.00    -0.307 N 
ATOM      2  C   UNL     1      -2.761  -1.757  -1.631  0.00  0.00    +0.244 C 
ATOM      3  O   UNL     1      -3.248  -2.381  -0.709  0.00  0.00    -0.270 OA
ATOM      4  H   UNL     1      -1.383  -0.374  -2.134  0.00  0.00    +0.149 HD
ENDROOT
BRANCH   2   5
ATOM      5  C   UNL     1      -3.252  -1.969  -3.006  0.00  0.00    +0.039 A 
ATOM      6  C   UNL     1      -2.688  -1.256  -4.069  0.00  0.00    +0.015 A 
ATOM      7  C   UNL     1      -3.148  -1.456  -5.350  0.00  0.00    +0.026 A 
ATOM      8  C   UNL     1      -4.174  -2.367  -5.589  0.00  0.00    +0.055 A 
ATOM      9  C   UNL     1      -4.737  -3.078  -4.533  0.00  0.00    +0.147 A 
ATOM     10  C   UNL     1      -4.277  -2.887  -3.250  0.00  0.00    +0.047 A 
BRANCH   9  11
ATOM     11  N   UNL     1      -5.828  -4.045  -4.791  0.00  0.00    +0.058 N 
ATOM     12  O   UNL     1      -6.735  -4.158  -4.000  0.00  0.00    -0.126 OA
ATOM     13  O   UNL     1      -5.811  -4.722  -5.793  0.00  0.00    -0.126 OA
ENDBRANCH   9  11
BRANCH   8  14
ATOM     14  N   UNL     1      -4.637  -2.567  -6.885  0.00  0.00    -0.356 N 
ATOM     15  H   UNL     1      -4.173  -2.160  -7.634  0.00  0.00    +0.142 HD
ATOM     16  H   UNL     1      -5.423  -3.113  -7.040  0.00  0.00    +0.142 HD
ENDBRANCH   8  14
ENDBRANCH   2   5
BRANCH   1  17
ATOM     17  C   UNL     1      -1.284  -0.661  -0.033  0.00  0.00    +0.139 C 
BRANCH  17  23
ATOM     18  C   UNL     1      -0.495   1.710   0.106  0.00  0.00    +0.005 A 
ATOM     19  C   UNL     1       0.512   2.657   0.096  0.00  0.00    +0.005 A 
ATOM     20  C   UNL     1       1.828   2.265  -0.066  0.00  0.00    -0.033 A 
ATOM     21  C   UNL     1       2.137   0.926  -0.217  0.00  0.00    +0.005 A 
ATOM     22  C   UNL     1       1.130  -0.021  -0.205  0.00  0.00    +0.005 A 
ATOM     23  C   UNL     1      -0.186   0.371  -0.045  0.00  0.00    -0.030 A 
BRANCH  20  24
ATOM     24  C   UNL     1       2.926   3.297  -0.079  0.00  0.00    +0.119 C 
BRANCH  24  25
ATOM     25  N   UNL     1       3.415   3.509   1.290  0.00  0.00    -0.294 NA
ATOM     26  C   UNL     1       2.377   4.122   2.131  0.00  0.00    +0.113 C 
ATOM     27  C   UNL     1       2.906   4.270   3.560  0.00  0.00    +0.175 C 
ATOM     28  O   UNL     1       4.111   5.040   3.539  0.00  0.00    -0.377 OA
ATOM     29  C   UNL     1       5.144   4.471   2.730  0.00  0.00    +0.175 C 
ATOM     30  C   UNL     1       4.637   4.326   1.292  0.00  0.00    +0.113 C 
ENDBRANCH  24  25
ENDBRANCH  20  24
ENDBRANCH  17  23
ENDBRANCH   1  17
TORSDOF 7
