REMARK  Name = ZINC04163837
REMARK  5 active torsions:
REMARK  status: ('A' for Active; 'I' for Inactive)
REMARK    1  A    between atoms: C_4  and  C_7
REMARK    2  A    between atoms: C_9  and  C_21
REMARK    3  A    between atoms: C_11  and  C_16
REMARK    4  A    between atoms: C_11  and  O_20
REMARK    5  A    between atoms: C_21  and  C_23
REMARK                            x       y       z     vdW  Elec       q    Type
REMARK                         _______ _______ _______ _____ _____    ______ ____
ROOT
ATOM      1  C   UNL     1      -1.405   1.851  -0.341  0.00  0.00    +0.120 C 
ATOM      2  C   UNL     1      -1.937   2.629  -1.549  0.00  0.00    +0.144 C 
ATOM      3  C   UNL     1      -3.005   3.615  -1.063  0.00  0.00    +0.243 C 
ATOM      4  N   UNL     1      -2.433   4.466  -0.018  0.00  0.00    -0.264 N 
ATOM      5  C   UNL     1      -1.448   4.026   0.778  0.00  0.00    +0.302 C 
ATOM      6  O   UNL     1      -1.015   4.770   1.637  0.00  0.00    -0.253 OA
ATOM      7  N   UNL     1      -0.920   2.797   0.665  0.00  0.00    -0.292 N 
ATOM      8  H   UNL     1      -2.773   5.367   0.100  0.00  0.00    +0.153 HD
ATOM      9  H   UNL     1      -0.203   2.531   1.261  0.00  0.00    +0.151 HD
ENDROOT
BRANCH   1  13
ATOM     10  C   UNL     1       1.799  -0.684  -1.587  0.00  0.00    +0.000 A 
ATOM     11  C   UNL     1       0.510  -1.180  -1.523  0.00  0.00    +0.000 A 
ATOM     12  C   UNL     1      -0.526  -0.360  -1.117  0.00  0.00    +0.005 A 
ATOM     13  C   UNL     1      -0.274   0.955  -0.776  0.00  0.00    -0.026 A 
ATOM     14  C   UNL     1       1.015   1.451  -0.840  0.00  0.00    +0.005 A 
ATOM     15  C   UNL     1       2.051   0.632  -1.246  0.00  0.00    +0.000 A 
ENDBRANCH   1  13
BRANCH   3  16
ATOM     16  C   UNL     1      -3.470   4.483  -2.234  0.00  0.00    +0.436 C 
ATOM     17  F   UNL     1      -3.886   3.662  -3.287  0.00  0.00    -0.166 F 
ATOM     18  F   UNL     1      -4.536   5.289  -1.822  0.00  0.00    -0.166 F 
ATOM     19  F   UNL     1      -2.412   5.292  -2.663  0.00  0.00    -0.166 F 
ENDBRANCH   3  16
BRANCH   3  20
ATOM     20  O   UNL     1      -4.117   2.891  -0.534  0.00  0.00    -0.364 OA
ATOM     21  H   UNL     1      -4.833   3.454  -0.207  0.00  0.00    +0.212 HD
ENDBRANCH   3  20
BRANCH   2  22
ATOM     22  C   UNL     1      -0.807   3.383  -2.203  0.00  0.00    +0.173 C 
ATOM     23  O   UNL     1      -0.217   4.245  -1.587  0.00  0.00    -0.292 OA
BRANCH  22  24
ATOM     24  C   UNL     1      -0.420   3.072  -3.587  0.00  0.00    +0.018 A 
ATOM     25  C   UNL     1      -1.010   1.996  -4.258  0.00  0.00    +0.012 A 
ATOM     26  C   UNL     1      -0.647   1.715  -5.557  0.00  0.00    +0.016 A 
ATOM     27  C   UNL     1       0.309   2.488  -6.196  0.00  0.00    +0.018 A 
ATOM     28  C   UNL     1       0.902   3.553  -5.536  0.00  0.00    +0.016 A 
ATOM     29  C   UNL     1       0.544   3.849  -4.238  0.00  0.00    +0.012 A 
ATOM     30 BR   UNL     1       0.807   2.089  -7.976  0.00  0.00    -0.050 Br
ENDBRANCH  22  24
ENDBRANCH   2  22
TORSDOF 5
