REMARK  Name = ZINC59818126
REMARK  9 active torsions:
REMARK  status: ('A' for Active; 'I' for Inactive)
REMARK    1  A    between atoms: C_1  and  C_2
REMARK    2  A    between atoms: C_9  and  C_11
REMARK    3  A    between atoms: C_11  and  S_12
REMARK    4  A    between atoms: S_12  and  C_13
REMARK    5  A    between atoms: N_18  and  N_19
REMARK    6  A    between atoms: C_20  and  C_21
REMARK    7  A    between atoms: C_24  and  C_26
REMARK    8  A    between atoms: C_26  and  O_27
REMARK    9  A    between atoms: O_27  and  C_28
REMARK                            x       y       z     vdW  Elec       q    Type
REMARK                         _______ _______ _______ _____ _____    ______ ____
ROOT
ATOM      1  C   UNL     1       2.969  -6.711   1.624  0.00  0.00    +0.211 A 
ATOM      2  N   UNL     1       3.902  -7.663   1.730  0.00  0.00    -0.186 NA
ATOM      3  C   UNL     1       3.328  -8.848   1.730  0.00  0.00    +0.232 A 
ATOM      4  N   UNL     1       1.994  -8.665   1.622  0.00  0.00    -0.245 N 
ATOM      5  N   UNL     1       1.788  -7.277   1.560  0.00  0.00    -0.144 NA
ATOM      6  N   UNL     1       3.975 -10.065   1.824  0.00  0.00    -0.205 N 
ATOM      7  H   UNL     1       3.463 -10.889   1.815  0.00  0.00    +0.177 HD
ATOM      8  H   UNL     1       1.313  -9.355   1.595  0.00  0.00    +0.192 HD
ENDROOT
BRANCH   6   9
ATOM      9  N   UNL     1       5.372 -10.109   1.933  0.00  0.00    -0.184 NA
ATOM     10  C   UNL     1       5.981 -11.255   2.022  0.00  0.00    +0.176 C 
BRANCH  10  11
ATOM     11  C   UNL     1       7.442 -11.301   2.135  0.00  0.00    +0.148 A 
ATOM     12  C   UNL     1       8.204 -12.429   2.230  0.00  0.00    +0.051 A 
ATOM     13  C   UNL     1       9.544 -12.007   2.318  0.00  0.00    +0.049 A 
ATOM     14  C   UNL     1       9.539 -10.659   2.275  0.00  0.00    +0.143 A 
ATOM     15  O   UNL     1       8.269 -10.236   2.159  0.00  0.00    -0.455 OA
BRANCH  14  16
ATOM     16  C   UNL     1      10.757  -9.774   2.339  0.00  0.00    +0.303 C 
BRANCH  16  17
ATOM     17  O   UNL     1      11.244  -9.537   1.017  0.00  0.00    -0.484 OA
BRANCH  17  18
ATOM     18  C   UNL     1      12.347  -8.752   0.897  0.00  0.00    +0.121 A 
ATOM     19  C   UNL     1      12.950  -8.225   2.030  0.00  0.00    +0.048 A 
ATOM     20  C   UNL     1      14.070  -7.426   1.907  0.00  0.00    +0.042 A 
ATOM     21  C   UNL     1      14.591  -7.151   0.653  0.00  0.00    +0.124 A 
ATOM     22  C   UNL     1      13.990  -7.676  -0.478  0.00  0.00    +0.042 A 
ATOM     23  C   UNL     1      12.873  -8.481  -0.357  0.00  0.00    +0.048 A 
ATOM     24  F   UNL     1      15.687  -6.370   0.534  0.00  0.00    -0.205 F 
ENDBRANCH  17  18
ENDBRANCH  16  17
ENDBRANCH  14  16
ENDBRANCH  10  11
ENDBRANCH   6   9
BRANCH   1  25
ATOM     25  S   UNL     1       3.277  -4.976   1.585  0.00  0.00    -0.075 S 
BRANCH  25  26
ATOM     26  C   UNL     1       1.625  -4.241   1.440  0.00  0.00    +0.173 C 
BRANCH  26  34
ATOM     27  C   UNL     1      -0.019   1.526   0.010  0.00  0.00    +0.009 C 
ATOM     28  C   UNL     1       0.002  -0.004   0.002  0.00  0.00    +0.003 C 
ATOM     29  C   UNL     1      -1.433  -0.534   0.015  0.00  0.00    +0.006 C 
ATOM     30  C   UNL     1      -1.414  -2.064  -0.027  0.00  0.00    +0.019 C 
ATOM     31  C   UNL     1      -0.692  -2.596   1.215  0.00  0.00    +0.108 C 
ATOM     32  N   UNL     1       0.639  -1.977   1.288  0.00  0.00    -0.301 N 
ATOM     33  C   UNL     1       0.742  -0.512   1.244  0.00  0.00    +0.111 C 
ATOM     34  C   UNL     1       1.746  -2.740   1.395  0.00  0.00    +0.226 C 
ATOM     35  O   UNL     1       2.838  -2.217   1.455  0.00  0.00    -0.275 OA
ENDBRANCH  26  34
ENDBRANCH  25  26
ENDBRANCH   1  25
TORSDOF 8
