REMARK  Name = ZINC34995578
REMARK  11 active torsions:
REMARK  status: ('A' for Active; 'I' for Inactive)
REMARK    1  A    between atoms: C_1  and  C_2
REMARK    2  A    between atoms: C_2  and  C_3
REMARK    3  A    between atoms: C_2  and  C_4
REMARK    4  A    between atoms: C_2  and  C_17
REMARK    5  A    between atoms: C_4  and  N_5
REMARK    6  A    between atoms: N_5  and  C_6
REMARK    7  A    between atoms: C_6  and  C_7
REMARK    8  A    between atoms: C_11  and  N_13
REMARK    9  A    between atoms: C_17  and  N_18
REMARK   10  A    between atoms: N_18  and  C_19
REMARK   11  A    between atoms: N_18  and  C_20
REMARK                            x       y       z     vdW  Elec       q    Type
REMARK                         _______ _______ _______ _____ _____    ______ ____
ROOT
ATOM      1  N   UNL     1      -2.370   0.983   0.676  0.00  0.00    +0.382 N 
ATOM      2  H   UNL     1      -2.009   0.886   1.614  0.00  0.00    -0.085 HD
ATOM      3  H   UNL     1      -2.181   1.914   0.337  0.00  0.00    -0.085 HD
ENDROOT
BRANCH   1   4
ATOM      4  C   UNL     1      -1.722   0.000  -0.202  0.00  0.00    -0.078 C 
BRANCH   4   6
ATOM      5  C   UNL     1       0.076   1.654  -0.724  0.00  0.00    +0.007 C 
ATOM      6  C   UNL     1      -0.211   0.242  -0.210  0.00  0.00    -0.065 C 
ATOM      7  C   UNL     1       0.336   0.095   1.211  0.00  0.00    +0.007 C 
BRANCH   6   8
ATOM      8  C   UNL     1       0.464  -0.782  -1.125  0.00  0.00    -0.075 C 
BRANCH   8   9
ATOM      9  N   UNL     1       1.923  -0.637  -1.030  0.00  0.00    +0.376 N 
ATOM     10  C   UNL     1       2.417  -1.405   0.120  0.00  0.00    -0.097 C 
ATOM     11  C   UNL     1       2.546  -1.141  -2.260  0.00  0.00    -0.097 C 
ATOM     12  H   UNL     1       2.156   0.338  -0.909  0.00  0.00    -0.083 HD
ENDBRANCH   8   9
ENDBRANCH   6   8
ENDBRANCH   4   6
ENDBRANCH   1   4
BRANCH   1  13
ATOM     13  C   UNL     1      -3.821   0.751   0.684  0.00  0.00    -0.047 C 
BRANCH  13  14
ATOM     14  C   UNL     1      -4.486   1.759   1.586  0.00  0.00    -0.062 A 
ATOM     15  C   UNL     1      -4.662   1.477   2.928  0.00  0.00    +0.003 A 
ATOM     16  C   UNL     1      -5.271   2.401   3.755  0.00  0.00    +0.018 A 
ATOM     17  C   UNL     1      -5.706   3.609   3.239  0.00  0.00    +0.048 A 
ATOM     18  C   UNL     1      -5.530   3.891   1.897  0.00  0.00    +0.140 A 
ATOM     19  C   UNL     1      -4.915   2.968   1.071  0.00  0.00    +0.035 A 
ATOM     20 BR   UNL     1      -6.540   4.874   4.370  0.00  0.00    -0.048 Br
BRANCH  18  21
ATOM     21  N   UNL     1      -5.995   5.184   1.345  0.00  0.00    +0.058 N 
ATOM     22  O   UNL     1      -5.842   5.430   0.172  0.00  0.00    -0.126 OA
ATOM     23  O   UNL     1      -6.529   5.992   2.068  0.00  0.00    -0.126 OA
ENDBRANCH  18  21
ENDBRANCH  13  14
ENDBRANCH   1  13
TORSDOF 7
