REMARK  Name = ZINC62722693
REMARK  5 active torsions:
REMARK  status: ('A' for Active; 'I' for Inactive)
REMARK    1  A    between atoms: C_3  and  N_19
REMARK    2  A    between atoms: C_4  and  O_8
REMARK    3  A    between atoms: O_8  and  C_9
REMARK    4  A    between atoms: C_12  and  C_16
REMARK    5  A    between atoms: C_16  and  O_17
REMARK                            x       y       z     vdW  Elec       q    Type
REMARK                         _______ _______ _______ _____ _____    ______ ____
ROOT
ATOM      1  O   UNL     1       3.587  -0.630  -0.036  0.00  0.00    -0.448 OA
ENDROOT
BRANCH   1   2
ATOM      2  C   UNL     1       3.560  -1.990  -0.043  0.00  0.00    +0.198 A 
ATOM      3  C   UNL     1       3.552  -2.692   1.155  0.00  0.00    +0.169 A 
ATOM      4  C   UNL     1       3.524  -4.075   1.145  0.00  0.00    +0.048 A 
ATOM      5  C   UNL     1       3.504  -4.759  -0.057  0.00  0.00    -0.017 A 
ATOM      6  C   UNL     1       3.512  -4.063  -1.252  0.00  0.00    +0.048 A 
ATOM      7  C   UNL     1       3.534  -2.679  -1.248  0.00  0.00    +0.169 A 
ATOM      8  F   UNL     1       3.536  -2.000  -2.416  0.00  0.00    -0.202 F 
ATOM      9  F   UNL     1       3.572  -2.025   2.330  0.00  0.00    -0.202 F 
BRANCH   5  10
ATOM     10  C   UNL     1       3.475  -6.265  -0.065  0.00  0.00    +0.191 C 
BRANCH  10  11
ATOM     11  O   UNL     1       2.118  -6.715  -0.060  0.00  0.00    -0.390 OA
ATOM     12  H   UNL     1       2.023  -7.677  -0.065  0.00  0.00    +0.210 HD
ENDBRANCH  10  11
ENDBRANCH   5  10
ENDBRANCH   1   2
BRANCH   1  16
ATOM     13  C   UNL     1      -0.017   1.379   0.010  0.00  0.00    +0.022 A 
ATOM     14  C   UNL     1       1.170   2.089   0.002  0.00  0.00    +0.038 A 
ATOM     15  C   UNL     1       2.377   1.419  -0.013  0.00  0.00    +0.168 A 
ATOM     16  C   UNL     1       2.400   0.031  -0.021  0.00  0.00    +0.160 A 
ATOM     17  C   UNL     1       1.208  -0.680  -0.013  0.00  0.00    +0.068 A 
ATOM     18  C   UNL     1       0.002  -0.004   0.002  0.00  0.00    +0.045 A 
ATOM     19 CL   UNL     1      -1.490  -0.892   0.012  0.00  0.00    -0.083 Cl
BRANCH  15  20
ATOM     20  N   UNL     1       3.647   2.180  -0.021  0.00  0.00    +0.060 N 
ATOM     21  O   UNL     1       3.627   3.389  -0.015  0.00  0.00    -0.126 OA
ATOM     22  O   UNL     1       4.704   1.593  -0.035  0.00  0.00    -0.126 OA
ENDBRANCH  15  20
ENDBRANCH   1  16
TORSDOF 5
