REMARK  Name = ZINC32819618
REMARK  13 active torsions:
REMARK  status: ('A' for Active; 'I' for Inactive)
REMARK    1  A    between atoms: C_1  and  C_2
REMARK    2  A    between atoms: C_5  and  N_8
REMARK    3  A    between atoms: C_9  and  C_11
REMARK    4  A    between atoms: C_11  and  S_12
REMARK    5  A    between atoms: S_12  and  C_13
REMARK    6  A    between atoms: C_13  and  C_14
REMARK    7  A    between atoms: C_14  and  C_15
REMARK    8  A    between atoms: N_17  and  C_18
REMARK    9  A    between atoms: N_17  and  C_19
REMARK   10  A    between atoms: C_19  and  C_21
REMARK   11  A    between atoms: C_19  and  C_22
REMARK   12  A    between atoms: C_25  and  S_28
REMARK   13  A    between atoms: S_28  and  N_31
REMARK                            x       y       z     vdW  Elec       q    Type
REMARK                         _______ _______ _______ _____ _____    ______ ____
ROOT
ATOM      1  C   UNL     1      -4.645   4.892   5.043  0.00  0.00    +0.217 C 
ATOM      2  O   UNL     1      -5.545   4.090   5.178  0.00  0.00    -0.276 OA
ATOM      3  N   UNL     1      -3.383   4.462   4.848  0.00  0.00    -0.298 N 
ATOM      4  C   UNL     1      -2.295   5.430   4.685  0.00  0.00    +0.132 C 
ENDROOT
BRANCH   3   5
ATOM      5  C   UNL     1      -3.098   3.025   4.799  0.00  0.00    +0.103 C 
ATOM      6  C   UNL     1      -2.003   2.687   5.813  0.00  0.00    +0.033 C 
BRANCH   5   7
ATOM      7  C   UNL     1      -2.633   2.652   3.415  0.00  0.00    -0.027 A 
ATOM      8  C   UNL     1      -3.316   1.693   2.691  0.00  0.00    +0.007 A 
ATOM      9  C   UNL     1      -2.890   1.351   1.421  0.00  0.00    +0.029 A 
ATOM     10  C   UNL     1      -1.780   1.969   0.875  0.00  0.00    +0.105 A 
ATOM     11  C   UNL     1      -1.093   2.924   1.601  0.00  0.00    +0.029 A 
ATOM     12  C   UNL     1      -1.523   3.270   2.869  0.00  0.00    +0.007 A 
BRANCH  10  13
ATOM     13  S   UNL     1      -1.236   1.533  -0.743  0.00  0.00    +0.056 S 
ATOM     14  O   UNL     1      -1.720   0.221  -0.995  0.00  0.00    -0.153 OA
ATOM     15  O   UNL     1       0.145   1.861  -0.810  0.00  0.00    -0.153 OA
BRANCH  13  16
ATOM     16  N   UNL     1      -2.013   2.536  -1.807  0.00  0.00    -0.204 NA
ATOM     17  H   UNL     1      -1.700   2.296  -2.834  0.00  0.00    +0.144 HD
ATOM     18  H   UNL     1      -1.755   3.582  -1.581  0.00  0.00    +0.144 HD
ENDBRANCH  13  16
ENDBRANCH  10  13
ENDBRANCH   5   7
ENDBRANCH   3   5
BRANCH   1  19
ATOM     19  C   UNL     1      -4.938   6.369   5.094  0.00  0.00    +0.106 C 
BRANCH  19  20
ATOM     20  C   UNL     1      -6.435   6.585   5.324  0.00  0.00    +0.079 C 
BRANCH  20  21
ATOM     21  S   UNL     1      -6.787   8.363   5.386  0.00  0.00    -0.151 S 
BRANCH  21  22
ATOM     22  C   UNL     1      -8.578   8.446   5.661  0.00  0.00    +0.165 C 
BRANCH  22  24
ATOM     23  N   UNL     1     -10.306  10.195   5.932  0.00  0.00    -0.285 N 
ATOM     24  C   UNL     1      -9.009   9.889   5.732  0.00  0.00    +0.227 C 
ATOM     25  O   UNL     1      -8.189  10.774   5.610  0.00  0.00    -0.275 OA
ATOM     26  H   UNL     1     -11.062   9.397   5.964  0.00  0.00    +0.155 HD
BRANCH  23  31
ATOM     27  C   UNL     1     -11.869  15.607   6.614  0.00  0.00    +0.044 C 
ATOM     28  C   UNL     1     -11.454  14.169   6.433  0.00  0.00    -0.050 A 
ATOM     29  C   UNL     1     -10.424  13.852   5.566  0.00  0.00    +0.005 A 
ATOM     30  C   UNL     1     -10.041  12.536   5.398  0.00  0.00    +0.023 A 
ATOM     31  C   UNL     1     -10.692  11.530   6.101  0.00  0.00    +0.033 A 
ATOM     32  C   UNL     1     -11.729  11.851   6.966  0.00  0.00    +0.023 A 
ATOM     33  C   UNL     1     -12.103  13.170   7.134  0.00  0.00    +0.005 A 
ENDBRANCH  23  31
ENDBRANCH  22  24
ENDBRANCH  21  22
ENDBRANCH  20  21
ENDBRANCH  19  20
ENDBRANCH   1  19
TORSDOF 10
