REMARK  Name = ZINC23481502
REMARK  9 active torsions:
REMARK  status: ('A' for Active; 'I' for Inactive)
REMARK    1  A    between atoms: C_1  and  C_2
REMARK    2  A    between atoms: C_2  and  C_4
REMARK    3  A    between atoms: C_2  and  N_14
REMARK    4  A    between atoms: C_7  and  S_10
REMARK    5  A    between atoms: S_10  and  N_13
REMARK    6  A    between atoms: C_15  and  C_17
REMARK    7  A    between atoms: C_20  and  C_23
REMARK    8  A    between atoms: C_23  and  N_24
REMARK    9  A    between atoms: C_25  and  C_27
REMARK                            x       y       z     vdW  Elec       q    Type
REMARK                         _______ _______ _______ _____ _____    ______ ____
ROOT
ATOM      1  C   UNL     1      -5.737   3.851   0.050  0.00  0.00    +0.037 A 
ATOM      2  C   UNL     1      -5.204   3.410  -1.162  0.00  0.00    +0.013 A 
ATOM      3  C   UNL     1      -4.143   2.527  -1.165  0.00  0.00    +0.006 A 
ATOM      4  C   UNL     1      -3.608   2.080   0.030  0.00  0.00    -0.030 A 
ATOM      5  C   UNL     1      -4.135   2.510   1.235  0.00  0.00    +0.006 A 
ATOM      6  C   UNL     1      -5.193   3.396   1.252  0.00  0.00    +0.013 A 
ENDROOT
BRANCH   1   8
ATOM      7  N   UNL     1      -7.387   5.220   1.233  0.00  0.00    -0.305 N 
ATOM      8  C   UNL     1      -6.874   4.796   0.061  0.00  0.00    +0.245 C 
ATOM      9  O   UNL     1      -7.346   5.190  -0.988  0.00  0.00    -0.270 OA
ATOM     10  H   UNL     1      -6.960   4.863   2.181  0.00  0.00    +0.150 HD
BRANCH   7  12
ATOM     11  C   UNL     1      -9.825   5.378   1.119  0.00  0.00    +0.033 C 
ATOM     12  C   UNL     1      -8.514   6.157   1.243  0.00  0.00    +0.100 C 
BRANCH  12  13
ATOM     13  C   UNL     1      -8.510   6.932   2.535  0.00  0.00    -0.027 A 
ATOM     14  C   UNL     1      -8.210   6.294   3.724  0.00  0.00    +0.007 A 
ATOM     15  C   UNL     1      -8.202   7.006   4.908  0.00  0.00    +0.029 A 
ATOM     16  C   UNL     1      -8.505   8.355   4.906  0.00  0.00    +0.105 A 
ATOM     17  C   UNL     1      -8.810   8.992   3.718  0.00  0.00    +0.029 A 
ATOM     18  C   UNL     1      -8.813   8.281   2.532  0.00  0.00    +0.007 A 
BRANCH  16  19
ATOM     19  S   UNL     1      -8.502   9.262   6.416  0.00  0.00    +0.056 S 
ATOM     20  O   UNL     1      -7.652   8.557   7.311  0.00  0.00    -0.153 OA
ATOM     21  O   UNL     1      -8.285  10.623   6.072  0.00  0.00    -0.153 OA
BRANCH  19  22
ATOM     22  N   UNL     1     -10.031   9.170   7.045  0.00  0.00    -0.204 NA
ATOM     23  H   UNL     1     -10.071   9.726   7.994  0.00  0.00    +0.144 HD
ATOM     24  H   UNL     1     -10.290   8.116   7.227  0.00  0.00    +0.144 HD
ENDBRANCH  19  22
ENDBRANCH  16  19
ENDBRANCH  12  13
ENDBRANCH   7  12
ENDBRANCH   1   8
BRANCH   4  25
ATOM     25  C   UNL     1      -2.449   1.117   0.020  0.00  0.00    +0.139 C 
BRANCH  25  26
ATOM     26  N   UNL     1      -1.191   1.867   0.018  0.00  0.00    -0.311 N 
ATOM     27  C   UNL     1      -0.014   1.209   0.009  0.00  0.00    +0.219 C 
ATOM     28  O   UNL     1       0.002  -0.004   0.002  0.00  0.00    -0.275 OA
ATOM     29  H   UNL     1      -1.206   2.966   0.024  0.00  0.00    +0.149 HD
BRANCH  27  30
ATOM     30  C   UNL     1       1.280   1.980   0.001  0.00  0.00    +0.048 C 
ATOM     31  C   UNL     1       1.337   2.867  -1.245  0.00  0.00    +0.019 C 
ATOM     32  C   UNL     1       2.652   3.650  -1.253  0.00  0.00    -0.009 C 
ATOM     33  C   UNL     1       3.828   2.672  -1.270  0.00  0.00    +0.007 C 
ATOM     34  C   UNL     1       3.771   1.784  -0.024  0.00  0.00    -0.009 C 
ATOM     35  C   UNL     1       2.457   1.002  -0.016  0.00  0.00    +0.019 C 
ATOM     36  C   UNL     1       3.852   2.658   1.229  0.00  0.00    +0.007 C 
ATOM     37  C   UNL     1       2.676   3.637   1.245  0.00  0.00    -0.009 C 
ATOM     38  C   UNL     1       2.733   4.524   0.000  0.00  0.00    +0.007 C 
ATOM     39  C   UNL     1       1.361   2.854   1.254  0.00  0.00    +0.019 C 
ENDBRANCH  27  30
ENDBRANCH  25  26
ENDBRANCH   4  25
TORSDOF 8
