REMARK  Name = ZINC06143928
REMARK  5 active torsions:
REMARK  status: ('A' for Active; 'I' for Inactive)
REMARK    1  A    between atoms: C_1  and  C_2
REMARK    2  A    between atoms: C_8  and  C_22
REMARK    3  A    between atoms: C_10  and  C_15
REMARK    4  A    between atoms: C_15  and  C_17
REMARK    5  A    between atoms: C_25  and  N_28
REMARK                            x       y       z     vdW  Elec       q    Type
REMARK                         _______ _______ _______ _____ _____    ______ ____
ROOT
ATOM      1  C   UNL     1      -4.093   5.234  -0.636  0.00  0.00    +0.075 C 
ATOM      2  C   UNL     1      -2.840   4.402  -0.535  0.00  0.00    +0.101 A 
ATOM      3  N   UNL     1      -1.579   4.743  -0.719  0.00  0.00    -0.145 NA
ATOM      4  N   UNL     1      -0.635   3.916  -0.594  0.00  0.00    -0.125 NA
ATOM      5  C   UNL     1      -0.854   2.648  -0.271  0.00  0.00    +0.191 A 
ATOM      6  S   UNL     1      -2.640   2.667  -0.140  0.00  0.00    -0.035 S 
ATOM      7  N   UNL     1       0.044   1.605  -0.091  0.00  0.00    -0.230 N 
ATOM      8  C   UNL     1       1.502   1.685  -0.233  0.00  0.00    +0.152 C 
ATOM      9  C   UNL     1       2.030   0.299   0.055  0.00  0.00    +0.077 C 
ATOM     10  C   UNL     1       0.957  -0.477   0.332  0.00  0.00    +0.250 C 
ATOM     11  C   UNL     1      -0.269   0.338   0.240  0.00  0.00    +0.293 C 
ATOM     12  O   UNL     1      -1.396  -0.073   0.434  0.00  0.00    -0.266 OA
ATOM     13  O   UNL     1       1.001  -1.794   0.643  0.00  0.00    -0.282 OA
ENDROOT
BRANCH   8  14
ATOM     14  C   UNL     1       1.864   2.096  -1.637  0.00  0.00    -0.022 A 
ATOM     15  C   UNL     1       1.254   1.484  -2.716  0.00  0.00    +0.008 A 
ATOM     16  C   UNL     1       1.582   1.864  -4.003  0.00  0.00    +0.033 A 
ATOM     17  C   UNL     1       2.528   2.850  -4.213  0.00  0.00    +0.126 A 
ATOM     18  C   UNL     1       3.143   3.459  -3.135  0.00  0.00    +0.033 A 
ATOM     19  C   UNL     1       2.811   3.082  -1.847  0.00  0.00    +0.008 A 
BRANCH  17  20
ATOM     20  N   UNL     1       2.883   3.254  -5.592  0.00  0.00    +0.056 N 
ATOM     21  O   UNL     1       3.717   4.122  -5.777  0.00  0.00    -0.126 OA
ATOM     22  O   UNL     1       2.342   2.717  -6.542  0.00  0.00    -0.126 OA
ENDBRANCH  17  20
ENDBRANCH   8  14
BRANCH   9  23
ATOM     23  C   UNL     1       3.435  -0.124   0.037  0.00  0.00    +0.202 C 
ATOM     24  O   UNL     1       3.820  -0.925  -0.796  0.00  0.00    -0.286 OA
BRANCH  23  25
ATOM     25  C   UNL     1       4.376   0.418   1.022  0.00  0.00    +0.059 A 
ATOM     26  C   UNL     1       5.749   0.232   1.115  0.00  0.00    +0.019 A 
ATOM     27  C   UNL     1       6.395   0.863   2.148  0.00  0.00    +0.008 A 
ATOM     28  C   UNL     1       5.675   1.625   3.015  0.00  0.00    +0.046 A 
ATOM     29  S   UNL     1       4.056   1.493   2.409  0.00  0.00    -0.093 S 
ENDBRANCH  23  25
ENDBRANCH   9  23
TORSDOF 4
