REMARK  Name = ZINC19112377
REMARK  8 active torsions:
REMARK  status: ('A' for Active; 'I' for Inactive)
REMARK    1  A    between atoms: C_4  and  N_17
REMARK    2  A    between atoms: C_5  and  C_7
REMARK    3  A    between atoms: N_9  and  C_10
REMARK    4  A    between atoms: C_18  and  C_20
REMARK    5  A    between atoms: C_20  and  S_21
REMARK    6  A    between atoms: S_21  and  C_22
REMARK    7  A    between atoms: N_28  and  C_29
REMARK    8  A    between atoms: C_29  and  C_30
REMARK                            x       y       z     vdW  Elec       q    Type
REMARK                         _______ _______ _______ _____ _____    ______ ____
ROOT
ATOM      1  N   UNL     1       2.850  -0.966  -0.353  0.00  0.00    -0.284 N 
ATOM      2  C   UNL     1       4.006  -0.353  -0.678  0.00  0.00    +0.228 C 
ATOM      3  O   UNL     1       4.042   0.853  -0.792  0.00  0.00    -0.275 OA
ATOM      4  H   UNL     1       2.837  -1.921  -0.186  0.00  0.00    +0.155 HD
ENDROOT
BRANCH   1   8
ATOM      5  C   UNL     1      -0.672   1.248  -0.068  0.00  0.00    +0.001 A 
ATOM      6  C   UNL     1       0.352   1.669  -0.901  0.00  0.00    +0.002 A 
ATOM      7  C   UNL     1       1.519   0.938  -0.997  0.00  0.00    +0.024 A 
ATOM      8  C   UNL     1       1.673  -0.226  -0.257  0.00  0.00    +0.046 A 
ATOM      9  C   UNL     1       0.639  -0.655   0.588  0.00  0.00    +0.058 A 
ATOM     10  C   UNL     1      -0.537   0.095   0.674  0.00  0.00    +0.015 A 
BRANCH   9  11
ATOM     11  C   UNL     1       0.790  -1.891   1.379  0.00  0.00    +0.250 C 
ATOM     12  O   UNL     1       1.853  -2.482   1.385  0.00  0.00    -0.270 OA
ATOM     13  N   UNL     1      -0.249  -2.364   2.095  0.00  0.00    -0.281 N 
ATOM     14  H   UNL     1      -1.117  -1.936   2.031  0.00  0.00    +0.155 HD
BRANCH  13  15
ATOM     15  C   UNL     1      -0.075  -3.474   2.930  0.00  0.00    +0.034 A 
ATOM     16  C   UNL     1      -1.115  -4.376   3.112  0.00  0.00    +0.026 A 
ATOM     17  C   UNL     1      -0.941  -5.470   3.937  0.00  0.00    +0.040 A 
ATOM     18  C   UNL     1       0.268  -5.668   4.582  0.00  0.00    +0.124 A 
ATOM     19  C   UNL     1       1.306  -4.769   4.402  0.00  0.00    +0.040 A 
ATOM     20  C   UNL     1       1.139  -3.676   3.573  0.00  0.00    +0.026 A 
ATOM     21  F   UNL     1       0.435  -6.739   5.388  0.00  0.00    -0.205 F 
ENDBRANCH  13  15
ENDBRANCH   9  11
ENDBRANCH   1   8
BRANCH   2  22
ATOM     22  C   UNL     1       5.254  -1.169  -0.900  0.00  0.00    +0.173 C 
BRANCH  22  23
ATOM     23  S   UNL     1       6.630  -0.065  -1.320  0.00  0.00    -0.077 S 
BRANCH  23  24
ATOM     24  C   UNL     1       7.997  -1.154  -1.546  0.00  0.00    +0.193 A 
ATOM     25  N   UNL     1       7.962  -2.450  -1.431  0.00  0.00    -0.145 NA
ATOM     26  N   UNL     1       9.248  -2.944  -1.687  0.00  0.00    -0.226 N 
ATOM     27  H   UNL     1       9.519  -3.875  -1.673  0.00  0.00    +0.194 HD
ATOM     28  C   UNL     1      10.040  -1.886  -1.958  0.00  0.00    +0.345 A 
ATOM     29  O   UNL     1      11.227  -1.926  -2.230  0.00  0.00    -0.245 OA
ATOM     30  N   UNL     1       9.278  -0.777  -1.880  0.00  0.00    -0.268 N 
BRANCH  30  31
ATOM     31  C   UNL     1       9.736   0.596  -2.107  0.00  0.00    +0.160 C 
BRANCH  31  32
ATOM     32  C   UNL     1      10.224   1.196  -0.787  0.00  0.00    +0.138 C 
ATOM     33  C   UNL     1      10.595   2.680  -0.992  0.00  0.00    +0.035 C 
ATOM     34  C   UNL     1      11.869   2.826  -0.116  0.00  0.00    +0.031 C 
ATOM     35  C   UNL     1      12.510   1.426  -0.294  0.00  0.00    +0.160 C 
ATOM     36  O   UNL     1      11.402   0.510  -0.348  0.00  0.00    -0.375 OA
ENDBRANCH  31  32
ENDBRANCH  30  31
ENDBRANCH  23  24
ENDBRANCH  22  23
ENDBRANCH   2  22
TORSDOF 8
