REMARK  Name = ZINC40597747
REMARK  6 active torsions:
REMARK  status: ('A' for Active; 'I' for Inactive)
REMARK    1  A    between atoms: C_1  and  C_2
REMARK    2  A    between atoms: C_2  and  C_3
REMARK    3  A    between atoms: C_2  and  N_4
REMARK    4  A    between atoms: C_6  and  N_24
REMARK    5  A    between atoms: C_7  and  N_11
REMARK    6  A    between atoms: N_14  and  C_17
REMARK                            x       y       z     vdW  Elec       q    Type
REMARK                         _______ _______ _______ _____ _____    ______ ____
ROOT
ATOM      1  N   UNL     1       2.466  -2.396   0.710  0.00  0.00    -0.325 N 
ATOM      2  C   UNL     1       2.951  -1.541  -0.268  0.00  0.00    +0.155 A 
ATOM      3  C   UNL     1       3.564  -2.048  -1.409  0.00  0.00    +0.205 A 
ATOM      4  C   UNL     1       4.034  -1.148  -2.360  0.00  0.00    +0.157 A 
ATOM      5  N   UNL     1       3.880   0.158  -2.146  0.00  0.00    -0.218 NA
ATOM      6  C   UNL     1       3.293   0.599  -1.052  0.00  0.00    +0.225 A 
ATOM      7  N   UNL     1       2.831  -0.221  -0.131  0.00  0.00    -0.218 NA
ATOM      8  H   UNL     1       2.557  -3.356   0.603  0.00  0.00    +0.148 HD
ENDROOT
BRANCH   4   9
ATOM      9  N   UNL     1       4.653  -1.603  -3.514  0.00  0.00    -0.310 N 
ATOM     10  C   UNL     1       3.867  -1.889  -4.722  0.00  0.00    +0.125 C 
ATOM     11  C   UNL     1       4.446  -1.077  -5.888  0.00  0.00    +0.124 C 
ATOM     12  N   UNL     1       5.901  -1.282  -5.925  0.00  0.00    -0.325 N 
ATOM     13  C   UNL     1       6.688  -0.997  -4.716  0.00  0.00    +0.124 C 
ATOM     14  C   UNL     1       6.109  -1.802  -3.553  0.00  0.00    +0.125 C 
BRANCH  12  15
ATOM     15  C   UNL     1       6.526  -1.741  -7.088  0.00  0.00    +0.065 A 
ATOM     16  C   UNL     1       6.992  -0.836  -8.031  0.00  0.00    +0.026 A 
ATOM     17  C   UNL     1       7.609  -1.292  -9.180  0.00  0.00    +0.002 A 
ATOM     18  C   UNL     1       7.763  -2.650  -9.392  0.00  0.00    +0.003 A 
ATOM     19  C   UNL     1       7.300  -3.556  -8.456  0.00  0.00    +0.040 A 
ATOM     20  C   UNL     1       6.686  -3.106  -7.301  0.00  0.00    +0.144 A 
ATOM     21  F   UNL     1       6.239  -3.991  -6.384  0.00  0.00    -0.204 F 
ENDBRANCH  12  15
ENDBRANCH   4   9
BRANCH   1  23
ATOM     22  C   UNL     1       0.338  -1.590   1.606  0.00  0.00    +0.027 C 
ATOM     23  C   UNL     1       1.816  -1.851   1.904  0.00  0.00    +0.066 C 
ATOM     24  C   UNL     1       1.935  -2.854   3.053  0.00  0.00    +0.027 C 
ENDBRANCH   1  23
BRANCH   3  25
ATOM     25  N   UNL     1       3.715  -3.507  -1.605  0.00  0.00    +0.063 N 
ATOM     26  O   UNL     1       2.845  -4.135  -2.164  0.00  0.00    -0.126 OA
ATOM     27  O   UNL     1       4.707  -4.072  -1.207  0.00  0.00    -0.126 OA
ENDBRANCH   3  25
TORSDOF 4
