REMARK  Name = ZINC09589460
REMARK  11 active torsions:
REMARK  status: ('A' for Active; 'I' for Inactive)
REMARK    1  A    between atoms: C_1  and  C_2
REMARK    2  A    between atoms: C_6  and  N_8
REMARK    3  A    between atoms: C_9  and  C_36
REMARK    4  A    between atoms: C_12  and  S_13
REMARK    5  A    between atoms: S_13  and  C_14
REMARK    6  A    between atoms: C_14  and  C_15
REMARK    7  A    between atoms: N_17  and  C_18
REMARK    8  A    between atoms: N_17  and  C_19
REMARK    9  A    between atoms: C_20  and  N_35
REMARK   10  A    between atoms: N_21  and  C_28
REMARK   11  A    between atoms: C_28  and  C_29
REMARK                            x       y       z     vdW  Elec       q    Type
REMARK                         _______ _______ _______ _____ _____    ______ ____
ROOT
ATOM      1  C   UNL     1       3.412   3.216   0.172  0.00  0.00    +0.230 C 
ATOM      2  O   UNL     1       3.455   2.006   0.249  0.00  0.00    -0.274 OA
ATOM      3  N   UNL     1       2.228   3.840  -0.001  0.00  0.00    -0.267 N 
ATOM      4  C   UNL     1       2.186   5.290  -0.200  0.00  0.00    +0.138 C 
ENDROOT
BRANCH   3   5
ATOM      5  C   UNL     1       1.030   3.094   0.010  0.00  0.00    +0.139 A 
ATOM      6  C   UNL     1       0.261   2.984  -1.130  0.00  0.00    +0.128 A 
ATOM      7  N   UNL     1      -0.901   2.250  -1.088  0.00  0.00    -0.276 N 
ATOM      8  C   UNL     1      -1.282   1.642   0.050  0.00  0.00    +0.331 A 
ATOM      9  O   UNL     1      -2.311   0.994   0.065  0.00  0.00    -0.246 OA
ATOM     10  N   UNL     1      -0.548   1.742   1.172  0.00  0.00    -0.273 N 
ATOM     11  H   UNL     1      -0.857   1.287   2.007  0.00  0.00    +0.173 HD
ATOM     12  C   UNL     1       0.599   2.449   1.185  0.00  0.00    +0.277 A 
ATOM     13  O   UNL     1       1.259   2.530   2.207  0.00  0.00    -0.266 OA
BRANCH   6  14
ATOM     14  N   UNL     1       0.652   3.602  -2.294  0.00  0.00    -0.343 N 
ATOM     15  H   UNL     1       1.453   4.149  -2.308  0.00  0.00    +0.144 HD
ATOM     16  H   UNL     1       0.127   3.490  -3.102  0.00  0.00    +0.144 HD
ENDBRANCH   6  14
BRANCH   7  17
ATOM     17  C   UNL     1      -1.728   2.125  -2.292  0.00  0.00    +0.163 C 
BRANCH  17  18
ATOM     18  C   UNL     1      -1.289   0.918  -3.079  0.00  0.00    -0.028 A 
ATOM     19  C   UNL     1      -0.312   1.042  -4.049  0.00  0.00    +0.005 A 
ATOM     20  C   UNL     1       0.094  -0.066  -4.768  0.00  0.00    +0.000 A 
ATOM     21  C   UNL     1      -0.484  -1.298  -4.524  0.00  0.00    +0.000 A 
ATOM     22  C   UNL     1      -1.465  -1.422  -3.557  0.00  0.00    +0.000 A 
ATOM     23  C   UNL     1      -1.867  -0.314  -2.835  0.00  0.00    +0.005 A 
ENDBRANCH  17  18
ENDBRANCH   7  17
ENDBRANCH   3   5
BRANCH   1  24
ATOM     24  C   UNL     1       4.681   4.023   0.272  0.00  0.00    +0.173 C 
BRANCH  24  25
ATOM     25  S   UNL     1       6.089   2.909   0.499  0.00  0.00    -0.076 S 
BRANCH  25  30
ATOM     26  N   UNL     1       8.729   3.809   0.751  0.00  0.00    -0.274 N 
ATOM     27  C   UNL     1       9.359   5.025   0.753  0.00  0.00    +0.135 A 
ATOM     28  N   UNL     1       8.442   5.937   0.593  0.00  0.00    -0.133 NA
ATOM     29  N   UNL     1       7.285   5.388   0.486  0.00  0.00    -0.122 NA
ATOM     30  C   UNL     1       7.399   4.083   0.582  0.00  0.00    +0.197 A 
ATOM     31  C   UNL     1      10.839   5.264   0.910  0.00  0.00    +0.088 C 
BRANCH  26  37
ATOM     32  C   UNL     1       9.313  -0.327   3.348  0.00  0.00    +0.044 C 
ATOM     33  C   UNL     1       9.622   0.522   2.142  0.00  0.00    -0.048 A 
ATOM     34  C   UNL     1      10.494   0.056   1.174  0.00  0.00    +0.003 A 
ATOM     35  C   UNL     1      10.780   0.832   0.066  0.00  0.00    +0.002 A 
ATOM     36  C   UNL     1      10.197   2.076  -0.076  0.00  0.00    +0.026 A 
ATOM     37  C   UNL     1       9.322   2.546   0.893  0.00  0.00    +0.050 A 
ATOM     38  C   UNL     1       9.040   1.766   2.007  0.00  0.00    +0.029 A 
ENDBRANCH  26  37
ENDBRANCH  25  30
ENDBRANCH  24  25
ENDBRANCH   1  24
TORSDOF 8
