REMARK  Name = ZINC14702924
REMARK  16 active torsions:
REMARK  status: ('A' for Active; 'I' for Inactive)
REMARK    1  A    between atoms: C_1  and  O_2
REMARK    2  A    between atoms: O_2  and  C_3
REMARK    3  A    between atoms: C_5  and  C_13
REMARK    4  A    between atoms: C_8  and  O_9
REMARK    5  A    between atoms: O_9  and  C_10
REMARK    6  A    between atoms: C_10  and  C_11
REMARK    7  A    between atoms: C_13  and  O_15
REMARK    8  A    between atoms: O_15  and  C_16
REMARK    9  A    between atoms: C_16  and  C_17
REMARK   10  A    between atoms: C_18  and  C_27
REMARK   11  A    between atoms: C_19  and  N_26
REMARK   12  A    between atoms: C_21  and  C_22
REMARK   13  A    between atoms: C_22  and  O_24
REMARK   14  A    between atoms: O_24  and  C_25
REMARK   15  A    between atoms: C_27  and  O_29
REMARK   16  A    between atoms: O_29  and  C_30
REMARK                            x       y       z     vdW  Elec       q    Type
REMARK                         _______ _______ _______ _____ _____    ______ ____
ROOT
ATOM      1  C   UNL     1       1.210   3.572  -2.511  0.00  0.00    +0.270 C 
ENDROOT
BRANCH   1   2
ATOM      2  C   UNL     1       1.249   4.264  -1.173  0.00  0.00    +0.027 A 
ATOM      3  C   UNL     1       1.232   3.541   0.009  0.00  0.00    +0.094 A 
ATOM      4  C   UNL     1       1.266   4.260   1.212  0.00  0.00    +0.078 A 
ATOM      5  S   UNL     1       1.330   5.907   0.677  0.00  0.00    -0.066 S 
ATOM      6  C   UNL     1       1.302   5.630  -1.083  0.00  0.00    +0.105 A 
BRANCH   4   7
ATOM      7  N   UNL     1       1.254   3.776   2.499  0.00  0.00    -0.352 N 
ATOM      8  H   UNL     1       1.217   2.820   2.658  0.00  0.00    +0.143 HD
ATOM      9  H   UNL     1       1.281   4.392   3.248  0.00  0.00    +0.143 HD
ENDBRANCH   4   7
BRANCH   6  10
ATOM     10  C   UNL     1       1.329   6.614  -2.163  0.00  0.00    +0.346 C 
ATOM     11  O   UNL     1       1.304   6.247  -3.322  0.00  0.00    -0.244 OA
BRANCH  10  12
ATOM     12  O   UNL     1       1.383   7.931  -1.873  0.00  0.00    -0.464 OA
ATOM     13  C   UNL     1       1.407   8.838  -2.978  0.00  0.00    +0.280 C 
ENDBRANCH  10  12
ENDBRANCH   6  10
BRANCH   3  14
ATOM     14  C   UNL     1       1.175   2.076   0.002  0.00  0.00    +0.342 C 
ATOM     15  O   UNL     1       2.204   1.428  -0.011  0.00  0.00    -0.245 OA
BRANCH  14  16
ATOM     16  O   UNL     1      -0.018   1.448   0.010  0.00  0.00    -0.464 OA
ATOM     17  C   UNL     1       0.002  -0.004   0.002  0.00  0.00    +0.280 C 
ENDBRANCH  14  16
ENDBRANCH   3  14
ENDBRANCH   1   2
BRANCH   1  18
ATOM     18  O   UNL     1      -0.171   3.402  -2.928  0.00  0.00    -0.456 OA
BRANCH  18  19
ATOM     19  C   UNL     1      -0.381   2.795  -4.112  0.00  0.00    +0.340 C 
ATOM     20  O   UNL     1       0.562   2.418  -4.779  0.00  0.00    -0.245 OA
BRANCH  19  23
ATOM     21  C   UNL     1      -3.269   1.766  -6.281  0.00  0.00    +0.162 A 
ATOM     22  C   UNL     1      -1.978   1.958  -5.829  0.00  0.00    +0.064 A 
ATOM     23  C   UNL     1      -1.758   2.588  -4.600  0.00  0.00    +0.063 A 
ATOM     24  C   UNL     1      -2.845   3.015  -3.833  0.00  0.00    +0.019 A 
ATOM     25  C   UNL     1      -4.129   2.826  -4.293  0.00  0.00    +0.050 A 
ATOM     26  C   UNL     1      -4.348   2.201  -5.513  0.00  0.00    +0.162 A 
BRANCH  21  28
ATOM     27  C   UNL     1      -2.335   0.736  -8.210  0.00  0.00    +0.277 C 
ATOM     28  O   UNL     1      -3.487   1.155  -7.476  0.00  0.00    -0.491 OA
ENDBRANCH  21  28
BRANCH  26  29
ATOM     29  O   UNL     1      -5.617   2.011  -5.959  0.00  0.00    -0.484 OA
BRANCH  29  30
ATOM     30  C   UNL     1      -6.676   2.481  -5.122  0.00  0.00    +0.256 C 
BRANCH  30  31
ATOM     31  C   UNL     1      -8.001   2.185  -5.775  0.00  0.00    +0.006 C 
ATOM     32  C   UNL     1      -8.982   1.680  -5.068  0.00  0.00    +0.007 C 
ENDBRANCH  30  31
ENDBRANCH  29  30
ENDBRANCH  26  29
ENDBRANCH  19  23
ENDBRANCH  18  19
ENDBRANCH   1  18
TORSDOF 13
