REMARK  Name = ZINC34969835
REMARK  10 active torsions:
REMARK  status: ('A' for Active; 'I' for Inactive)
REMARK    1  A    between atoms: C_1  and  C_2
REMARK    2  A    between atoms: C_2  and  C_3
REMARK    3  A    between atoms: C_3  and  C_5
REMARK    4  A    between atoms: C_3  and  C_6
REMARK    5  A    between atoms: C_6  and  C_8
REMARK    6  A    between atoms: C_6  and  N_22
REMARK    7  A    between atoms: N_10  and  C_11
REMARK    8  A    between atoms: N_22  and  S_23
REMARK    9  A    between atoms: S_23  and  C_26
REMARK   10  A    between atoms: C_30  and  N_32
REMARK                            x       y       z     vdW  Elec       q    Type
REMARK                         _______ _______ _______ _____ _____    ______ ____
ROOT
ATOM      1  C   UNL     1      -1.300  -2.192   0.124  0.00  0.00    +0.165 C 
ENDROOT
BRANCH   1   2
ATOM      2  C   UNL     1      -0.768  -2.627   1.466  0.00  0.00    +0.232 C 
ATOM      3  O   UNL     1       0.212  -3.338   1.528  0.00  0.00    -0.274 OA
ATOM      4  N   UNL     1      -1.383  -2.227   2.596  0.00  0.00    -0.307 N 
ATOM      5  H   UNL     1      -2.167  -1.658   2.547  0.00  0.00    +0.149 HD
BRANCH   4   6
ATOM      6  C   UNL     1      -0.867  -2.650   3.901  0.00  0.00    +0.103 C 
ATOM      7  C   UNL     1      -2.003  -2.635   4.921  0.00  0.00    +0.027 C 
ATOM      8  C   UNL     1      -1.405  -2.866   6.314  0.00  0.00    +0.007 C 
ATOM      9  C   UNL     1      -0.606  -1.626   6.707  0.00  0.00    +0.035 C 
ATOM     10  C   UNL     1       0.360  -1.250   5.613  0.00  0.00    -0.042 A 
ATOM     11  C   UNL     1       0.237  -1.716   4.324  0.00  0.00    -0.024 A 
ATOM     12  C   UNL     1       1.158  -1.325   3.362  0.00  0.00    +0.006 A 
ATOM     13  C   UNL     1       2.195  -0.476   3.688  0.00  0.00    +0.000 A 
ATOM     14  C   UNL     1       2.320  -0.010   4.983  0.00  0.00    +0.000 A 
ATOM     15  C   UNL     1       1.406  -0.397   5.940  0.00  0.00    +0.004 A 
ENDBRANCH   4   6
ENDBRANCH   1   2
BRANCH   1  16
ATOM     16  C   UNL     1      -1.274  -0.665   0.037  0.00  0.00    +0.013 C 
ATOM     17  C   UNL     1      -1.942  -0.217  -1.264  0.00  0.00    +0.009 C 
BRANCH  16  19
ATOM     18  C   UNL     1       0.198   1.353   0.099  0.00  0.00    +0.004 C 
ATOM     19  C   UNL     1       0.175  -0.176   0.060  0.00  0.00    +0.002 C 
ENDBRANCH  16  19
ENDBRANCH   1  16
BRANCH   1  20
ATOM     20  N   UNL     1      -0.463  -2.756  -0.938  0.00  0.00    -0.178 NA
ATOM     21  H   UNL     1       0.353  -2.304  -1.204  0.00  0.00    +0.149 HD
BRANCH  20  22
ATOM     22  S   UNL     1      -0.911  -4.165  -1.685  0.00  0.00    +0.059 S 
ATOM     23  O   UNL     1       0.078  -4.434  -2.669  0.00  0.00    -0.153 OA
ATOM     24  O   UNL     1      -1.230  -5.088  -0.653  0.00  0.00    -0.153 OA
BRANCH  22  25
ATOM     25  C   UNL     1      -2.410  -3.841  -2.552  0.00  0.00    +0.108 A 
ATOM     26  C   UNL     1      -3.624  -3.958  -1.901  0.00  0.00    +0.030 A 
ATOM     27  C   UNL     1      -4.800  -3.703  -2.580  0.00  0.00    +0.024 A 
ATOM     28  C   UNL     1      -4.763  -3.332  -3.913  0.00  0.00    +0.071 A 
ATOM     29  C   UNL     1      -3.548  -3.215  -4.564  0.00  0.00    +0.146 A 
ATOM     30  C   UNL     1      -2.372  -3.464  -3.881  0.00  0.00    +0.062 A 
ATOM     31 CL   UNL     1      -6.240  -3.013  -4.767  0.00  0.00    -0.081 Cl
BRANCH  29  32
ATOM     32  N   UNL     1      -3.507  -2.817  -5.989  0.00  0.00    +0.058 N 
ATOM     33  O   UNL     1      -2.445  -2.715  -6.558  0.00  0.00    -0.126 OA
ATOM     34  O   UNL     1      -4.535  -2.594  -6.584  0.00  0.00    -0.126 OA
ENDBRANCH  29  32
ENDBRANCH  22  25
ENDBRANCH  20  22
ENDBRANCH   1  20
TORSDOF 8
