REMARK  Name = ZINC19612629
REMARK  7 active torsions:
REMARK  status: ('A' for Active; 'I' for Inactive)
REMARK    1  A    between atoms: C_1  and  C_2
REMARK    2  A    between atoms: C_2  and  C_4
REMARK    3  A    between atoms: C_2  and  O_16
REMARK    4  A    between atoms: N_6  and  C_7
REMARK    5  A    between atoms: C_10  and  N_13
REMARK    6  A    between atoms: O_16  and  C_17
REMARK    7  A    between atoms: C_17  and  C_19
REMARK                            x       y       z     vdW  Elec       q    Type
REMARK                         _______ _______ _______ _____ _____    ______ ____
ROOT
ATOM      1  C   UNL     1      -5.440   8.032  -1.871  0.00  0.00    +0.062 C 
ATOM      2  C   UNL     1      -4.798   8.046  -0.482  0.00  0.00    +0.259 C 
ENDROOT
BRANCH   2   3
ATOM      3  C   UNL     1      -4.530   9.470  -0.067  0.00  0.00    +0.258 C 
ATOM      4  O   UNL     1      -3.389   9.853   0.086  0.00  0.00    -0.271 OA
ATOM      5  N   UNL     1      -5.558  10.317   0.136  0.00  0.00    -0.282 N 
ATOM      6  H   UNL     1      -6.588   9.993  -0.075  0.00  0.00    +0.155 HD
BRANCH   5   7
ATOM      7  C   UNL     1      -5.316  11.609   0.615  0.00  0.00    +0.034 A 
ATOM      8  C   UNL     1      -6.223  12.215   1.474  0.00  0.00    +0.025 A 
ATOM      9  C   UNL     1      -5.979  13.489   1.948  0.00  0.00    +0.034 A 
ATOM     10  C   UNL     1      -4.837  14.165   1.561  0.00  0.00    +0.126 A 
ATOM     11  C   UNL     1      -3.933  13.567   0.702  0.00  0.00    +0.034 A 
ATOM     12  C   UNL     1      -4.170  12.291   0.228  0.00  0.00    +0.025 A 
BRANCH  10  13
ATOM     13  N   UNL     1      -4.580  15.532   2.067  0.00  0.00    +0.056 N 
ATOM     14  O   UNL     1      -3.574  16.129   1.727  0.00  0.00    -0.126 OA
ATOM     15  O   UNL     1      -5.375  16.060   2.824  0.00  0.00    -0.126 OA
ENDBRANCH  10  13
ENDBRANCH   5   7
ENDBRANCH   2   3
BRANCH   2  16
ATOM     16  O   UNL     1      -3.567   7.321  -0.520  0.00  0.00    -0.449 OA
BRANCH  16  17
ATOM     17  C   UNL     1      -3.625   6.000  -0.255  0.00  0.00    +0.339 C 
ATOM     18  O   UNL     1      -4.694   5.478   0.002  0.00  0.00    -0.245 OA
BRANCH  17  19
ATOM     19  C   UNL     1      -2.442   5.219  -0.275  0.00  0.00    +0.074 C 
ATOM     20  C   UNL     1      -2.500   3.892  -0.008  0.00  0.00    +0.025 C 
ATOM     21  C   UNL     1      -1.240   3.135   0.018  0.00  0.00    +0.017 A 
ATOM     22  C   UNL     1      -1.231   1.739   0.000  0.00  0.00    +0.011 A 
ATOM     23  C   UNL     1      -0.026   1.068  -0.006  0.00  0.00    +0.001 A 
ATOM     24  C   UNL     1       1.168   1.772  -0.003  0.00  0.00    +0.004 A 
ATOM     25  C   UNL     1       1.171   3.154   0.022  0.00  0.00    +0.046 A 
ATOM     26  C   UNL     1      -0.028   3.845   0.040  0.00  0.00    +0.128 A 
ATOM     27  O   UNL     1      -0.057   5.199   0.091  0.00  0.00    -0.487 OA
ATOM     28  C   UNL     1      -1.118   5.865  -0.592  0.00  0.00    +0.271 C 
ENDBRANCH  17  19
ENDBRANCH  16  17
ENDBRANCH   2  16
TORSDOF 6
