REMARK  Name = ZINC14078942
REMARK  7 active torsions:
REMARK  status: ('A' for Active; 'I' for Inactive)
REMARK    1  A    between atoms: C_4  and  O_34
REMARK    2  A    between atoms: C_5  and  N_7
REMARK    3  A    between atoms: C_8  and  C_10
REMARK    4  A    between atoms: N_13  and  C_16
REMARK    5  A    between atoms: C_16  and  C_17
REMARK    6  A    between atoms: C_22  and  C_25
REMARK    7  A    between atoms: C_29  and  N_31
REMARK                            x       y       z     vdW  Elec       q    Type
REMARK                         _______ _______ _______ _____ _____    ______ ____
ROOT
ATOM      1  C   UNL     1       0.115  -4.277   0.192  0.00  0.00    +0.072 C 
ATOM      2  C   UNL     1       0.904  -4.688   1.439  0.00  0.00    -0.006 C 
ATOM      3  C   UNL     1       0.865  -6.211   1.582  0.00  0.00    -0.077 C 
ATOM      4  N   UNL     1      -0.527  -6.658   1.712  0.00  0.00    +0.385 N 
ATOM      5  C   UNL     1      -1.272  -6.332   0.490  0.00  0.00    -0.077 C 
ATOM      6  C   UNL     1      -1.315  -4.813   0.305  0.00  0.00    -0.006 C 
ATOM      7  H   UNL     1      -0.956  -6.195   2.500  0.00  0.00    -0.081 HD
ENDROOT
BRANCH   1   9
ATOM      8  N   UNL     1       1.234  -2.082  -0.022  0.00  0.00    -0.282 N 
ATOM      9  C   UNL     1       0.083  -2.774   0.087  0.00  0.00    +0.220 C 
ATOM     10  O   UNL     1      -0.978  -2.188   0.102  0.00  0.00    -0.275 OA
ATOM     11  H   UNL     1       2.079  -2.554  -0.099  0.00  0.00    +0.155 HD
BRANCH   8  16
ATOM     12  C   UNL     1       0.134   1.378  -0.616  0.00  0.00    +0.002 A 
ATOM     13  C   UNL     1       1.167   2.089  -0.032  0.00  0.00    +0.004 A 
ATOM     14  C   UNL     1       2.224   1.421   0.557  0.00  0.00    +0.047 A 
ATOM     15  C   UNL     1       2.252   0.035   0.563  0.00  0.00    +0.138 A 
ATOM     16  C   UNL     1       1.212  -0.681  -0.025  0.00  0.00    +0.075 A 
ATOM     17  C   UNL     1       0.154  -0.004  -0.614  0.00  0.00    +0.027 A 
BRANCH  15  18
ATOM     18  O   UNL     1       3.292  -0.623   1.141  0.00  0.00    -0.505 OA
ATOM     19  H   UNL     1       3.160  -0.819   2.079  0.00  0.00    +0.292 HD
ENDBRANCH  15  18
ENDBRANCH   8  16
ENDBRANCH   1   9
BRANCH   4  20
ATOM     20  C   UNL     1      -0.555  -8.111   1.927  0.00  0.00    +0.019 C 
BRANCH  20  21
ATOM     21  C   UNL     1      -1.973  -8.554   2.183  0.00  0.00    +0.202 C 
ATOM     22  O   UNL     1      -2.871  -7.739   2.186  0.00  0.00    -0.277 OA
ATOM     23  N   UNL     1      -2.242  -9.855   2.409  0.00  0.00    -0.266 N 
ATOM     24  C   UNL     1      -3.549 -10.263   2.645  0.00  0.00    +0.165 A 
ATOM     25  N   UNL     1      -4.014 -11.474   2.890  0.00  0.00    -0.225 NA
ATOM     26  C   UNL     1      -5.306 -11.686   3.094  0.00  0.00    +0.080 A 
ATOM     27  C   UNL     1      -6.174 -10.630   3.051  0.00  0.00    +0.076 A 
ATOM     28  S   UNL     1      -5.045  -9.287   2.706  0.00  0.00    -0.060 S 
ATOM     29  H   UNL     1      -1.523 -10.506   2.407  0.00  0.00    +0.157 HD
BRANCH  26  30
ATOM     30  C   UNL     1      -5.806 -13.055   3.367  0.00  0.00    +0.003 A 
ATOM     31  C   UNL     1      -7.166 -13.275   3.575  0.00  0.00    +0.010 A 
ATOM     32  C   UNL     1      -7.626 -14.551   3.829  0.00  0.00    +0.003 A 
ATOM     33  C   UNL     1      -6.738 -15.612   3.876  0.00  0.00    +0.033 A 
ATOM     34  C   UNL     1      -5.387 -15.400   3.670  0.00  0.00    +0.127 A 
ATOM     35  C   UNL     1      -4.917 -14.128   3.410  0.00  0.00    +0.042 A 
BRANCH  34  36
ATOM     36  N   UNL     1      -4.444 -16.540   3.723  0.00  0.00    +0.056 N 
ATOM     37  O   UNL     1      -4.855 -17.654   3.945  0.00  0.00    -0.126 OA
ATOM     38  O   UNL     1      -3.263 -16.355   3.543  0.00  0.00    -0.126 OA
ENDBRANCH  34  36
ENDBRANCH  26  30
ENDBRANCH  20  21
ENDBRANCH   4  20
TORSDOF 7
