REMARK  Name = ZINC38743332
REMARK  11 active torsions:
REMARK  status: ('A' for Active; 'I' for Inactive)
REMARK    1  A    between atoms: C_1  and  C_2
REMARK    2  A    between atoms: C_2  and  O_3
REMARK    3  A    between atoms: O_3  and  C_4
REMARK    4  A    between atoms: C_7  and  C_13
REMARK    5  A    between atoms: C_9  and  O_10
REMARK    6  A    between atoms: O_10  and  C_11
REMARK    7  A    between atoms: C_11  and  C_12
REMARK    8  A    between atoms: C_16  and  C_23
REMARK    9  A    between atoms: C_26  and  C_29
REMARK   10  A    between atoms: C_32  and  O_35
REMARK   11  A    between atoms: O_35  and  C_36
REMARK                            x       y       z     vdW  Elec       q    Type
REMARK                         _______ _______ _______ _____ _____    ______ ____
ROOT
ATOM      1  C   UNL     1       1.107  -6.020  -1.839  0.00  0.00    +0.125 C 
ATOM      2  N   UNL     1       1.675  -6.671  -2.813  0.00  0.00    -0.173 NA
ATOM      3  N   UNL     1       1.649  -8.045  -2.911  0.00  0.00    -0.206 N 
ATOM      4  C   UNL     1       1.777  -9.188  -3.845  0.00  0.00    +0.206 C 
ATOM      5  N   UNL     1       0.766 -10.177  -3.401  0.00  0.00    -0.231 NA
ATOM      6  N   UNL     1       0.163  -9.636  -2.170  0.00  0.00    -0.224 NA
ATOM      7  C   UNL     1       1.213  -8.735  -1.656  0.00  0.00    +0.240 C 
ATOM      8  S   UNL     1       0.502  -7.307  -0.757  0.00  0.00    -0.063 S 
ATOM      9  H   UNL     1       0.067 -10.324  -4.112  0.00  0.00    +0.143 HD
ATOM     10  H   UNL     1      -0.683  -9.126  -2.377  0.00  0.00    +0.144 HD
ENDROOT
BRANCH   1  14
ATOM     11  C   UNL     1       0.777  -1.811  -1.336  0.00  0.00    +0.162 A 
ATOM     12  C   UNL     1       0.242  -2.667  -0.385  0.00  0.00    +0.050 A 
ATOM     13  C   UNL     1       0.347  -4.033  -0.545  0.00  0.00    +0.014 A 
ATOM     14  C   UNL     1       0.993  -4.556  -1.667  0.00  0.00    +0.012 A 
ATOM     15  C   UNL     1       1.531  -3.695  -2.624  0.00  0.00    +0.060 A 
ATOM     16  C   UNL     1       1.417  -2.327  -2.460  0.00  0.00    +0.163 A 
BRANCH  11  17
ATOM     17  O   UNL     1       0.671  -0.465  -1.174  0.00  0.00    -0.489 OA
BRANCH  17  19
ATOM     18  C   UNL     1      -0.019   1.526   0.010  0.00  0.00    +0.048 C 
ATOM     19  C   UNL     1       0.002  -0.004   0.002  0.00  0.00    +0.226 C 
ENDBRANCH  17  19
ENDBRANCH  11  17
BRANCH  16  20
ATOM     20  O   UNL     1       1.936  -1.485  -3.394  0.00  0.00    -0.489 OA
BRANCH  20  21
ATOM     21  C   UNL     1       2.579  -2.083  -4.521  0.00  0.00    +0.226 C 
ATOM     22  C   UNL     1       3.095  -0.986  -5.455  0.00  0.00    +0.048 C 
ENDBRANCH  20  21
ENDBRANCH  16  20
ENDBRANCH   1  14
BRANCH   4  23
ATOM     23  C   UNL     1       3.182  -9.788  -3.759  0.00  0.00    +0.190 C 
ATOM     24  C   UNL     1       3.344 -10.918  -4.759  0.00  0.00    +0.034 C 
ATOM     25  C   UNL     1       3.595 -11.996  -3.991  0.00  0.00    +0.091 C 
ATOM     26  N   UNL     1       3.601 -11.650  -2.677  0.00  0.00    -0.154 NA
ATOM     27  N   UNL     1       3.384 -10.452  -2.461  0.00  0.00    -0.176 NA
BRANCH  25  28
ATOM     28  C   UNL     1       3.831 -13.367  -4.506  0.00  0.00    +0.002 A 
ATOM     29  C   UNL     1       3.808 -13.611  -5.878  0.00  0.00    +0.013 A 
ATOM     30  C   UNL     1       4.028 -14.886  -6.355  0.00  0.00    +0.046 A 
ATOM     31  C   UNL     1       4.272 -15.927  -5.469  0.00  0.00    +0.120 A 
ATOM     32  C   UNL     1       4.296 -15.687  -4.101  0.00  0.00    +0.046 A 
ATOM     33  C   UNL     1       4.082 -14.413  -3.620  0.00  0.00    +0.013 A 
BRANCH  31  34
ATOM     34  O   UNL     1       4.487 -17.182  -5.941  0.00  0.00    -0.495 OA
ATOM     35  C   UNL     1       4.733 -18.206  -4.974  0.00  0.00    +0.277 C 
ENDBRANCH  31  34
ENDBRANCH  25  28
ENDBRANCH   4  23
TORSDOF 8
