REMARK  Name = ZINC63280916
REMARK  8 active torsions:
REMARK  status: ('A' for Active; 'I' for Inactive)
REMARK    1  A    between atoms: C_1  and  C_2
REMARK    2  A    between atoms: C_2  and  C_3
REMARK    3  A    between atoms: C_3  and  C_11
REMARK    4  A    between atoms: C_14  and  N_17
REMARK    5  A    between atoms: C_18  and  C_20
REMARK    6  A    between atoms: N_22  and  C_23
REMARK    7  A    between atoms: C_23  and  C_24
REMARK    8  A    between atoms: C_24  and  C_25
REMARK                            x       y       z     vdW  Elec       q    Type
REMARK                         _______ _______ _______ _____ _____    ______ ____
ROOT
ATOM      1  N   UNL     1      -1.553   1.491  -5.934  0.00  0.00    -0.278 N 
ATOM      2  C   UNL     1      -1.568   2.821  -6.150  0.00  0.00    +0.303 C 
ATOM      3  O   UNL     1      -1.001   3.567  -5.378  0.00  0.00    -0.265 OA
ATOM      4  H   UNL     1      -1.942   0.889  -6.588  0.00  0.00    +0.155 HD
ENDROOT
BRANCH   1   8
ATOM      5  C   UNL     1       0.158  -0.035  -2.458  0.00  0.00    -0.032 A 
ATOM      6  C   UNL     1       0.228  -0.757  -3.636  0.00  0.00    +0.006 A 
ATOM      7  C   UNL     1      -0.338  -0.254  -4.790  0.00  0.00    +0.023 A 
ATOM      8  C   UNL     1      -0.980   0.978  -4.768  0.00  0.00    +0.034 A 
ATOM      9  C   UNL     1      -1.048   1.700  -3.583  0.00  0.00    +0.023 A 
ATOM     10  C   UNL     1      -0.484   1.189  -2.431  0.00  0.00    +0.006 A 
BRANCH   5  11
ATOM     11  C   UNL     1       0.778  -0.588  -1.200  0.00  0.00    +0.072 C 
ATOM     12  C   UNL     1       1.307  -2.001  -1.466  0.00  0.00    +0.030 C 
ATOM     13  C   UNL     1       2.029  -2.497  -0.209  0.00  0.00    +0.097 C 
ATOM     14  C   UNL     1       3.103  -1.510   0.166  0.00  0.00    +0.219 C 
ATOM     15  O   UNL     1       4.095  -1.901   0.742  0.00  0.00    -0.275 OA
ATOM     16  N   UNL     1       2.984  -0.206  -0.127  0.00  0.00    -0.256 N 
ATOM     17  C   UNL     1       1.920   0.295  -0.772  0.00  0.00    +0.230 C 
ATOM     18  O   UNL     1       1.877   1.482  -1.015  0.00  0.00    -0.274 OA
ATOM     19  H   UNL     1       3.695   0.398   0.139  0.00  0.00    +0.157 HD
BRANCH  11  21
ATOM     20  C   UNL     1      -1.454  -1.499  -0.544  0.00  0.00    +0.005 C 
ATOM     21  C   UNL     1      -0.275  -0.636  -0.091  0.00  0.00    +0.017 C 
ENDBRANCH  11  21
ENDBRANCH   5  11
ENDBRANCH   1   8
BRANCH   2  22
ATOM     22  C   UNL     1      -2.281   3.377  -7.339  0.00  0.00    +0.299 C 
ATOM     23  O   UNL     1      -2.847   2.631  -8.110  0.00  0.00    -0.265 OA
ATOM     24  N   UNL     1      -2.295   4.707  -7.555  0.00  0.00    -0.307 N 
ATOM     25  H   UNL     1      -1.842   5.303  -6.938  0.00  0.00    +0.149 HD
BRANCH  24  26
ATOM     26  C   UNL     1      -2.994   5.253  -8.721  0.00  0.00    +0.109 C 
BRANCH  26  27
ATOM     27  C   UNL     1      -2.858   6.776  -8.731  0.00  0.00    +0.052 C 
BRANCH  27  28
ATOM     28  C   UNL     1      -3.577   7.337  -9.930  0.00  0.00    -0.040 C 
ATOM     29  C   UNL     1      -4.841   7.817  -9.969  0.00  0.00    +0.000 A 
ATOM     30  C   UNL     1      -5.885   7.953  -8.946  0.00  0.00    +0.030 A 
ATOM     31  C   UNL     1      -7.081   8.482  -9.295  0.00  0.00    +0.042 A 
ATOM     32  C   UNL     1      -7.347   8.902 -10.607  0.00  0.00    +0.022 A 
ATOM     33  C   UNL     1      -6.438   8.808 -11.601  0.00  0.00    +0.027 A 
ATOM     34  C   UNL     1      -5.147   8.267 -11.346  0.00  0.00    +0.043 A 
ATOM     35  N   UNL     1      -4.113   8.074 -12.127  0.00  0.00    -0.380 N 
ATOM     36  C   UNL     1      -3.030   7.484 -11.332  0.00  0.00    +0.144 C 
ATOM     37 CL   UNL     1      -8.318   8.646  -8.088  0.00  0.00    -0.084 Cl
ATOM     38  H   UNL     1      -4.069   8.289 -13.072  0.00  0.00    +0.160 HD
ENDBRANCH  27  28
ENDBRANCH  26  27
ENDBRANCH  24  26
ENDBRANCH   2  22
TORSDOF 7
