REMARK  Name = ZINC21876409
REMARK  9 active torsions:
REMARK  status: ('A' for Active; 'I' for Inactive)
REMARK    1  A    between atoms: C_1  and  C_2
REMARK    2  A    between atoms: C_4  and  O_9
REMARK    3  A    between atoms: O_9  and  C_10
REMARK    4  A    between atoms: C_10  and  C_11
REMARK    5  A    between atoms: C_14  and  C_17
REMARK    6  A    between atoms: N_19  and  N_20
REMARK    7  A    between atoms: C_21  and  C_23
REMARK    8  A    between atoms: C_23  and  C_24
REMARK    9  A    between atoms: C_29  and  N_30
REMARK                            x       y       z     vdW  Elec       q    Type
REMARK                         _______ _______ _______ _____ _____    ______ ____
ROOT
ATOM      1  C   UNL     1       4.194  -1.985  -0.498  0.00  0.00    +0.260 C 
ATOM      2  O   UNL     1       4.422  -3.156  -0.266  0.00  0.00    -0.269 OA
ATOM      3  N   UNL     1       5.203  -1.091  -0.504  0.00  0.00    -0.230 N 
ATOM      4  H   UNL     1       4.997  -0.031  -0.714  0.00  0.00    +0.173 HD
ENDROOT
BRANCH   1   8
ATOM      5  C   UNL     1       0.221  -0.710  -1.292  0.00  0.00    -0.010 A 
ATOM      6  C   UNL     1       1.254   0.211  -1.298  0.00  0.00    +0.008 A 
ATOM      7  C   UNL     1       2.547  -0.197  -1.042  0.00  0.00    +0.013 A 
ATOM      8  C   UNL     1       2.812  -1.541  -0.775  0.00  0.00    +0.038 A 
ATOM      9  C   UNL     1       1.765  -2.465  -0.770  0.00  0.00    +0.013 A 
ATOM     10  C   UNL     1       0.477  -2.044  -1.029  0.00  0.00    +0.008 A 
BRANCH   5  11
ATOM     11  C   UNL     1      -1.188  -0.259  -1.579  0.00  0.00    +0.264 C 
BRANCH  11  12
ATOM     12  O   UNL     1      -1.830   0.105  -0.355  0.00  0.00    -0.487 OA
BRANCH  12  16
ATOM     13  C   UNL     1      -5.850   1.750   1.872  0.00  0.00    +0.045 C 
ATOM     14  C   UNL     1      -5.106   1.348   0.624  0.00  0.00    -0.029 A 
ATOM     15  C   UNL     1      -3.800   0.908   0.710  0.00  0.00    +0.050 A 
ATOM     16  C   UNL     1      -3.116   0.538  -0.438  0.00  0.00    +0.121 A 
ATOM     17  C   UNL     1      -3.744   0.617  -1.673  0.00  0.00    +0.047 A 
ATOM     18  C   UNL     1      -5.052   1.052  -1.755  0.00  0.00    +0.024 A 
ATOM     19  C   UNL     1      -5.733   1.421  -0.608  0.00  0.00    +0.044 A 
ATOM     20 CL   UNL     1      -7.375   1.973  -0.714  0.00  0.00    -0.083 Cl
ENDBRANCH  12  16
ENDBRANCH  11  12
ENDBRANCH   5  11
ENDBRANCH   1   8
BRANCH   3  21
ATOM     21  N   UNL     1       6.513  -1.511  -0.241  0.00  0.00    -0.234 N 
ATOM     22  C   UNL     1       7.522  -0.617  -0.247  0.00  0.00    +0.233 C 
ATOM     23  O   UNL     1       7.295   0.551  -0.478  0.00  0.00    -0.274 OA
ATOM     24  H   UNL     1       6.719  -2.571  -0.031  0.00  0.00    +0.173 HD
BRANCH  22  25
ATOM     25  C   UNL     1       8.931  -1.069   0.035  0.00  0.00    +0.134 C 
BRANCH  25  26
ATOM     26  C   UNL     1       9.861   0.114  -0.031  0.00  0.00    -0.008 A 
ATOM     27  C   UNL     1      10.511   0.418  -1.213  0.00  0.00    +0.006 A 
ATOM     28  C   UNL     1      11.360   1.507  -1.275  0.00  0.00    +0.000 A 
ATOM     29  C   UNL     1      11.568   2.286  -0.151  0.00  0.00    +0.002 A 
ATOM     30  C   UNL     1      10.923   1.979   1.032  0.00  0.00    +0.033 A 
ATOM     31  C   UNL     1      10.070   0.893   1.092  0.00  0.00    +0.130 A 
BRANCH  31  32
ATOM     32  N   UNL     1       9.379   0.564   2.359  0.00  0.00    +0.057 N 
ATOM     33  O   UNL     1       8.234   0.150   2.339  0.00  0.00    -0.126 OA
ATOM     34  O   UNL     1       9.957   0.707   3.422  0.00  0.00    -0.126 OA
ENDBRANCH  31  32
ENDBRANCH  25  26
ENDBRANCH  22  25
ENDBRANCH   3  21
TORSDOF 8
