REMARK  Name = ZINC04195790
REMARK  11 active torsions:
REMARK  status: ('A' for Active; 'I' for Inactive)
REMARK    1  A    between atoms: C_1  and  C_2
REMARK    2  A    between atoms: C_4  and  S_27
REMARK    3  A    between atoms: C_7  and  O_8
REMARK    4  A    between atoms: O_8  and  C_9
REMARK    5  A    between atoms: C_9  and  C_10
REMARK    6  A    between atoms: C_17  and  C_18
REMARK    7  A    between atoms: C_17  and  N_65
REMARK    8  A    between atoms: S_27  and  N_30
REMARK    9  A    between atoms: N_30  and  C_31
REMARK   10  A    between atoms: C_31  and  C_32
REMARK   11  A    between atoms: C_31  and  C_33
REMARK                            x       y       z     vdW  Elec       q    Type
REMARK                         _______ _______ _______ _____ _____    ______ ____
ROOT
ATOM      1  C   UNL     1       8.988  -3.472  -0.274  0.00  0.00    +0.253 C 
ATOM      2  O   UNL     1      10.139  -3.259   0.042  0.00  0.00    -0.272 OA
ATOM      3  N   UNL     1       8.048  -2.527  -0.071  0.00  0.00    -0.302 N 
ATOM      4  C   UNL     1       8.397  -1.231   0.530  0.00  0.00    +0.089 C 
ATOM      5  C   UNL     1       7.440  -0.962   1.696  0.00  0.00    -0.059 C 
ATOM      6  C   UNL     1       5.757  -2.435   0.758  0.00  0.00    -0.059 C 
ATOM      7  C   UNL     1       6.646  -2.765  -0.446  0.00  0.00    +0.089 C 
ATOM      8  N   UNL     1       6.050  -1.054   1.200  0.00  0.00    +0.384 N 
ATOM      9  H   UNL     1       5.938  -0.419   0.401  0.00  0.00    -0.081 HD
ENDROOT
BRANCH   1  10
ATOM     10  C   UNL     1       8.608  -4.793  -0.891  0.00  0.00    +0.324 C 
BRANCH  10  11
ATOM     11  O   UNL     1       9.769  -5.619  -1.001  0.00  0.00    -0.483 OA
BRANCH  11  18
ATOM     12  C   UNL     1      12.053  -7.263  -1.238  0.00  0.00    +0.047 C 
ATOM     13  C   UNL     1      10.684  -7.706  -1.684  0.00  0.00    -0.007 A 
ATOM     14  C   UNL     1      10.507  -8.963  -2.229  0.00  0.00    +0.035 A 
ATOM     15  C   UNL     1       9.251  -9.367  -2.644  0.00  0.00    +0.106 A 
ATOM     16  C   UNL     1       8.169  -8.518  -2.509  0.00  0.00    +0.032 A 
ATOM     17  C   UNL     1       8.339  -7.262  -1.959  0.00  0.00    +0.048 A 
ATOM     18  C   UNL     1       9.598  -6.853  -1.542  0.00  0.00    +0.124 A 
BRANCH  15  19
ATOM     19  S   UNL     1       9.031 -10.968  -3.346  0.00  0.00    +0.059 S 
ATOM     20  O   UNL     1      10.096 -11.774  -2.862  0.00  0.00    -0.153 OA
ATOM     21  O   UNL     1       7.666 -11.312  -3.152  0.00  0.00    -0.153 OA
BRANCH  19  22
ATOM     22  N   UNL     1       9.254 -10.821  -4.981  0.00  0.00    -0.187 NA
ATOM     23  H   UNL     1       8.515 -10.984  -5.588  0.00  0.00    +0.148 HD
BRANCH  22  24
ATOM     24  C   UNL     1      10.567 -10.445  -5.510  0.00  0.00    +0.070 C 
ATOM     25  C   UNL     1      11.346 -11.707  -5.886  0.00  0.00    +0.025 C 
ATOM     26  C   UNL     1      10.385  -9.569  -6.751  0.00  0.00    +0.025 C 
ENDBRANCH  22  24
ENDBRANCH  19  22
ENDBRANCH  15  19
ENDBRANCH  11  18
ENDBRANCH  10  11
ENDBRANCH   1  10
BRANCH   8  27
ATOM     27  C   UNL     1       5.107  -0.655   2.265  0.00  0.00    -0.043 C 
BRANCH  27  28
ATOM     28  C   UNL     1       3.725  -0.548   1.674  0.00  0.00    -0.060 A 
ATOM     29  C   UNL     1       2.885  -1.646   1.677  0.00  0.00    +0.005 A 
ATOM     30  C   UNL     1       1.617  -1.553   1.135  0.00  0.00    +0.050 A 
ATOM     31  C   UNL     1       1.183  -0.356   0.589  0.00  0.00    +0.166 A 
ATOM     32  C   UNL     1       2.028   0.751   0.586  0.00  0.00    +0.166 A 
ATOM     33  C   UNL     1       3.298   0.650   1.131  0.00  0.00    +0.051 A 
ATOM     34  O   UNL     1       1.376   1.797  -0.001  0.00  0.00    -0.453 OA
ATOM     35  C   UNL     1      -0.018   1.436   0.010  0.00  0.00    +0.466 C 
ATOM     36  O   UNL     1       0.002  -0.004   0.002  0.00  0.00    -0.453 OA
ENDBRANCH  27  28
ENDBRANCH   8  27
TORSDOF 8
