REMARK  Name = ZINC15938779
REMARK  4 active torsions:
REMARK  status: ('A' for Active; 'I' for Inactive)
REMARK    1  A    between atoms: N_11  and  N_12
REMARK    2  A    between atoms: C_13  and  C_15
REMARK    3  A    between atoms: C_15  and  C_16
REMARK    4  A    between atoms: C_19  and  N_22
REMARK                            x       y       z     vdW  Elec       q    Type
REMARK                         _______ _______ _______ _____ _____    ______ ____
ROOT
ATOM      1  N   UNL     1       1.141   5.411   1.686  0.00  0.00    -0.206 N 
ATOM      2  C   UNL     1       1.157   4.087   1.433  0.00  0.00    +0.237 C 
ATOM      3  O   UNL     1       1.176   3.295   2.351  0.00  0.00    -0.274 OA
ATOM      4  H   UNL     1       1.126   6.045   0.953  0.00  0.00    +0.177 HD
ENDROOT
BRANCH   1  15
ATOM      5  C   UNL     1       1.155   8.606   7.237  0.00  0.00    +0.000 A 
ATOM      6  C   UNL     1       0.928   7.262   6.999  0.00  0.00    +0.001 A 
ATOM      7  C   UNL     1       0.919   6.784   5.705  0.00  0.00    +0.010 A 
ATOM      8  C   UNL     1       1.138   7.661   4.640  0.00  0.00    +0.001 A 
ATOM      9  C   UNL     1       1.362   9.015   4.882  0.00  0.00    -0.038 A 
ATOM     10  C   UNL     1       1.370   9.477   6.186  0.00  0.00    +0.004 A 
ATOM     11  C   UNL     1       1.588   9.990   3.759  0.00  0.00    +0.036 C 
ATOM     12  C   UNL     1       2.086   9.281   2.502  0.00  0.00    +0.011 C 
ATOM     13  C   UNL     1       1.114   8.159   2.128  0.00  0.00    +0.058 C 
ATOM     14  C   UNL     1       1.132   7.146   3.253  0.00  0.00    +0.067 C 
ATOM     15  N   UNL     1       1.147   5.871   3.010  0.00  0.00    -0.184 NA
ENDBRANCH   1  15
BRANCH   2  16
ATOM     16  C   UNL     1       1.151   3.592   0.010  0.00  0.00    +0.132 C 
BRANCH  16  17
ATOM     17  C   UNL     1       1.171   2.086   0.002  0.00  0.00    -0.038 A 
ATOM     18  C   UNL     1      -0.017   1.378   0.010  0.00  0.00    +0.006 A 
ATOM     19  C   UNL     1       0.002  -0.004   0.002  0.00  0.00    +0.033 A 
ATOM     20  C   UNL     1       1.208  -0.679  -0.013  0.00  0.00    +0.126 A 
ATOM     21  C   UNL     1       2.396   0.029  -0.021  0.00  0.00    +0.033 A 
ATOM     22  C   UNL     1       2.377   1.411  -0.015  0.00  0.00    +0.006 A 
BRANCH  20  23
ATOM     23  N   UNL     1       1.228  -2.159  -0.020  0.00  0.00    +0.056 N 
ATOM     24  O   UNL     1       0.182  -2.782  -0.013  0.00  0.00    -0.126 OA
ATOM     25  O   UNL     1       2.291  -2.753  -0.034  0.00  0.00    -0.126 OA
ENDBRANCH  20  23
ENDBRANCH  16  17
ENDBRANCH   2  16
TORSDOF 4
