REMARK  Name = ZINC00471324
REMARK  5 active torsions:
REMARK  status: ('A' for Active; 'I' for Inactive)
REMARK    1  A    between atoms: C_1  and  C_2
REMARK    2  A    between atoms: C_2  and  C_4
REMARK    3  A    between atoms: C_2  and  C_13
REMARK    4  A    between atoms: C_7  and  N_10
REMARK    5  A    between atoms: N_15  and  C_16
REMARK                            x       y       z     vdW  Elec       q    Type
REMARK                         _______ _______ _______ _____ _____    ______ ____
ROOT
ATOM      1  C   UNL     1       2.422  -0.124   1.382  0.00  0.00    +0.022 C 
ATOM      2  C   UNL     1       2.442   0.653   0.065  0.00  0.00    +0.102 C 
ENDROOT
BRANCH   2   3
ATOM      3  C   UNL     1       3.676   1.517   0.009  0.00  0.00    -0.036 A 
ATOM      4  C   UNL     1       3.882   2.490   0.969  0.00  0.00    +0.006 A 
ATOM      5  C   UNL     1       5.016   3.279   0.920  0.00  0.00    +0.033 A 
ATOM      6  C   UNL     1       5.939   3.101  -0.093  0.00  0.00    +0.126 A 
ATOM      7  C   UNL     1       5.730   2.131  -1.056  0.00  0.00    +0.033 A 
ATOM      8  C   UNL     1       4.599   1.339  -1.005  0.00  0.00    +0.006 A 
BRANCH   6   9
ATOM      9  N   UNL     1       7.151   3.949  -0.148  0.00  0.00    +0.056 N 
ATOM     10  O   UNL     1       7.964   3.792  -1.041  0.00  0.00    -0.126 OA
ATOM     11  O   UNL     1       7.336   4.803   0.701  0.00  0.00    -0.126 OA
ENDBRANCH   6   9
ENDBRANCH   2   3
BRANCH   2  12
ATOM     12  C   UNL     1       1.215   1.524  -0.023  0.00  0.00    +0.224 C 
ATOM     13  O   UNL     1       1.331   2.728  -0.121  0.00  0.00    -0.275 OA
ATOM     14  N   UNL     1      -0.011   0.966   0.007  0.00  0.00    -0.283 N 
ATOM     15  H   UNL     1      -0.104   0.000   0.021  0.00  0.00    +0.155 HD
BRANCH  14  16
ATOM     16  C   UNL     1      -1.151   1.779   0.014  0.00  0.00    +0.069 A 
ATOM     17  C   UNL     1      -1.155   2.977  -0.688  0.00  0.00    +0.026 A 
ATOM     18  C   UNL     1      -2.282   3.775  -0.683  0.00  0.00    +0.002 A 
ATOM     19  C   UNL     1      -3.404   3.389   0.028  0.00  0.00    +0.003 A 
ATOM     20  C   UNL     1      -3.403   2.199   0.733  0.00  0.00    +0.040 A 
ATOM     21  C   UNL     1      -2.279   1.392   0.728  0.00  0.00    +0.144 A 
ATOM     22  F   UNL     1      -2.278   0.230   1.417  0.00  0.00    -0.204 F 
ENDBRANCH  14  16
ENDBRANCH   2  12
TORSDOF 4
