REMARK  Name = ZINC02474435
REMARK  5 active torsions:
REMARK  status: ('A' for Active; 'I' for Inactive)
REMARK    1  A    between atoms: C_3  and  N_9
REMARK    2  A    between atoms: C_6  and  C_7
REMARK    3  A    between atoms: C_15  and  C_20
REMARK    4  A    between atoms: C_20  and  C_22
REMARK    5  A    between atoms: C_25  and  N_28
REMARK                            x       y       z     vdW  Elec       q    Type
REMARK                         _______ _______ _______ _____ _____    ______ ____
ROOT
ATOM      1  N   UNL     1      -4.615   4.513  -1.013  0.00  0.00    -0.202 N 
ATOM      2  C   UNL     1      -5.740   3.785  -0.891  0.00  0.00    +0.258 C 
ATOM      3  O   UNL     1      -5.816   2.578  -0.988  0.00  0.00    -0.269 OA
ATOM      4  C   UNL     1      -6.868   4.703  -0.616  0.00  0.00    +0.050 A 
ATOM      5  C   UNL     1      -8.226   4.526  -0.402  0.00  0.00    +0.014 A 
ATOM      6  C   UNL     1      -9.037   5.623  -0.170  0.00  0.00    +0.012 A 
ATOM      7  C   UNL     1      -8.494   6.909  -0.151  0.00  0.00    +0.023 A 
ATOM      8  C   UNL     1      -7.125   7.096  -0.366  0.00  0.00    +0.025 A 
ATOM      9  C   UNL     1      -6.313   6.000  -0.598  0.00  0.00    +0.050 A 
ATOM     10  C   UNL     1      -4.868   5.825  -0.858  0.00  0.00    +0.258 C 
ATOM     11  O   UNL     1      -4.046   6.717  -0.920  0.00  0.00    -0.269 OA
ENDROOT
BRANCH   1  14
ATOM     12  C   UNL     1      -1.003   4.296  -1.637  0.00  0.00    +0.017 A 
ATOM     13  C   UNL     1      -2.251   4.821  -1.387  0.00  0.00    +0.025 A 
ATOM     14  C   UNL     1      -3.352   3.978  -1.273  0.00  0.00    +0.045 A 
ATOM     15  C   UNL     1      -3.197   2.603  -1.417  0.00  0.00    +0.025 A 
ATOM     16  C   UNL     1      -1.954   2.071  -1.673  0.00  0.00    +0.017 A 
ATOM     17  C   UNL     1      -0.845   2.915  -1.788  0.00  0.00    +0.063 A 
BRANCH  17  18
ATOM     18  C   UNL     1       0.489   2.349  -2.061  0.00  0.00    +0.387 C 
ATOM     19  O   UNL     1       0.626   1.149  -2.187  0.00  0.00    -0.241 OA
ATOM     20  O   UNL     1       1.556   3.165  -2.177  0.00  0.00    -0.241 OA
ENDBRANCH  17  18
ENDBRANCH   1  14
BRANCH   7  21
ATOM     21  C   UNL     1      -9.369   8.076   0.098  0.00  0.00    +0.193 C 
ATOM     22  O   UNL     1     -10.515   8.073  -0.305  0.00  0.00    -0.287 OA
BRANCH  21  23
ATOM     23  C   UNL     1      -8.849   9.244   0.837  0.00  0.00    +0.022 A 
ATOM     24  C   UNL     1      -7.591   9.189   1.442  0.00  0.00    +0.014 A 
ATOM     25  C   UNL     1      -7.109  10.286   2.126  0.00  0.00    +0.033 A 
ATOM     26  C   UNL     1      -7.873  11.436   2.221  0.00  0.00    +0.126 A 
ATOM     27  C   UNL     1      -9.123  11.496   1.629  0.00  0.00    +0.033 A 
ATOM     28  C   UNL     1      -9.615  10.408   0.938  0.00  0.00    +0.014 A 
BRANCH  26  29
ATOM     29  N   UNL     1      -7.352  12.607   2.962  0.00  0.00    +0.056 N 
ATOM     30  O   UNL     1      -8.022  13.620   3.048  0.00  0.00    -0.126 OA
ATOM     31  O   UNL     1      -6.253  12.557   3.484  0.00  0.00    -0.126 OA
ENDBRANCH  26  29
ENDBRANCH  21  23
ENDBRANCH   7  21
TORSDOF 5
