REMARK  Name = ZINC01119516
REMARK  9 active torsions:
REMARK  status: ('A' for Active; 'I' for Inactive)
REMARK    1  A    between atoms: C_1  and  C_2
REMARK    2  A    between atoms: C_2  and  C_4
REMARK    3  A    between atoms: C_2  and  N_10
REMARK    4  A    between atoms: N_10  and  S_11
REMARK    5  A    between atoms: S_11  and  C_14
REMARK    6  A    between atoms: C_17  and  O_20
REMARK    7  A    between atoms: O_20  and  C_21
REMARK    8  A    between atoms: C_21  and  C_22
REMARK    9  A    between atoms: N_24  and  C_25
REMARK                            x       y       z     vdW  Elec       q    Type
REMARK                         _______ _______ _______ _____ _____    ______ ____
ROOT
ATOM      1  C   UNL     1       0.950   0.459   4.814  0.00  0.00    +0.105 A 
ATOM      2  C   UNL     1      -0.195   1.233   4.776  0.00  0.00    +0.032 A 
ATOM      3  C   UNL     1      -0.743   1.599   3.562  0.00  0.00    +0.047 A 
ATOM      4  C   UNL     1      -0.143   1.190   2.380  0.00  0.00    +0.121 A 
ATOM      5  C   UNL     1       1.003   0.408   2.420  0.00  0.00    +0.047 A 
ATOM      6  C   UNL     1       1.550   0.049   3.637  0.00  0.00    +0.032 A 
ENDROOT
BRANCH   1   7
ATOM      7  S   UNL     1       1.646  -0.006   6.364  0.00  0.00    +0.059 S 
ATOM      8  O   UNL     1       3.022  -0.272   6.128  0.00  0.00    -0.153 OA
ATOM      9  O   UNL     1       1.208   0.958   7.312  0.00  0.00    -0.153 OA
BRANCH   7  10
ATOM     10  N   UNL     1       0.953  -1.446   6.799  0.00  0.00    -0.183 NA
ATOM     11  H   UNL     1       0.389  -1.494   7.587  0.00  0.00    +0.149 HD
BRANCH  10  13
ATOM     12  C   UNL     1       2.353  -3.441   6.598  0.00  0.00    +0.031 C 
ATOM     13  C   UNL     1       1.193  -2.647   5.995  0.00  0.00    +0.103 C 
BRANCH  13  14
ATOM     14  C   UNL     1      -0.049  -3.501   5.985  0.00  0.00    -0.029 A 
ATOM     15  C   UNL     1      -0.792  -3.653   7.140  0.00  0.00    +0.005 A 
ATOM     16  C   UNL     1      -1.933  -4.433   7.130  0.00  0.00    +0.000 A 
ATOM     17  C   UNL     1      -2.326  -5.068   5.966  0.00  0.00    +0.000 A 
ATOM     18  C   UNL     1      -1.580  -4.919   4.812  0.00  0.00    +0.000 A 
ATOM     19  C   UNL     1      -0.441  -4.136   4.822  0.00  0.00    +0.005 A 
ENDBRANCH  13  14
ENDBRANCH  10  13
ENDBRANCH   7  10
ENDBRANCH   1   7
BRANCH   4  20
ATOM     20  O   UNL     1      -0.680   1.549   1.184  0.00  0.00    -0.483 OA
BRANCH  20  21
ATOM     21  C   UNL     1      -0.009   1.091   0.008  0.00  0.00    +0.324 C 
BRANCH  21  22
ATOM     22  C   UNL     1      -0.743   1.583  -1.213  0.00  0.00    +0.255 C 
ATOM     23  O   UNL     1      -1.742   2.260  -1.088  0.00  0.00    -0.272 OA
ATOM     24  N   UNL     1      -0.288   1.272  -2.443  0.00  0.00    -0.283 N 
ATOM     25  H   UNL     1       0.546   0.789  -2.544  0.00  0.00    +0.155 HD
BRANCH  24  26
ATOM     26  C   UNL     1      -1.022   1.647  -3.576  0.00  0.00    +0.037 A 
ATOM     27  C   UNL     1      -1.045   0.822  -4.693  0.00  0.00    +0.027 A 
ATOM     28  C   UNL     1      -1.772   1.188  -5.809  0.00  0.00    +0.051 A 
ATOM     29  C   UNL     1      -2.473   2.383  -5.822  0.00  0.00    +0.166 A 
ATOM     30  C   UNL     1      -2.447   3.215  -4.705  0.00  0.00    +0.168 A 
ATOM     31  C   UNL     1      -1.722   2.845  -3.585  0.00  0.00    +0.072 A 
ATOM     32  O   UNL     1      -3.208   4.319  -4.966  0.00  0.00    -0.453 OA
ATOM     33  C   UNL     1      -3.365   4.348  -6.397  0.00  0.00    +0.466 C 
ATOM     34  O   UNL     1      -3.249   2.966  -6.782  0.00  0.00    -0.453 OA
ENDBRANCH  24  26
ENDBRANCH  21  22
ENDBRANCH  20  21
ENDBRANCH   4  20
TORSDOF 8
