REMARK  Name = ZINC39695704
REMARK  9 active torsions:
REMARK  status: ('A' for Active; 'I' for Inactive)
REMARK    1  A    between atoms: C_1  and  C_2
REMARK    2  A    between atoms: C_9  and  C_11
REMARK    3  A    between atoms: C_11  and  C_13
REMARK    4  A    between atoms: C_11  and  N_14
REMARK    5  A    between atoms: C_15  and  C_17
REMARK    6  A    between atoms: C_28  and  C_30
REMARK    7  A    between atoms: C_35  and  O_36
REMARK    8  A    between atoms: O_36  and  C_37
REMARK    9  A    between atoms: C_37  and  C_39
REMARK                            x       y       z     vdW  Elec       q    Type
REMARK                         _______ _______ _______ _____ _____    ______ ____
ROOT
ATOM      1  C   UNL     1       2.323  -8.860   0.837  0.00  0.00    +0.100 C 
ATOM      2  C   UNL     1       1.095  -9.439   0.100  0.00  0.00    +0.121 C 
ATOM      3  N   UNL     1       1.331 -10.901   0.069  0.00  0.00    -0.296 N 
ATOM      4  C   UNL     1       1.914 -11.208   1.397  0.00  0.00    +0.115 C 
ATOM      5  C   UNL     1       2.857 -10.024   1.688  0.00  0.00    -0.004 C 
ATOM      6  C   UNL     1       2.807  -9.662   3.170  0.00  0.00    -0.010 C 
ATOM      7  C   UNL     1       3.397 -10.812   3.992  0.00  0.00    -0.082 C 
ATOM      8  N   UNL     1       4.783 -11.054   3.573  0.00  0.00    +0.379 N 
ATOM      9  C   UNL     1       4.814 -11.492   2.172  0.00  0.00    -0.082 C 
ATOM     10  C   UNL     1       4.284 -10.371   1.274  0.00  0.00    -0.010 C 
ATOM     11  C   UNL     1       1.075 -11.759  -0.939  0.00  0.00    +0.250 C 
ATOM     12  O   UNL     1       1.238 -12.953  -0.777  0.00  0.00    -0.270 OA
ATOM     13  H   UNL     1       5.316 -10.202   3.670  0.00  0.00    -0.086 HD
ATOM     14  H   UNL     1       5.189 -11.770   4.157  0.00  0.00    -0.086 HD
ENDROOT
BRANCH  11  15
ATOM     15  C   UNL     1       0.597 -11.248  -2.238  0.00  0.00    +0.079 A 
ATOM     16  C   UNL     1      -0.256 -10.143  -2.288  0.00  0.00    +0.017 A 
ATOM     17  C   UNL     1      -0.698  -9.671  -3.505  0.00  0.00    +0.001 A 
ATOM     18  C   UNL     1      -0.302 -10.287  -4.680  0.00  0.00    +0.004 A 
ATOM     19  C   UNL     1       0.541 -11.381  -4.645  0.00  0.00    +0.047 A 
ATOM     20  C   UNL     1       1.000 -11.866  -3.430  0.00  0.00    +0.144 A 
BRANCH  20  21
ATOM     21  O   UNL     1       1.833 -12.937  -3.394  0.00  0.00    -0.425 OA
BRANCH  21  22
ATOM     22  C   UNL     1       3.156 -12.708  -3.378  0.00  0.00    +0.309 C 
ATOM     23  O   UNL     1       3.571 -11.576  -3.304  0.00  0.00    -0.251 OA
ATOM     24  C   UNL     1       4.122 -13.862  -3.454  0.00  0.00    +0.136 C 
ENDBRANCH  21  22
ENDBRANCH  20  21
ENDBRANCH  11  15
BRANCH   1  26
ATOM     25  N   UNL     1       2.815  -6.775   2.074  0.00  0.00    -0.305 N 
ATOM     26  C   UNL     1       1.911  -7.710   1.720  0.00  0.00    +0.219 C 
ATOM     27  O   UNL     1       0.767  -7.627   2.112  0.00  0.00    -0.275 OA
ATOM     28  H   UNL     1       3.731  -6.842   1.761  0.00  0.00    +0.149 HD
BRANCH  25  29
ATOM     29  C   UNL     1       2.415  -5.658   2.933  0.00  0.00    +0.136 C 
ATOM     30  C   UNL     1       1.816  -4.543   2.072  0.00  0.00    +0.036 C 
BRANCH  29  39
ATOM     31  C   UNL     1       7.482  -2.638   7.470  0.00  0.00    +0.044 C 
ATOM     32  C   UNL     1       6.841  -3.351   6.307  0.00  0.00    -0.048 A 
ATOM     33  C   UNL     1       7.634  -3.853   5.285  0.00  0.00    +0.005 A 
ATOM     34  C   UNL     1       7.072  -4.503   4.223  0.00  0.00    +0.030 A 
ATOM     35  C   UNL     1       5.685  -4.665   4.160  0.00  0.00    +0.089 A 
ATOM     36  C   UNL     1       4.882  -4.157   5.195  0.00  0.00    +0.067 A 
ATOM     37  C   UNL     1       5.471  -3.504   6.269  0.00  0.00    +0.031 A 
ATOM     38  N   UNL     1       3.581  -4.468   4.855  0.00  0.00    -0.340 N 
ATOM     39  C   UNL     1       3.620  -5.132   3.668  0.00  0.00    +0.128 A 
ATOM     40  N   UNL     1       4.851  -5.248   3.261  0.00  0.00    -0.231 NA
ATOM     41  H   UNL     1       2.786  -4.254   5.368  0.00  0.00    +0.167 HD
ENDBRANCH  29  39
ENDBRANCH  25  29
ENDBRANCH   1  26
TORSDOF 6
