REMARK  Name = ZINC03274308
REMARK  6 active torsions:
REMARK  status: ('A' for Active; 'I' for Inactive)
REMARK    1  A    between atoms: C_3  and  C_7
REMARK    2  A    between atoms: C_10  and  S_13
REMARK    3  A    between atoms: N_11  and  N_12
REMARK    4  A    between atoms: S_13  and  C_14
REMARK    5  A    between atoms: C_14  and  C_15
REMARK    6  A    between atoms: N_17  and  C_18
REMARK                            x       y       z     vdW  Elec       q    Type
REMARK                         _______ _______ _______ _____ _____    ______ ____
ROOT
ATOM      1  C   UNL     1       0.948   0.391  -4.655  0.00  0.00    +0.183 A 
ATOM      2  N   UNL     1       1.673  -0.112  -3.683  0.00  0.00    -0.127 NA
ATOM      3  N   UNL     1       1.183   0.234  -2.546  0.00  0.00    -0.121 NA
ATOM      4  C   UNL     1       0.115   0.979  -2.723  0.00  0.00    +0.209 A 
ATOM      5  N   UNL     1      -0.075   1.100  -4.070  0.00  0.00    -0.224 N 
ENDROOT
BRANCH   1   8
ATOM      6  C   UNL     1       2.241  -0.886  -7.940  0.00  0.00    +0.020 A 
ATOM      7  C   UNL     1       2.055  -0.769  -6.573  0.00  0.00    +0.014 A 
ATOM      8  C   UNL     1       1.184   0.221  -6.105  0.00  0.00    +0.039 A 
ATOM      9  C   UNL     1       0.536   1.042  -7.030  0.00  0.00    +0.122 A 
ATOM     10  N   UNL     1       0.750   0.895  -8.320  0.00  0.00    -0.263 NA
ATOM     11  C   UNL     1       1.566  -0.029  -8.791  0.00  0.00    +0.111 A 
ENDBRANCH   1   8
BRANCH   5  12
ATOM     12  N   UNL     1      -1.073   1.785  -4.705  0.00  0.00    -0.295 N 
ATOM     13  H   UNL     1      -0.801   2.740  -4.879  0.00  0.00    +0.163 HD
ATOM     14  H   UNL     1      -1.340   1.323  -5.561  0.00  0.00    +0.163 HD
ENDBRANCH   5  12
BRANCH   4  15
ATOM     15  S   UNL     1      -0.889   1.683  -1.458  0.00  0.00    -0.075 S 
BRANCH  15  16
ATOM     16  C   UNL     1      -0.016   1.080   0.008  0.00  0.00    +0.173 C 
BRANCH  16  17
ATOM     17  C   UNL     1      -0.717   1.573   1.248  0.00  0.00    +0.227 C 
ATOM     18  O   UNL     1      -1.709   2.265   1.150  0.00  0.00    -0.275 OA
ATOM     19  N   UNL     1      -0.242   1.246   2.466  0.00  0.00    -0.285 N 
ATOM     20  H   UNL     1       0.511   0.639   2.546  0.00  0.00    +0.155 HD
BRANCH  19  21
ATOM     21  C   UNL     1      -0.833   1.782   3.615  0.00  0.00    +0.033 A 
ATOM     22  C   UNL     1      -0.052   2.086   4.723  0.00  0.00    +0.024 A 
ATOM     23  C   UNL     1      -0.638   2.620   5.854  0.00  0.00    +0.017 A 
ATOM     24  C   UNL     1      -2.004   2.841   5.888  0.00  0.00    +0.018 A 
ATOM     25  C   UNL     1      -2.785   2.534   4.788  0.00  0.00    +0.017 A 
ATOM     26  C   UNL     1      -2.204   2.006   3.652  0.00  0.00    +0.024 A 
ATOM     27 BR   UNL     1      -2.803   3.566   7.441  0.00  0.00    -0.050 Br
ENDBRANCH  19  21
ENDBRANCH  16  17
ENDBRANCH  15  16
ENDBRANCH   4  15
TORSDOF 6
