REMARK  Name = ZINC13052729
REMARK  7 active torsions:
REMARK  status: ('A' for Active; 'I' for Inactive)
REMARK    1  A    between atoms: C_5  and  N_7
REMARK    2  A    between atoms: C_8  and  C_10
REMARK    3  A    between atoms: C_10  and  S_11
REMARK    4  A    between atoms: S_11  and  C_12
REMARK    5  A    between atoms: C_16  and  C_30
REMARK    6  A    between atoms: N_22  and  C_23
REMARK    7  A    between atoms: C_23  and  C_24
REMARK                            x       y       z     vdW  Elec       q    Type
REMARK                         _______ _______ _______ _____ _____    ______ ____
ROOT
ATOM      1  C   UNL     1      -0.000  -0.003  -0.036  0.00  0.00    +0.173 A 
ATOM      2  N   UNL     1       1.108  -0.702  -0.052  0.00  0.00    -0.223 NA
ATOM      3  C   UNL     1       2.322  -0.105  -0.070  0.00  0.00    +0.080 A 
ATOM      4  C   UNL     1       3.503  -0.853  -0.088  0.00  0.00    +0.043 A 
ATOM      5  C   UNL     1       4.727  -0.196  -0.107  0.00  0.00    +0.065 A 
ATOM      6  C   UNL     1       4.782   1.204  -0.109  0.00  0.00    +0.016 A 
ATOM      7  C   UNL     1       3.636   1.945  -0.092  0.00  0.00    +0.016 A 
ATOM      8  C   UNL     1       2.396   1.306  -0.072  0.00  0.00    +0.065 A 
ATOM      9  C   UNL     1       1.136   2.066  -0.054  0.00  0.00    +0.262 A 
ATOM     10  O   UNL     1       1.133   3.283  -0.054  0.00  0.00    -0.267 OA
ATOM     11  N   UNL     1      -0.019   1.362  -0.036  0.00  0.00    -0.285 N 
ENDROOT
BRANCH   5  12
ATOM     12  C   UNL     1       5.981  -0.981  -0.126  0.00  0.00    +0.387 C 
ATOM     13  O   UNL     1       5.938  -2.195  -0.124  0.00  0.00    -0.241 OA
ATOM     14  O   UNL     1       7.171  -0.349  -0.144  0.00  0.00    -0.241 OA
ENDBRANCH   5  12
BRANCH   1  15
ATOM     15  S   UNL     1      -1.537  -0.865  -0.013  0.00  0.00    -0.078 S 
BRANCH  15  16
ATOM     16  C   UNL     1      -0.940  -2.573  -0.021  0.00  0.00    +0.173 C 
BRANCH  16  18
ATOM     17  N   UNL     1      -1.910  -4.849  -0.006  0.00  0.00    -0.284 N 
ATOM     18  C   UNL     1      -2.115  -3.517  -0.003  0.00  0.00    +0.228 C 
ATOM     19  O   UNL     1      -3.245  -3.077   0.014  0.00  0.00    -0.275 OA
ATOM     20  H   UNL     1      -1.009  -5.201  -0.085  0.00  0.00    +0.155 HD
BRANCH  17  25
ATOM     21  C   UNL     1      -5.284  -6.266  -0.366  0.00  0.00    +0.002 A 
ATOM     22  C   UNL     1      -5.144  -7.455   0.326  0.00  0.00    +0.002 A 
ATOM     23  C   UNL     1      -3.934  -7.782   0.907  0.00  0.00    +0.022 A 
ATOM     24  C   UNL     1      -2.858  -6.920   0.799  0.00  0.00    +0.062 A 
ATOM     25  C   UNL     1      -2.996  -5.724   0.106  0.00  0.00    +0.052 A 
ATOM     26  C   UNL     1      -4.216  -5.397  -0.472  0.00  0.00    +0.025 A 
ATOM     27 CL   UNL     1      -1.338  -7.331   1.530  0.00  0.00    -0.082 Cl
ENDBRANCH  17  25
ENDBRANCH  16  18
ENDBRANCH  15  16
ENDBRANCH   1  15
BRANCH  11  28
ATOM     28  C   UNL     1      -1.302   2.071  -0.023  0.00  0.00    +0.159 C 
BRANCH  28  29
ATOM     29  C   UNL     1      -1.733   2.318   1.424  0.00  0.00    +0.138 C 
ATOM     30  C   UNL     1      -3.122   3.003   1.461  0.00  0.00    +0.035 C 
ATOM     31  C   UNL     1      -3.625   2.575   2.867  0.00  0.00    +0.031 C 
ATOM     32  C   UNL     1      -3.020   1.163   3.015  0.00  0.00    +0.160 C 
ATOM     33  O   UNL     1      -1.913   1.069   2.111  0.00  0.00    -0.375 OA
ENDBRANCH  28  29
ENDBRANCH  11  28
TORSDOF 7
