REMARK  Name = ZINC13197193
REMARK  10 active torsions:
REMARK  status: ('A' for Active; 'I' for Inactive)
REMARK    1  A    between atoms: C_1  and  C_2
REMARK    2  A    between atoms: C_5  and  C_8
REMARK    3  A    between atoms: C_11  and  S_17
REMARK    4  A    between atoms: N_12  and  C_13
REMARK    5  A    between atoms: C_13  and  C_14
REMARK    6  A    between atoms: C_14  and  C_15
REMARK    7  A    between atoms: S_17  and  C_18
REMARK    8  A    between atoms: C_18  and  C_19
REMARK    9  A    between atoms: N_21  and  C_22
REMARK   10  A    between atoms: C_27  and  N_28
REMARK                            x       y       z     vdW  Elec       q    Type
REMARK                         _______ _______ _______ _____ _____    ______ ____
ROOT
ATOM      1  S   UNL     1      -0.908   1.601   0.278  0.00  0.00    -0.077 S 
ENDROOT
BRANCH   1   5
ATOM      2  C   UNL     1       2.913   2.369   0.007  0.00  0.00    +0.165 A 
ATOM      3  N   UNL     1       2.896   1.087   0.287  0.00  0.00    -0.128 NA
ATOM      4  N   UNL     1       1.683   0.681   0.409  0.00  0.00    -0.122 NA
ATOM      5  C   UNL     1       0.851   1.679   0.213  0.00  0.00    +0.192 A 
ATOM      6  N   UNL     1       1.604   2.787  -0.055  0.00  0.00    -0.302 N 
BRANCH   2  11
ATOM      7  C   UNL     1       7.584   5.626  -0.828  0.00  0.00    +0.044 C 
ATOM      8  C   UNL     1       6.361   4.773  -0.610  0.00  0.00    -0.050 A 
ATOM      9  C   UNL     1       5.140   5.372  -0.351  0.00  0.00    +0.004 A 
ATOM     10  C   UNL     1       4.017   4.597  -0.150  0.00  0.00    +0.012 A 
ATOM     11  C   UNL     1       4.113   3.206  -0.208  0.00  0.00    +0.019 A 
ATOM     12  C   UNL     1       5.348   2.608  -0.464  0.00  0.00    +0.012 A 
ATOM     13  C   UNL     1       6.463   3.395  -0.669  0.00  0.00    +0.004 A 
ENDBRANCH   2  11
BRANCH   6  14
ATOM     14  C   UNL     1       1.118   4.138  -0.345  0.00  0.00    +0.137 C 
BRANCH  14  15
ATOM     15  C   UNL     1       0.914   4.899   0.966  0.00  0.00    +0.147 C 
BRANCH  15  16
ATOM     16  C   UNL     1       0.414   6.289   0.667  0.00  0.00    +0.358 C 
ATOM     17  O   UNL     1       0.239   6.635  -0.477  0.00  0.00    -0.246 OA
ATOM     18  O   UNL     1       0.164   7.143   1.673  0.00  0.00    -0.246 OA
ENDBRANCH  15  16
ENDBRANCH  14  15
ENDBRANCH   6  14
ENDBRANCH   1   5
BRANCH   1  19
ATOM     19  C   UNL     1      -1.131  -0.152   0.667  0.00  0.00    +0.173 C 
BRANCH  19  20
ATOM     20  C   UNL     1      -2.602  -0.460   0.774  0.00  0.00    +0.228 C 
ATOM     21  O   UNL     1      -3.420   0.420   0.604  0.00  0.00    -0.275 OA
ATOM     22  N   UNL     1      -3.010  -1.713   1.059  0.00  0.00    -0.283 N 
ATOM     23  H   UNL     1      -2.361  -2.430   1.127  0.00  0.00    +0.155 HD
BRANCH  22  24
ATOM     24  C   UNL     1      -4.370  -1.978   1.258  0.00  0.00    +0.061 A 
ATOM     25  C   UNL     1      -5.327  -1.294   0.522  0.00  0.00    +0.045 A 
ATOM     26  C   UNL     1      -6.669  -1.561   0.716  0.00  0.00    +0.043 A 
ATOM     27  C   UNL     1      -7.063  -2.503   1.651  0.00  0.00    +0.022 A 
ATOM     28  C   UNL     1      -6.116  -3.185   2.392  0.00  0.00    +0.031 A 
ATOM     29  C   UNL     1      -4.767  -2.926   2.199  0.00  0.00    +0.088 A 
ATOM     30 CL   UNL     1      -7.865  -0.709  -0.210  0.00  0.00    -0.083 Cl
BRANCH  29  31
ATOM     31  N   UNL     1      -3.804  -3.617   2.950  0.00  0.00    -0.218 N 
ATOM     32  C   UNL     1      -4.026  -4.626   3.815  0.00  0.00    +0.225 A 
ATOM     33  N   UNL     1      -2.872  -5.000   4.307  0.00  0.00    -0.222 NA
ATOM     34  C   UNL     1      -1.898  -4.252   3.791  0.00  0.00    +0.245 A 
ATOM     35  N   UNL     1      -2.418  -3.391   2.955  0.00  0.00    -0.153 NA
ENDBRANCH  29  31
ENDBRANCH  22  24
ENDBRANCH  19  20
ENDBRANCH   1  19
TORSDOF 9
