REMARK  Name = ZINC00437943
REMARK  4 active torsions:
REMARK  status: ('A' for Active; 'I' for Inactive)
REMARK    1  A    between atoms: C_3  and  N_20
REMARK    2  A    between atoms: C_6  and  C_7
REMARK    3  A    between atoms: C_8  and  C_9
REMARK    4  A    between atoms: N_11  and  C_12
REMARK                            x       y       z     vdW  Elec       q    Type
REMARK                         _______ _______ _______ _____ _____    ______ ____
ROOT
ATOM      1  C   UNL     1       1.242   2.093  -0.004  0.00  0.00    +0.241 C 
ATOM      2  O   UNL     1       2.304   1.500  -0.014  0.00  0.00    -0.270 OA
ATOM      3  N   UNL     1       1.223   3.441   0.009  0.00  0.00    -0.281 N 
ATOM      4  H   UNL     1       0.379   3.915  -0.050  0.00  0.00    +0.155 HD
ENDROOT
BRANCH   3   5
ATOM      5  C   UNL     1       2.422   4.156   0.107  0.00  0.00    +0.052 A 
ATOM      6  C   UNL     1       3.573   3.670  -0.498  0.00  0.00    +0.026 A 
ATOM      7  C   UNL     1       4.755   4.378  -0.400  0.00  0.00    +0.022 A 
ATOM      8  C   UNL     1       4.793   5.571   0.301  0.00  0.00    +0.042 A 
ATOM      9  C   UNL     1       3.647   6.059   0.905  0.00  0.00    +0.041 A 
ATOM     10  C   UNL     1       2.461   5.357   0.805  0.00  0.00    +0.064 A 
ATOM     11 CL   UNL     1       1.022   5.972   1.557  0.00  0.00    -0.082 Cl
ATOM     12 CL   UNL     1       6.280   6.458   0.422  0.00  0.00    -0.083 Cl
ENDBRANCH   3   5
BRANCH   1  14
ATOM     13  C   UNL     1       0.003  -0.004  -0.021  0.00  0.00    +0.013 C 
ATOM     14  C   UNL     1      -0.015   1.344  -0.008  0.00  0.00    +0.068 C 
BRANCH  13  20
ATOM     15  C   UNL     1      -2.484  -0.080  -0.008  0.00  0.00    +0.010 A 
ATOM     16  C   UNL     1      -3.664  -0.792  -0.017  0.00  0.00    +0.033 A 
ATOM     17  C   UNL     1      -3.641  -2.176  -0.031  0.00  0.00    +0.126 A 
ATOM     18  C   UNL     1      -2.435  -2.855  -0.041  0.00  0.00    +0.033 A 
ATOM     19  C   UNL     1      -1.246  -2.156  -0.038  0.00  0.00    +0.010 A 
ATOM     20  C   UNL     1      -1.261  -0.758  -0.025  0.00  0.00    -0.025 A 
BRANCH  17  21
ATOM     21  N   UNL     1      -4.912  -2.934  -0.034  0.00  0.00    +0.056 N 
ATOM     22  O   UNL     1      -4.895  -4.152  -0.045  0.00  0.00    -0.126 OA
ATOM     23  O   UNL     1      -5.975  -2.340  -0.024  0.00  0.00    -0.126 OA
ENDBRANCH  17  21
ENDBRANCH  13  20
ENDBRANCH   1  14
TORSDOF 4
