REMARK  Name = ZINC65193534
REMARK  7 active torsions:
REMARK  status: ('A' for Active; 'I' for Inactive)
REMARK    1  A    between atoms: C_1  and  C_2
REMARK    2  A    between atoms: C_3  and  C_15
REMARK    3  A    between atoms: N_5  and  C_7
REMARK    4  A    between atoms: C_16  and  C_17
REMARK    5  A    between atoms: N_19  and  N_20
REMARK    6  A    between atoms: N_23  and  C_24
REMARK    7  A    between atoms: C_24  and  C_25
REMARK                            x       y       z     vdW  Elec       q    Type
REMARK                         _______ _______ _______ _____ _____    ______ ____
ROOT
ATOM      1  C   UNL     1      -0.004  -0.377  -2.545  0.00  0.00    +0.018 C 
ATOM      2  C   UNL     1       0.895  -0.873  -3.424  0.00  0.00    +0.069 C 
ENDROOT
BRANCH   1   5
ATOM      3  C   UNL     1      -0.018   1.503   0.010  0.00  0.00    +0.068 C 
ATOM      4  C   UNL     1       0.002  -0.004   0.002  0.00  0.00    +0.069 A 
ATOM      5  C   UNL     1       0.008  -0.829  -1.148  0.00  0.00    +0.035 A 
ATOM      6  C   UNL     1       0.028  -2.142  -0.707  0.00  0.00    +0.140 A 
ATOM      7  N   UNL     1       0.034  -2.112   0.639  0.00  0.00    -0.221 N 
ATOM      8  N   UNL     1       0.023  -0.775   1.054  0.00  0.00    -0.170 NA
ATOM      9 CL   UNL     1       0.042  -3.562  -1.705  0.00  0.00    -0.061 Cl
BRANCH   7  10
ATOM     10  C   UNL     1       0.052  -3.231   1.484  0.00  0.00    +0.067 A 
ATOM     11  C   UNL     1      -0.620  -4.390   1.117  0.00  0.00    +0.030 A 
ATOM     12  C   UNL     1      -0.600  -5.491   1.950  0.00  0.00    +0.040 A 
ATOM     13  C   UNL     1       0.088  -5.440   3.150  0.00  0.00    +0.124 A 
ATOM     14  C   UNL     1       0.758  -4.285   3.518  0.00  0.00    +0.040 A 
ATOM     15  C   UNL     1       0.746  -3.184   2.685  0.00  0.00    +0.030 A 
ATOM     16  F   UNL     1       0.106  -6.519   3.964  0.00  0.00    -0.205 F 
ENDBRANCH   7  10
ENDBRANCH   1   5
BRANCH   2  17
ATOM     17  C   UNL     1       0.883  -0.438  -4.772  0.00  0.00    +0.253 C 
ATOM     18  O   UNL     1       0.062   0.384  -5.139  0.00  0.00    -0.269 OA
ATOM     19  N   UNL     1       1.780  -0.932  -5.648  0.00  0.00    -0.230 N 
ATOM     20  H   UNL     1       2.434  -1.586  -5.356  0.00  0.00    +0.173 HD
BRANCH  19  21
ATOM     21  N   UNL     1       1.768  -0.501  -6.981  0.00  0.00    -0.218 N 
ATOM     22  C   UNL     1       2.665  -0.996  -7.857  0.00  0.00    +0.316 C 
ATOM     23  O   UNL     1       2.655  -0.622  -9.014  0.00  0.00    -0.251 OA
ATOM     24  N   UNL     1       3.574  -1.905  -7.451  0.00  0.00    -0.298 N 
ATOM     25  H   UNL     1       1.114   0.153  -7.274  0.00  0.00    +0.174 HD
ATOM     26  H   UNL     1       3.582  -2.203  -6.528  0.00  0.00    +0.150 HD
BRANCH  24  27
ATOM     27  C   UNL     1       4.548  -2.442  -8.403  0.00  0.00    +0.109 C 
BRANCH  27  28
ATOM     28  C   UNL     1       5.456  -3.447  -7.691  0.00  0.00    +0.006 C 
ATOM     29  C   UNL     1       6.945  -3.109  -7.594  0.00  0.00    +0.005 C 
ATOM     30  C   UNL     1       6.471  -4.211  -8.544  0.00  0.00    +0.005 C 
ENDBRANCH  27  28
ENDBRANCH  24  27
ENDBRANCH  19  21
ENDBRANCH   2  17
TORSDOF 6
