REMARK  Name = ZINC08666672
REMARK  11 active torsions:
REMARK  status: ('A' for Active; 'I' for Inactive)
REMARK    1  A    between atoms: C_1  and  O_2
REMARK    2  A    between atoms: O_2  and  C_3
REMARK    3  A    between atoms: C_10  and  C_14
REMARK    4  A    between atoms: C_11  and  O_13
REMARK    5  A    between atoms: C_14  and  N_62
REMARK    6  A    between atoms: C_15  and  C_16
REMARK    7  A    between atoms: C_15  and  N_62
REMARK    8  A    between atoms: N_20  and  C_21
REMARK    9  A    between atoms: C_21  and  C_22
REMARK   10  A    between atoms: C_29  and  C_30
REMARK   11  A    between atoms: C_29  and  N_62
REMARK                            x       y       z     vdW  Elec       q    Type
REMARK                         _______ _______ _______ _____ _____    ______ ____
ROOT
ATOM      1  N   UNL     1       0.533   0.082  -2.450  0.00  0.00    +0.389 N 
ATOM      2  H   UNL     1       1.349  -0.448  -2.123  0.00  0.00    -0.081 HD
ENDROOT
BRANCH   1   3
ATOM      3  C   UNL     1       0.885   1.516  -2.514  0.00  0.00    -0.037 C 
BRANCH   3  11
ATOM      4  C   UNL     1       3.899   0.737   2.785  0.00  0.00    +0.121 A 
ATOM      5  C   UNL     1       4.225   2.084   2.967  0.00  0.00    +0.048 A 
ATOM      6  C   UNL     1       3.842   3.026   2.064  0.00  0.00    +0.032 A 
ATOM      7  C   UNL     1       3.107   2.646   0.927  0.00  0.00    +0.075 A 
ATOM      8  C   UNL     1       2.777   1.282   0.742  0.00  0.00    +0.004 A 
ATOM      9  C   UNL     1       3.187   0.333   1.692  0.00  0.00    +0.055 A 
ATOM     10  C   UNL     1       2.040   0.903  -0.398  0.00  0.00    +0.017 A 
ATOM     11  C   UNL     1       1.674   1.875  -1.282  0.00  0.00    -0.002 A 
ATOM     12  C   UNL     1       2.031   3.207  -1.042  0.00  0.00    +0.214 A 
ATOM     13  N   UNL     1       2.724   3.554   0.021  0.00  0.00    -0.213 NA
BRANCH   4  15
ATOM     14  C   UNL     1       5.038   0.303   4.827  0.00  0.00    +0.277 C 
ATOM     15  O   UNL     1       4.295  -0.181   3.706  0.00  0.00    -0.495 OA
ENDBRANCH   4  15
BRANCH  12  16
ATOM     16  O   UNL     1       1.660   4.162  -1.930  0.00  0.00    -0.492 OA
ATOM     17  H   UNL     1       0.769   4.508  -1.785  0.00  0.00    +0.294 HD
ENDBRANCH  12  16
ENDBRANCH   3  11
ENDBRANCH   1   3
BRANCH   1  18
ATOM     18  C   UNL     1       0.152  -0.406  -3.793  0.00  0.00    +0.001 C 
BRANCH  18  19
ATOM     19  C   UNL     1      -0.100  -1.890  -3.720  0.00  0.00    +0.135 A 
ATOM     20  N   UNL     1      -1.213  -2.477  -3.354  0.00  0.00    -0.115 NA
ATOM     21  N   UNL     1      -1.032  -3.751  -3.424  0.00  0.00    -0.023 NA
ATOM     22  N   UNL     1       0.168  -3.991  -3.826  0.00  0.00    -0.044 NA
ATOM     23  N   UNL     1       0.772  -2.869  -4.024  0.00  0.00    -0.227 N 
BRANCH  23  24
ATOM     24  C   UNL     1       2.151  -2.693  -4.489  0.00  0.00    +0.182 C 
BRANCH  24  25
ATOM     25  C   UNL     1       3.079  -2.644  -3.303  0.00  0.00    -0.026 A 
ATOM     26  C   UNL     1       3.376  -1.433  -2.708  0.00  0.00    +0.008 A 
ATOM     27  C   UNL     1       4.223  -1.387  -1.617  0.00  0.00    +0.038 A 
ATOM     28  C   UNL     1       4.783  -2.555  -1.127  0.00  0.00    +0.123 A 
ATOM     29  C   UNL     1       4.489  -3.768  -1.728  0.00  0.00    +0.038 A 
ATOM     30  C   UNL     1       3.637  -3.811  -2.815  0.00  0.00    +0.008 A 
ATOM     31  F   UNL     1       5.615  -2.512  -0.064  0.00  0.00    -0.205 F 
ENDBRANCH  24  25
ENDBRANCH  23  24
ENDBRANCH  18  19
ENDBRANCH   1  18
BRANCH   1  32
ATOM     32  C   UNL     1      -0.583  -0.123  -1.503  0.00  0.00    -0.046 C 
BRANCH  32  33
ATOM     33  C   UNL     1      -1.795   0.716  -1.914  0.00  0.00    +0.102 C 
ATOM     34  C   UNL     1      -2.895   0.637  -0.832  0.00  0.00    +0.032 C 
ATOM     35  C   UNL     1      -4.214   0.618  -1.637  0.00  0.00    +0.030 C 
ATOM     36  C   UNL     1      -3.755   0.687  -3.110  0.00  0.00    +0.160 C 
ATOM     37  O   UNL     1      -2.407   0.168  -3.102  0.00  0.00    -0.378 OA
ENDBRANCH  32  33
ENDBRANCH   1  32
TORSDOF 10
