REMARK  Name = ZINC43591128
REMARK  6 active torsions:
REMARK  status: ('A' for Active; 'I' for Inactive)
REMARK    1  A    between atoms: C_1  and  C_2
REMARK    2  A    between atoms: C_2  and  C_4
REMARK    3  A    between atoms: C_2  and  N_17
REMARK    4  A    between atoms: N_9  and  C_10
REMARK    5  A    between atoms: C_10  and  C_11
REMARK    6  A    between atoms: N_17  and  C_18
REMARK                            x       y       z     vdW  Elec       q    Type
REMARK                         _______ _______ _______ _____ _____    ______ ____
ROOT
ATOM      1  C   UNL     1      -0.019   1.526   0.010  0.00  0.00    +0.038 C 
ATOM      2  C   UNL     1       0.002  -0.004   0.002  0.00  0.00    +0.154 C 
ENDROOT
BRANCH   2   3
ATOM      3  C   UNL     1       0.707  -0.490  -1.238  0.00  0.00    +0.240 C 
ATOM      4  O   UNL     1       1.704  -1.174  -1.140  0.00  0.00    -0.273 OA
ATOM      5  N   UNL     1       0.231  -0.164  -2.456  0.00  0.00    -0.239 N 
ATOM      6  C   UNL     1       0.862  -0.599  -3.565  0.00  0.00    +0.306 C 
ATOM      7  O   UNL     1       1.860  -1.285  -3.466  0.00  0.00    -0.252 OA
ATOM      8  N   UNL     1       0.385  -0.273  -4.782  0.00  0.00    -0.297 N 
ATOM      9  H   UNL     1      -0.566   0.383  -2.534  0.00  0.00    +0.159 HD
ATOM     10  H   UNL     1      -0.412   0.274  -4.861  0.00  0.00    +0.150 HD
BRANCH   8  11
ATOM     11  C   UNL     1       1.071  -0.745  -5.988  0.00  0.00    +0.137 C 
BRANCH  11  12
ATOM     12  C   UNL     1       0.331  -0.239  -7.227  0.00  0.00    +0.135 C 
ATOM     13  C   UNL     1       1.021  -0.757  -8.515  0.00  0.00    +0.035 C 
ATOM     14  C   UNL     1      -0.161  -0.711  -9.521  0.00  0.00    +0.031 C 
ATOM     15  C   UNL     1      -1.368  -1.063  -8.625  0.00  0.00    +0.160 C 
ATOM     16  O   UNL     1      -1.000  -0.778  -7.269  0.00  0.00    -0.375 OA
ENDBRANCH  11  12
ENDBRANCH   8  11
ENDBRANCH   2   3
BRANCH   2  17
ATOM     17  N   UNL     1       0.711  -0.489   1.189  0.00  0.00    -0.333 N 
ATOM     18  H   UNL     1       1.654  -0.707   1.135  0.00  0.00    +0.147 HD
BRANCH  17  19
ATOM     19  C   UNL     1       0.026  -0.639   2.400  0.00  0.00    +0.031 A 
ATOM     20  C   UNL     1      -1.326  -0.333   2.476  0.00  0.00    +0.027 A 
ATOM     21  C   UNL     1      -2.002  -0.479   3.672  0.00  0.00    +0.051 A 
ATOM     22  C   UNL     1      -1.334  -0.933   4.799  0.00  0.00    +0.162 A 
ATOM     23  C   UNL     1       0.019  -1.242   4.726  0.00  0.00    +0.164 A 
ATOM     24  C   UNL     1       0.697  -1.099   3.525  0.00  0.00    +0.072 A 
ATOM     25  O   UNL     1       0.690  -1.696   5.820  0.00  0.00    -0.485 OA
ATOM     26  C   UNL     1       0.070  -1.479   7.092  0.00  0.00    +0.270 C 
ATOM     27  C   UNL     1      -1.407  -1.879   6.981  0.00  0.00    +0.270 C 
ATOM     28  O   UNL     1      -2.016  -1.067   5.971  0.00  0.00    -0.485 OA
ENDBRANCH  17  19
ENDBRANCH   2  17
TORSDOF 5
