REMARK  Name = ZINC20155012
REMARK  12 active torsions:
REMARK  status: ('A' for Active; 'I' for Inactive)
REMARK    1  A    between atoms: C_1  and  C_2
REMARK    2  A    between atoms: C_2  and  O_3
REMARK    3  A    between atoms: O_3  and  C_4
REMARK    4  A    between atoms: C_4  and  C_6
REMARK    5  A    between atoms: C_9  and  N_12
REMARK    6  A    between atoms: C_13  and  C_15
REMARK    7  A    between atoms: C_17  and  N_32
REMARK    8  A    between atoms: C_20  and  N_21
REMARK    9  A    between atoms: C_22  and  C_24
REMARK   10  A    between atoms: C_24  and  N_25
REMARK   11  A    between atoms: N_25  and  C_26
REMARK   12  A    between atoms: C_26  and  C_27
REMARK                            x       y       z     vdW  Elec       q    Type
REMARK                         _______ _______ _______ _____ _____    ______ ____
ROOT
ATOM      1  C   UNL     1      -5.267   0.904  -3.000  0.00  0.00    +0.060 A 
ATOM      2  C   UNL     1      -6.518   0.285  -2.940  0.00  0.00    +0.047 A 
ATOM      3  C   UNL     1      -6.814  -0.568  -1.899  0.00  0.00    +0.127 A 
ATOM      4  C   UNL     1      -5.875  -0.820  -0.913  0.00  0.00    +0.034 A 
ATOM      5  C   UNL     1      -4.632  -0.221  -0.961  0.00  0.00    +0.026 A 
ATOM      6  C   UNL     1      -4.316   0.641  -2.002  0.00  0.00    +0.046 A 
ENDROOT
BRANCH   1   8
ATOM      7  N   UNL     1      -5.894   2.150  -5.008  0.00  0.00    -0.281 N 
ATOM      8  C   UNL     1      -4.946   1.823  -4.108  0.00  0.00    +0.250 C 
ATOM      9  O   UNL     1      -3.826   2.285  -4.209  0.00  0.00    -0.270 OA
ATOM     10  H   UNL     1      -6.878   1.660  -4.973  0.00  0.00    +0.155 HD
BRANCH   7  14
ATOM     11  C   UNL     1      -5.096   5.013  -7.925  0.00  0.00    +0.059 A 
ATOM     12  C   UNL     1      -6.058   4.026  -8.157  0.00  0.00    +0.017 A 
ATOM     13  C   UNL     1      -6.319   3.081  -7.191  0.00  0.00    +0.024 A 
ATOM     14  C   UNL     1      -5.627   3.108  -5.984  0.00  0.00    +0.034 A 
ATOM     15  C   UNL     1      -4.672   4.093  -5.747  0.00  0.00    +0.024 A 
ATOM     16  C   UNL     1      -4.402   5.038  -6.711  0.00  0.00    +0.017 A 
BRANCH  11  17
ATOM     17  C   UNL     1      -4.813   6.027  -8.958  0.00  0.00    +0.339 C 
ATOM     18  O   UNL     1      -5.416   6.005 -10.012  0.00  0.00    -0.245 OA
BRANCH  17  19
ATOM     19  O   UNL     1      -3.885   6.978  -8.732  0.00  0.00    -0.461 OA
BRANCH  19  21
ATOM     20  C   UNL     1      -2.580   8.937  -9.357  0.00  0.00    +0.048 C 
ATOM     21  C   UNL     1      -3.659   7.943  -9.793  0.00  0.00    +0.229 C 
ENDBRANCH  19  21
ENDBRANCH  17  19
ENDBRANCH  11  17
ENDBRANCH   7  14
ENDBRANCH   1   8
BRANCH   6  22
ATOM     22  N   UNL     1      -3.063   1.248  -2.053  0.00  0.00    -0.286 N 
ATOM     23  C   UNL     1      -2.358   1.434  -0.920  0.00  0.00    +0.200 C 
ATOM     24  O   UNL     1      -2.856   1.170   0.154  0.00  0.00    -0.278 OA
ATOM     25  H   UNL     1      -2.649   1.574  -3.019  0.00  0.00    +0.155 HD
BRANCH  23  26
ATOM     26  C   UNL     1      -0.952   1.971  -0.987  0.00  0.00    +0.016 C 
BRANCH  26  27
ATOM     27  N   UNL     1      -0.404   2.082   0.372  0.00  0.00    +0.389 N 
ATOM     28  H   UNL     1      -1.030   2.765   0.964  0.00  0.00    -0.085 HD
ATOM     29  H   UNL     1      -0.396   1.089   0.846  0.00  0.00    -0.085 HD
BRANCH  27  30
ATOM     30  C   UNL     1       0.969   2.603   0.345  0.00  0.00    -0.006 C 
BRANCH  30  31
ATOM     31  C   UNL     1       1.496   2.702   1.754  0.00  0.00    +0.088 A 
ATOM     32  C   UNL     1       2.156   1.736   2.417  0.00  0.00    +0.042 A 
ATOM     33  C   UNL     1       2.461   2.252   3.697  0.00  0.00    +0.041 A 
ATOM     34  C   UNL     1       1.969   3.504   3.740  0.00  0.00    +0.195 A 
ATOM     35  O   UNL     1       1.391   3.773   2.558  0.00  0.00    -0.470 OA
ENDBRANCH  30  31
ENDBRANCH  27  30
ENDBRANCH  26  27
ENDBRANCH  23  26
ENDBRANCH   6  22
BRANCH   3  36
ATOM     36  N   UNL     1      -8.143  -1.218  -1.835  0.00  0.00    +0.056 N 
ATOM     37  O   UNL     1      -8.408  -1.972  -0.916  0.00  0.00    -0.126 OA
ATOM     38  O   UNL     1      -8.971  -0.998  -2.700  0.00  0.00    -0.126 OA
ENDBRANCH   3  36
TORSDOF 11
