REMARK  Name = ZINC19671966
REMARK  5 active torsions:
REMARK  status: ('A' for Active; 'I' for Inactive)
REMARK    1  A    between atoms: C_6  and  N_7
REMARK    2  A    between atoms: C_8  and  S_10
REMARK    3  A    between atoms: S_10  and  C_11
REMARK    4  A    between atoms: C_11  and  C_12
REMARK    5  A    between atoms: C_14  and  N_22
REMARK                            x       y       z     vdW  Elec       q    Type
REMARK                         _______ _______ _______ _____ _____    ______ ____
ROOT
ATOM      1  N   UNL     1      -1.201  -0.721   0.007  0.00  0.00    -0.296 N 
ATOM      2  C   UNL     1      -2.374  -0.004  -0.066  0.00  0.00    +0.130 C 
ATOM      3  N   UNL     1      -2.338   1.297  -0.149  0.00  0.00    -0.381 N 
ATOM      4  H   UNL     1      -3.163   1.807  -0.129  0.00  0.00    +0.158 HD
ATOM      5  H   UNL     1      -1.487   1.755  -0.231  0.00  0.00    +0.158 HD
ATOM      6  H   UNL     1      -0.401  -0.307   0.366  0.00  0.00    +0.154 HD
ENDROOT
BRANCH   1  12
ATOM      7  C   UNL     1      -1.967  -2.451  -1.494  0.00  0.00    +0.027 A 
ATOM      8  C   UNL     1      -1.931  -3.762  -1.931  0.00  0.00    +0.051 A 
ATOM      9  C   UNL     1      -1.093  -4.679  -1.315  0.00  0.00    +0.162 A 
ATOM     10  C   UNL     1      -0.285  -4.279  -0.257  0.00  0.00    +0.164 A 
ATOM     11  C   UNL     1      -0.323  -2.965   0.182  0.00  0.00    +0.072 A 
ATOM     12  C   UNL     1      -1.164  -2.050  -0.436  0.00  0.00    +0.036 A 
ATOM     13  O   UNL     1       0.550  -5.163   0.354  0.00  0.00    -0.485 OA
ATOM     14  C   UNL     1       0.290  -6.553   0.134  0.00  0.00    +0.270 C 
ATOM     15  C   UNL     1       0.049  -6.765  -1.367  0.00  0.00    +0.270 C 
ATOM     16  O   UNL     1      -1.074  -5.967  -1.758  0.00  0.00    -0.485 OA
ENDBRANCH   1  12
BRANCH   2  17
ATOM     17  S   UNL     1      -3.923  -0.844  -0.048  0.00  0.00    -0.088 S 
BRANCH  17  18
ATOM     18  C   UNL     1      -5.147   0.491  -0.162  0.00  0.00    +0.116 C 
BRANCH  18  19
ATOM     19  C   UNL     1      -6.534  -0.098  -0.156  0.00  0.00    +0.007 A 
ATOM     20  C   UNL     1      -7.140  -0.450  -1.346  0.00  0.00    +0.040 A 
ATOM     21  C   UNL     1      -8.413  -0.990  -1.342  0.00  0.00    +0.127 A 
ATOM     22  C   UNL     1      -9.082  -1.177  -0.146  0.00  0.00    +0.042 A 
ATOM     23  C   UNL     1      -8.480  -0.825   1.047  0.00  0.00    +0.022 A 
ATOM     24  C   UNL     1      -7.201  -0.292   1.046  0.00  0.00    +0.133 A 
ATOM     25  O   UNL     1      -6.591   0.044   2.214  0.00  0.00    -0.466 OA
ATOM     26  C   UNL     1      -7.428   0.168   3.367  0.00  0.00    +0.394 C 
ATOM     27  O   UNL     1      -8.288  -0.976   3.433  0.00  0.00    -0.339 OA
ATOM     28  C   UNL     1      -9.221  -1.029   2.345  0.00  0.00    +0.202 C 
BRANCH  21  29
ATOM     29  N   UNL     1      -9.060  -1.368  -2.618  0.00  0.00    +0.056 N 
ATOM     30  O   UNL     1      -8.476  -1.204  -3.664  0.00  0.00    -0.126 OA
ATOM     31  O   UNL     1     -10.173  -1.839  -2.615  0.00  0.00    -0.126 OA
ENDBRANCH  21  29
ENDBRANCH  18  19
ENDBRANCH  17  18
ENDBRANCH   2  17
TORSDOF 5
