REMARK  Name = ZINC26575932
REMARK  6 active torsions:
REMARK  status: ('A' for Active; 'I' for Inactive)
REMARK    1  A    between atoms: C_1  and  C_2
REMARK    2  A    between atoms: C_2  and  C_3
REMARK    3  A    between atoms: C_3  and  C_4
REMARK    4  A    between atoms: C_8  and  C_16
REMARK    5  A    between atoms: C_19  and  C_22
REMARK    6  A    between atoms: C_27  and  C_28
REMARK                            x       y       z     vdW  Elec       q    Type
REMARK                         _______ _______ _______ _____ _____    ______ ____
ROOT
ATOM      1  C   UNL     1      -3.355   5.867   0.067  0.00  0.00    -0.024 A 
ATOM      2  C   UNL     1      -2.590   6.565   0.984  0.00  0.00    +0.006 A 
ATOM      3  C   UNL     1      -1.216   6.440   0.978  0.00  0.00    +0.009 A 
ATOM      4  C   UNL     1      -0.599   5.608   0.045  0.00  0.00    -0.017 A 
ATOM      5  C   UNL     1      -1.375   4.911  -0.880  0.00  0.00    +0.009 A 
ATOM      6  C   UNL     1      -2.748   5.040  -0.861  0.00  0.00    +0.006 A 
ENDROOT
BRANCH   1  10
ATOM      7  C   UNL     1      -7.282   4.976  -1.441  0.00  0.00    +0.057 C 
ATOM      8  C   UNL     1      -6.860   6.450  -1.356  0.00  0.00    +0.013 C 
ATOM      9  C   UNL     1      -5.333   6.537  -1.279  0.00  0.00    +0.031 C 
ATOM     10  C   UNL     1      -4.856   6.009   0.079  0.00  0.00    +0.123 C 
ATOM     11  N   UNL     1      -5.468   4.702   0.314  0.00  0.00    -0.272 N 
ATOM     12  C   UNL     1      -6.558   4.219  -0.357  0.00  0.00    +0.138 A 
ATOM     13  N   UNL     1      -6.812   3.039   0.116  0.00  0.00    -0.156 NA
ATOM     14  N   UNL     1      -5.962   2.747   1.039  0.00  0.00    -0.227 N 
ATOM     15  C   UNL     1      -5.114   3.739   1.198  0.00  0.00    +0.345 A 
ATOM     16  O   UNL     1      -4.084   3.788   2.077  0.00  0.00    -0.245 OA
ATOM     17  H   UNL     1      -6.024   1.779   1.558  0.00  0.00    +0.194 HD
BRANCH   7  18
ATOM     18  C   UNL     1      -8.793   4.858  -1.234  0.00  0.00    +0.011 C 
BRANCH  18  20
ATOM     19  C   UNL     1     -10.730   3.280  -1.203  0.00  0.00    +0.004 C 
ATOM     20  C   UNL     1      -9.219   3.399  -1.410  0.00  0.00    -0.003 C 
ENDBRANCH  18  20
ENDBRANCH   7  18
ENDBRANCH   1  10
BRANCH   4  21
ATOM     21  C   UNL     1       0.877   5.470   0.032  0.00  0.00    -0.007 A 
ATOM     22  C   UNL     1       1.687   6.603   0.031  0.00  0.00    +0.009 A 
ATOM     23  C   UNL     1       3.060   6.470   0.019  0.00  0.00    +0.001 A 
ATOM     24  C   UNL     1       3.641   5.213   0.009  0.00  0.00    +0.001 A 
ATOM     25  C   UNL     1       2.854   4.080   0.015  0.00  0.00    +0.012 A 
ATOM     26  C   UNL     1       1.466   4.196   0.021  0.00  0.00    +0.030 A 
BRANCH  26  27
ATOM     27  C   UNL     1       0.616   2.981   0.022  0.00  0.00    +0.207 A 
ATOM     28  N   UNL     1       1.031   1.729   0.012  0.00  0.00    -0.106 NA
ATOM     29  N   UNL     1      -0.010   0.969   0.017  0.00  0.00    -0.021 NA
ATOM     30  N   UNL     1      -1.070   1.699   0.024  0.00  0.00    -0.021 NA
ATOM     31  N   UNL     1      -0.724   2.941   0.033  0.00  0.00    -0.106 NA
ENDBRANCH  26  27
ENDBRANCH   4  21
TORSDOF 5
