REMARK  Name = ZINC00713343
REMARK  7 active torsions:
REMARK  status: ('A' for Active; 'I' for Inactive)
REMARK    1  A    between atoms: C_1  and  C_2
REMARK    2  A    between atoms: C_2  and  C_33
REMARK    3  A    between atoms: C_6  and  C_21
REMARK    4  A    between atoms: C_8  and  C_19
REMARK    5  A    between atoms: C_9  and  N_18
REMARK    6  A    between atoms: N_10  and  C_11
REMARK    7  A    between atoms: C_24  and  N_27
REMARK                            x       y       z     vdW  Elec       q    Type
REMARK                         _______ _______ _______ _____ _____    ______ ____
ROOT
ATOM      1  C   UNL     1      -1.992   0.623  -2.358  0.00  0.00    +0.011 C 
ATOM      2  C   UNL     1      -2.967   1.516  -3.127  0.00  0.00    -0.023 C 
ATOM      3  C   UNL     1      -4.255   1.688  -2.318  0.00  0.00    +0.058 C 
ATOM      4  C   UNL     1      -3.941   2.359  -1.003  0.00  0.00    +0.025 C 
ATOM      5  C   UNL     1      -2.918   3.233  -0.895  0.00  0.00    +0.025 C 
ATOM      6  C   UNL     1      -2.608   3.904   0.420  0.00  0.00    +0.097 C 
ATOM      7  C   UNL     1      -3.772   3.814   1.362  0.00  0.00    +0.077 C 
ATOM      8  C   UNL     1      -4.766   2.910   1.165  0.00  0.00    +0.107 C 
ATOM      9  N   UNL     1      -4.724   2.062   0.082  0.00  0.00    -0.260 N 
ATOM     10  C   UNL     1      -2.110   3.543  -2.002  0.00  0.00    +0.162 C 
ATOM     11  O   UNL     1      -1.207   4.347  -1.876  0.00  0.00    -0.292 OA
ATOM     12  C   UNL     1      -2.341   2.898  -3.341  0.00  0.00    +0.086 C 
ATOM     13  C   UNL     1      -3.292   0.878  -4.480  0.00  0.00    +0.011 C 
ENDROOT
BRANCH   9  14
ATOM     14  C   UNL     1      -5.487   0.888   0.088  0.00  0.00    +0.040 A 
ATOM     15  C   UNL     1      -6.789   0.902  -0.395  0.00  0.00    +0.025 A 
ATOM     16  C   UNL     1      -7.537  -0.259  -0.393  0.00  0.00    +0.022 A 
ATOM     17  C   UNL     1      -6.995  -1.432   0.100  0.00  0.00    +0.041 A 
ATOM     18  C   UNL     1      -5.699  -1.448   0.587  0.00  0.00    +0.022 A 
ATOM     19  C   UNL     1      -4.945  -0.291   0.582  0.00  0.00    +0.025 A 
ATOM     20 CL   UNL     1      -7.940  -2.888   0.108  0.00  0.00    -0.084 Cl
ENDBRANCH   9  14
BRANCH   6  21
ATOM     21  C   UNL     1      -1.412   3.235   1.046  0.00  0.00    -0.035 A 
ATOM     22  C   UNL     1      -1.454   1.887   1.350  0.00  0.00    +0.007 A 
ATOM     23  C   UNL     1      -0.359   1.274   1.928  0.00  0.00    +0.033 A 
ATOM     24  C   UNL     1       0.783   2.007   2.194  0.00  0.00    +0.126 A 
ATOM     25  C   UNL     1       0.827   3.353   1.885  0.00  0.00    +0.033 A 
ATOM     26  C   UNL     1      -0.270   3.967   1.311  0.00  0.00    +0.007 A 
BRANCH  24  27
ATOM     27  N   UNL     1       1.958   1.349   2.808  0.00  0.00    +0.056 N 
ATOM     28  O   UNL     1       1.919   0.162   3.079  0.00  0.00    -0.126 OA
ATOM     29  O   UNL     1       2.964   1.995   3.042  0.00  0.00    -0.126 OA
ENDBRANCH  24  27
ENDBRANCH   6  21
BRANCH   8  30
ATOM     30  N   UNL     1      -5.817   2.842   2.049  0.00  0.00    -0.345 N 
ATOM     31  H   UNL     1      -6.484   2.144   1.957  0.00  0.00    +0.144 HD
ATOM     32  H   UNL     1      -5.891   3.492   2.765  0.00  0.00    +0.144 HD
ENDBRANCH   8  30
BRANCH   7  33
ATOM     33  C   UNL     1      -3.834   4.695   2.490  0.00  0.00    +0.099 C 
ATOM     34  N   UNL     1      -3.884   5.394   3.384  0.00  0.00    -0.191 NA
ENDBRANCH   7  33
TORSDOF 5
