REMARK  Name = ZINC03519725
REMARK  7 active torsions:
REMARK  status: ('A' for Active; 'I' for Inactive)
REMARK    1  A    between atoms: C_5  and  C_7
REMARK    2  A    between atoms: C_7  and  C_8
REMARK    3  A    between atoms: C_11  and  S_14
REMARK    4  A    between atoms: N_12  and  N_13
REMARK    5  A    between atoms: S_14  and  C_15
REMARK    6  A    between atoms: C_15  and  C_16
REMARK    7  A    between atoms: C_18  and  N_26
REMARK                            x       y       z     vdW  Elec       q    Type
REMARK                         _______ _______ _______ _____ _____    ______ ____
ROOT
ATOM      1  C   UNL     1       0.519   0.972   7.726  0.00  0.00    +0.155 A 
ATOM      2  N   UNL     1       0.225   2.164   7.292  0.00  0.00    -0.132 NA
ATOM      3  N   UNL     1      -0.440   2.083   6.194  0.00  0.00    -0.121 NA
ATOM      4  C   UNL     1      -0.607   0.823   5.867  0.00  0.00    +0.209 A 
ATOM      5  N   UNL     1      -0.005   0.074   6.837  0.00  0.00    -0.228 N 
ENDROOT
BRANCH   5   6
ATOM      6  N   UNL     1       0.062  -1.289   6.904  0.00  0.00    -0.295 N 
ATOM      7  H   UNL     1       0.886  -1.634   6.435  0.00  0.00    +0.163 HD
ATOM      8  H   UNL     1       0.032  -1.605   7.862  0.00  0.00    +0.163 HD
ENDBRANCH   5   6
BRANCH   1   9
ATOM      9  C   UNL     1       1.288   0.642   8.979  0.00  0.00    +0.116 C 
BRANCH   9  14
ATOM     10  C   UNL     1      -0.940  -0.885  11.617  0.00  0.00    +0.000 A 
ATOM     11  C   UNL     1      -1.426   0.241  12.255  0.00  0.00    +0.003 A 
ATOM     12  C   UNL     1      -1.035   1.497  11.834  0.00  0.00    +0.038 A 
ATOM     13  C   UNL     1      -0.152   1.629  10.775  0.00  0.00    +0.127 A 
ATOM     14  C   UNL     1       0.331   0.501  10.134  0.00  0.00    -0.005 A 
ATOM     15  C   UNL     1      -0.062  -0.755  10.557  0.00  0.00    +0.007 A 
ATOM     16  F   UNL     1       0.235   2.857  10.366  0.00  0.00    -0.205 F 
ENDBRANCH   9  14
ENDBRANCH   1   9
BRANCH   4  17
ATOM     17  S   UNL     1      -1.453   0.213   4.447  0.00  0.00    -0.080 S 
BRANCH  17  18
ATOM     18  C   UNL     1      -1.955   1.776   3.684  0.00  0.00    +0.116 C 
BRANCH  18  19
ATOM     19  C   UNL     1      -2.718   1.494   2.416  0.00  0.00    +0.007 A 
ATOM     20  C   UNL     1      -4.090   1.340   2.455  0.00  0.00    +0.040 A 
ATOM     21  C   UNL     1      -4.791   1.082   1.292  0.00  0.00    +0.127 A 
ATOM     22  C   UNL     1      -4.120   0.977   0.087  0.00  0.00    +0.042 A 
ATOM     23  C   UNL     1      -2.747   1.129   0.043  0.00  0.00    +0.022 A 
ATOM     24  C   UNL     1      -2.042   1.390   1.208  0.00  0.00    +0.133 A 
ATOM     25  O   UNL     1      -0.689   1.550   1.180  0.00  0.00    -0.466 OA
ATOM     26  C   UNL     1      -0.013   1.086   0.008  0.00  0.00    +0.394 C 
ATOM     27  O   UNL     1      -0.712   1.564  -1.147  0.00  0.00    -0.339 OA
ATOM     28  C   UNL     1      -2.025   1.010  -1.276  0.00  0.00    +0.202 C 
BRANCH  21  29
ATOM     29  N   UNL     1      -6.261   0.918   1.335  0.00  0.00    +0.056 N 
ATOM     30  O   UNL     1      -6.879   0.691   0.311  0.00  0.00    -0.126 OA
ATOM     31  O   UNL     1      -6.853   1.010   2.396  0.00  0.00    -0.126 OA
ENDBRANCH  21  29
ENDBRANCH  18  19
ENDBRANCH  17  18
ENDBRANCH   4  17
TORSDOF 7
