REMARK  Name = ZINC07437127
REMARK  9 active torsions:
REMARK  status: ('A' for Active; 'I' for Inactive)
REMARK    1  A    between atoms: C_1  and  C_2
REMARK    2  A    between atoms: C_5  and  C_9
REMARK    3  A    between atoms: C_6  and  C_8
REMARK    4  A    between atoms: C_9  and  C_10
REMARK    5  A    between atoms: C_10  and  C_11
REMARK    6  A    between atoms: C_11  and  N_12
REMARK    7  A    between atoms: C_13  and  C_15
REMARK    8  A    between atoms: C_15  and  N_16
REMARK    9  A    between atoms: C_19  and  N_27
REMARK                            x       y       z     vdW  Elec       q    Type
REMARK                         _______ _______ _______ _____ _____    ______ ____
ROOT
ATOM      1  N   UNL     1      -0.067   1.120  -2.437  0.00  0.00    -0.314 N 
ATOM      2  C   UNL     1      -0.543   1.446  -3.655  0.00  0.00    +0.231 C 
ATOM      3  O   UNL     1      -1.540   2.130  -3.753  0.00  0.00    -0.274 OA
ATOM      4  H   UNL     1       0.730   0.573  -2.358  0.00  0.00    +0.149 HD
ENDROOT
BRANCH   1   5
ATOM      5  C   UNL     1      -0.753   1.593  -1.232  0.00  0.00    +0.104 C 
BRANCH   5   6
ATOM      6  C   UNL     1      -0.013   1.086   0.008  0.00  0.00    +0.023 C 
BRANCH   6   7
ATOM      7  C   UNL     1      -0.729   1.579   1.267  0.00  0.00    +0.037 C 
BRANCH   7  12
ATOM      8  C   UNL     1       2.067  -0.336   5.947  0.00  0.00    +0.044 C 
ATOM      9  C   UNL     1       1.338   0.164   4.727  0.00  0.00    -0.050 A 
ATOM     10  C   UNL     1       0.258  -0.542   4.230  0.00  0.00    +0.003 A 
ATOM     11  C   UNL     1      -0.411  -0.084   3.110  0.00  0.00    +0.004 A 
ATOM     12  C   UNL     1       0.000   1.080   2.488  0.00  0.00    -0.044 A 
ATOM     13  C   UNL     1       1.083   1.783   2.982  0.00  0.00    -0.047 A 
ATOM     14  C   UNL     1       1.748   1.328   4.105  0.00  0.00    +0.007 A 
ATOM     15  C   UNL     1       1.534   3.049   2.300  0.00  0.00    +0.044 C 
ENDBRANCH   7  12
ENDBRANCH   6   7
ENDBRANCH   5   6
ENDBRANCH   1   5
BRANCH   2  16
ATOM     16  C   UNL     1       0.162   0.960  -4.895  0.00  0.00    +0.209 C 
BRANCH  16  17
ATOM     17  N   UNL     1      -0.547   1.445  -6.082  0.00  0.00    -0.256 N 
ATOM     18  C   UNL     1      -1.571   0.683  -6.660  0.00  0.00    +0.081 A 
ATOM     19  C   UNL     1      -2.156  -0.361  -5.961  0.00  0.00    +0.060 A 
ATOM     20  C   UNL     1      -3.169  -1.099  -6.547  0.00  0.00    +0.128 A 
ATOM     21  C   UNL     1      -3.600  -0.794  -7.825  0.00  0.00    +0.036 A 
ATOM     22  C   UNL     1      -3.023   0.250  -8.526  0.00  0.00    +0.050 A 
ATOM     23  C   UNL     1      -2.010   0.992  -7.945  0.00  0.00    +0.143 A 
ATOM     24  O   UNL     1      -1.432   2.022  -8.619  0.00  0.00    -0.481 OA
ATOM     25  C   UNL     1      -0.985   3.132  -7.837  0.00  0.00    +0.325 C 
ATOM     26  C   UNL     1      -0.219   2.632  -6.638  0.00  0.00    +0.258 C 
ATOM     27  O   UNL     1       0.687   3.292  -6.175  0.00  0.00    -0.271 OA
BRANCH  20  28
ATOM     28  N   UNL     1      -3.791  -2.218  -5.805  0.00  0.00    +0.056 N 
ATOM     29  O   UNL     1      -4.683  -2.869  -6.320  0.00  0.00    -0.126 OA
ATOM     30  O   UNL     1      -3.412  -2.488  -4.679  0.00  0.00    -0.126 OA
ENDBRANCH  20  28
ENDBRANCH  16  17
ENDBRANCH   2  16
TORSDOF 7
