REMARK  Name = ZINC35375092
REMARK  11 active torsions:
REMARK  status: ('A' for Active; 'I' for Inactive)
REMARK    1  A    between atoms: C_1  and  C_2
REMARK    2  A    between atoms: C_2  and  C_3
REMARK    3  A    between atoms: C_3  and  C_5
REMARK    4  A    between atoms: C_3  and  C_6
REMARK    5  A    between atoms: C_6  and  N_7
REMARK    6  A    between atoms: C_8  and  C_10
REMARK    7  A    between atoms: N_23  and  C_24
REMARK    8  A    between atoms: C_27  and  C_30
REMARK    9  A    between atoms: C_30  and  O_32
REMARK   10  A    between atoms: O_32  and  C_33
REMARK   11  A    between atoms: C_33  and  C_34
REMARK                            x       y       z     vdW  Elec       q    Type
REMARK                         _______ _______ _______ _____ _____    ______ ____
ROOT
ATOM      1  C   UNL     1       2.750  -4.231  -4.455  0.00  0.00    +0.028 C 
ATOM      2  C   UNL     1       1.508  -4.141  -5.391  0.00  0.00    +0.061 C 
ATOM      3  S   UNL     1       1.818  -5.628  -6.442  0.00  0.00    -0.174 S 
ATOM      4  C   UNL     1       2.959  -6.516  -5.311  0.00  0.00    -0.016 C 
ATOM      5  N   UNL     1       2.983  -5.649  -4.115  0.00  0.00    +0.397 N 
ATOM      6  C   UNL     1       2.391  -7.887  -4.978  0.00  0.00    +0.017 C 
ATOM      7  C   UNL     1       3.334  -8.611  -4.010  0.00  0.00    +0.109 C 
ATOM      8  N   UNL     1       4.687  -8.614  -4.585  0.00  0.00    -0.285 N 
ATOM      9  C   UNL     1       5.291  -7.335  -4.981  0.00  0.00    +0.109 C 
ATOM     10  C   UNL     1       4.338  -6.617  -5.944  0.00  0.00    +0.017 C 
ATOM     11  C   UNL     1       5.361  -9.770  -4.746  0.00  0.00    +0.306 C 
ATOM     12  O   UNL     1       6.437  -9.772  -5.312  0.00  0.00    -0.252 OA
ATOM     13  N   UNL     1       4.842 -10.923  -4.280  0.00  0.00    -0.269 N 
ATOM     14  H   UNL     1       3.884  -5.736  -3.667  0.00  0.00    -0.083 HD
ATOM     15  H   UNL     1       3.940 -10.940  -3.922  0.00  0.00    +0.156 HD
ATOM     16  H   UNL     1       2.268  -5.954  -3.471  0.00  0.00    -0.083 HD
ENDROOT
BRANCH  13  17
ATOM     17  C   UNL     1       5.600 -12.092  -4.313  0.00  0.00    +0.035 A 
ATOM     18  C   UNL     1       6.978 -12.031  -4.127  0.00  0.00    +0.024 A 
ATOM     19  C   UNL     1       7.730 -13.184  -4.159  0.00  0.00    +0.017 A 
ATOM     20  C   UNL     1       7.108 -14.416  -4.379  0.00  0.00    +0.059 A 
ATOM     21  C   UNL     1       5.723 -14.474  -4.566  0.00  0.00    +0.017 A 
ATOM     22  C   UNL     1       4.977 -13.318  -4.527  0.00  0.00    +0.024 A 
BRANCH  20  23
ATOM     23  C   UNL     1       7.910 -15.653  -4.415  0.00  0.00    +0.339 C 
ATOM     24  O   UNL     1       9.113 -15.602  -4.253  0.00  0.00    -0.245 OA
BRANCH  23  25
ATOM     25  O   UNL     1       7.309 -16.840  -4.627  0.00  0.00    -0.461 OA
BRANCH  25  26
ATOM     26  C   UNL     1       8.147 -17.997  -4.649  0.00  0.00    +0.229 C 
ATOM     27  C   UNL     1       7.293 -19.241  -4.901  0.00  0.00    +0.048 C 
ENDBRANCH  25  26
ENDBRANCH  23  25
ENDBRANCH  20  23
ENDBRANCH  13  17
BRANCH   1  29
ATOM     28  N   UNL     1       2.260  -2.119  -3.265  0.00  0.00    -0.316 N 
ATOM     29  C   UNL     1       2.494  -3.444  -3.196  0.00  0.00    +0.200 C 
ATOM     30  O   UNL     1       2.497  -4.003  -2.119  0.00  0.00    -0.278 OA
ATOM     31  H   UNL     1       2.257  -1.671  -4.126  0.00  0.00    +0.149 HD
BRANCH  28  32
ATOM     32  C   UNL     1       2.010  -1.353  -2.041  0.00  0.00    +0.107 C 
BRANCH  32  33
ATOM     33  C   UNL     1       1.776   0.116  -2.397  0.00  0.00    +0.003 C 
ATOM     34  C   UNL     1       0.494   0.243  -3.223  0.00  0.00    +0.009 C 
BRANCH  33  36
ATOM     35  C   UNL     1       1.531   2.421  -1.466  0.00  0.00    +0.004 C 
ATOM     36  C   UNL     1       1.640   0.937  -1.113  0.00  0.00    +0.001 C 
ENDBRANCH  33  36
ENDBRANCH  32  33
ENDBRANCH  28  32
ENDBRANCH   1  29
TORSDOF 8
