REMARK  Name = ZINC63265464
REMARK  10 active torsions:
REMARK  status: ('A' for Active; 'I' for Inactive)
REMARK    1  A    between atoms: C_1  and  C_2
REMARK    2  A    between atoms: C_4  and  C_15
REMARK    3  A    between atoms: C_5  and  C_14
REMARK    4  A    between atoms: N_6  and  C_7
REMARK    5  A    between atoms: C_16  and  C_17
REMARK    6  A    between atoms: C_16  and  C_19
REMARK    7  A    between atoms: N_21  and  N_22
REMARK    8  A    between atoms: N_25  and  C_26
REMARK    9  A    between atoms: C_26  and  C_27
REMARK   10  A    between atoms: C_26  and  C_28
REMARK                            x       y       z     vdW  Elec       q    Type
REMARK                         _______ _______ _______ _____ _____    ______ ____
ROOT
ATOM      1  C   UNL     1       0.285  -3.357  -1.470  0.00  0.00    +0.033 C 
ATOM      2  C   UNL     1      -0.070  -3.241  -2.799  0.00  0.00    +0.115 C 
ENDROOT
BRANCH   1   6
ATOM      3  C   UNL     1       3.216   0.610  -0.375  0.00  0.00    +0.064 C 
ATOM      4  C   UNL     1       2.185  -0.488  -0.316  0.00  0.00    +0.022 A 
ATOM      5  C   UNL     1       1.954  -1.391  -1.284  0.00  0.00    +0.031 A 
ATOM      6  C   UNL     1       0.872  -2.258  -0.793  0.00  0.00    -0.003 A 
ATOM      7  C   UNL     1       0.543  -1.779   0.465  0.00  0.00    +0.028 A 
ATOM      8  N   UNL     1       1.341  -0.727   0.733  0.00  0.00    -0.315 N 
ATOM      9  C   UNL     1      -0.518  -2.341   1.375  0.00  0.00    +0.064 C 
BRANCH   8  10
ATOM     10  C   UNL     1       1.309   0.020   1.919  0.00  0.00    +0.082 A 
ATOM     11  C   UNL     1       0.474   1.124   2.023  0.00  0.00    +0.029 A 
ATOM     12  C   UNL     1       0.443   1.858   3.193  0.00  0.00    +0.002 A 
ATOM     13  C   UNL     1       1.243   1.494   4.261  0.00  0.00    +0.003 A 
ATOM     14  C   UNL     1       2.077   0.396   4.163  0.00  0.00    +0.040 A 
ATOM     15  C   UNL     1       2.108  -0.347   2.996  0.00  0.00    +0.147 A 
ATOM     16  F   UNL     1       2.918  -1.424   2.901  0.00  0.00    -0.203 F 
ENDBRANCH   8  10
ENDBRANCH   1   6
BRANCH   2  17
ATOM     17  C   UNL     1      -0.091  -1.919  -3.441  0.00  0.00    +0.270 C 
ATOM     18  O   UNL     1       0.082  -0.916  -2.774  0.00  0.00    -0.268 OA
ATOM     19  N   UNL     1      -0.300  -1.818  -4.768  0.00  0.00    -0.229 N 
ATOM     20  H   UNL     1      -0.438  -2.617  -5.300  0.00  0.00    +0.173 HD
BRANCH  19  21
ATOM     21  N   UNL     1      -0.320  -0.557  -5.380  0.00  0.00    -0.218 N 
ATOM     22  C   UNL     1      -0.530  -0.456  -6.708  0.00  0.00    +0.316 C 
ATOM     23  O   UNL     1      -0.547   0.637  -7.239  0.00  0.00    -0.251 OA
ATOM     24  N   UNL     1      -0.721  -1.567  -7.447  0.00  0.00    -0.296 N 
ATOM     25  H   UNL     1      -0.183   0.242  -4.848  0.00  0.00    +0.174 HD
ATOM     26  H   UNL     1      -0.707  -2.440  -7.023  0.00  0.00    +0.151 HD
BRANCH  24  27
ATOM     27  C   UNL     1      -0.949  -1.457  -8.889  0.00  0.00    +0.068 C 
ATOM     28  C   UNL     1       0.397  -1.383  -9.614  0.00  0.00    +0.027 C 
ATOM     29  C   UNL     1      -1.725  -2.682  -9.378  0.00  0.00    +0.027 C 
ENDBRANCH  24  27
ENDBRANCH  19  21
ENDBRANCH   2  17
BRANCH   2  30
ATOM     30  C   UNL     1      -0.418  -4.408  -3.552  0.00  0.00    +0.104 C 
ATOM     31  N   UNL     1      -0.694  -5.334  -4.150  0.00  0.00    -0.191 NA
ENDBRANCH   2  30
TORSDOF 6
