REMARK  Name = ZINC59803901
REMARK  8 active torsions:
REMARK  status: ('A' for Active; 'I' for Inactive)
REMARK    1  A    between atoms: C_4  and  C_7
REMARK    2  A    between atoms: C_7  and  S_8
REMARK    3  A    between atoms: S_8  and  C_9
REMARK    4  A    between atoms: C_15  and  C_17
REMARK    5  A    between atoms: C_17  and  S_18
REMARK    6  A    between atoms: S_18  and  C_19
REMARK    7  A    between atoms: C_22  and  C_25
REMARK    8  A    between atoms: N_23  and  N_24
REMARK                            x       y       z     vdW  Elec       q    Type
REMARK                         _______ _______ _______ _____ _____    ______ ____
ROOT
ATOM      1  C   UNL     1       5.786  -1.866   1.477  0.00  0.00    +0.160 A 
ATOM      2  N   UNL     1       6.433  -2.222   0.377  0.00  0.00    -0.133 NA
ATOM      3  N   UNL     1       7.532  -2.839   0.420  0.00  0.00    -0.125 NA
ATOM      4  C   UNL     1       8.107  -3.167   1.565  0.00  0.00    +0.189 A 
ATOM      5  S   UNL     1       6.913  -2.496   2.718  0.00  0.00    -0.024 S 
ATOM      6  N   UNL     1       9.304  -3.839   1.806  0.00  0.00    -0.263 N 
ATOM      7  C   UNL     1      10.061  -4.258   0.773  0.00  0.00    +0.229 C 
ATOM      8  O   UNL     1       9.701  -4.049  -0.367  0.00  0.00    -0.275 OA
ATOM      9  H   UNL     1       9.591  -4.006   2.717  0.00  0.00    +0.157 HD
ENDROOT
BRANCH   1  10
ATOM     10  S   UNL     1       4.257  -1.011   1.666  0.00  0.00    -0.092 S 
BRANCH  10  11
ATOM     11  C   UNL     1       3.711  -0.707  -0.038  0.00  0.00    +0.111 C 
BRANCH  11  15
ATOM     12  C   UNL     1      -0.017   1.378   0.010  0.00  0.00    +0.000 A 
ATOM     13  C   UNL     1       1.171   2.086   0.002  0.00  0.00    +0.000 A 
ATOM     14  C   UNL     1       2.377   1.411  -0.013  0.00  0.00    +0.004 A 
ATOM     15  C   UNL     1       2.396   0.029  -0.020  0.00  0.00    -0.037 A 
ATOM     16  C   UNL     1       1.208  -0.679  -0.012  0.00  0.00    +0.004 A 
ATOM     17  C   UNL     1       0.002  -0.004   0.002  0.00  0.00    +0.000 A 
ENDBRANCH  11  15
ENDBRANCH  10  11
ENDBRANCH   1  10
BRANCH   7  18
ATOM     18  C   UNL     1      11.355  -4.984   1.033  0.00  0.00    +0.173 C 
BRANCH  18  19
ATOM     19  S   UNL     1      12.136  -5.413  -0.547  0.00  0.00    -0.075 S 
BRANCH  19  20
ATOM     20  C   UNL     1      13.617  -6.245  -0.079  0.00  0.00    +0.209 A 
ATOM     21  N   UNL     1      14.021  -6.486   1.148  0.00  0.00    -0.121 NA
ATOM     22  N   UNL     1      15.143  -7.113   1.128  0.00  0.00    -0.127 NA
ATOM     23  C   UNL     1      15.524  -7.311  -0.112  0.00  0.00    +0.182 A 
ATOM     24  N   UNL     1      14.556  -6.766  -0.924  0.00  0.00    -0.224 N 
BRANCH  23  25
ATOM     25  C   UNL     1      16.757  -7.996  -0.554  0.00  0.00    +0.021 A 
ATOM     26  C   UNL     1      17.199  -7.863  -1.871  0.00  0.00    +0.014 A 
ATOM     27  C   UNL     1      18.351  -8.503  -2.278  0.00  0.00    +0.039 A 
ATOM     28  C   UNL     1      19.069  -9.279  -1.381  0.00  0.00    +0.123 A 
ATOM     29  C   UNL     1      18.635  -9.415  -0.072  0.00  0.00    +0.039 A 
ATOM     30  C   UNL     1      17.487  -8.774   0.346  0.00  0.00    +0.014 A 
ATOM     31  F   UNL     1      20.196  -9.904  -1.785  0.00  0.00    -0.205 F 
ENDBRANCH  23  25
BRANCH  24  32
ATOM     32  N   UNL     1      14.538  -6.748  -2.289  0.00  0.00    -0.295 N 
ATOM     33  H   UNL     1      14.994  -5.922  -2.646  0.00  0.00    +0.163 HD
ATOM     34  H   UNL     1      14.957  -7.584  -2.668  0.00  0.00    +0.163 HD
ENDBRANCH  24  32
ENDBRANCH  19  20
ENDBRANCH  18  19
ENDBRANCH   7  18
TORSDOF 8
