REMARK  Name = ZINC08889065
REMARK  8 active torsions:
REMARK  status: ('A' for Active; 'I' for Inactive)
REMARK    1  A    between atoms: C_3  and  C_6
REMARK    2  A    between atoms: N_8  and  N_9
REMARK    3  A    between atoms: C_10  and  C_12
REMARK    4  A    between atoms: C_12  and  O_13
REMARK    5  A    between atoms: O_13  and  C_14
REMARK    6  A    between atoms: C_14  and  C_16
REMARK    7  A    between atoms: C_16  and  C_17
REMARK    8  A    between atoms: C_17  and  C_18
REMARK                            x       y       z     vdW  Elec       q    Type
REMARK                         _______ _______ _______ _____ _____    ______ ____
ROOT
ATOM      1  C   UNL     1       6.013   1.397  -0.048  0.00  0.00    +0.308 C 
ATOM      2  O   UNL     1       6.155   2.597  -0.043  0.00  0.00    -0.251 OA
ENDROOT
BRANCH   1   3
ATOM      3  O   UNL     1       4.780   0.868  -0.039  0.00  0.00    -0.455 OA
BRANCH   3   4
ATOM      4  C   UNL     1       3.663   1.796  -0.023  0.00  0.00    +0.329 C 
BRANCH   4   6
ATOM      5  N   UNL     1       1.193   1.683  -0.000  0.00  0.00    -0.231 N 
ATOM      6  C   UNL     1       2.369   1.025  -0.015  0.00  0.00    +0.267 C 
ATOM      7  O   UNL     1       2.385  -0.188  -0.022  0.00  0.00    -0.271 OA
ATOM      8  H   UNL     1       1.179   2.653   0.005  0.00  0.00    +0.173 HD
BRANCH   5  11
ATOM      9  C   UNL     1      -1.187   1.624   0.017  0.00  0.00    +0.267 C 
ATOM     10  O   UNL     1      -1.204   2.841   0.023  0.00  0.00    -0.268 OA
ATOM     11  N   UNL     1      -0.011   0.966   0.007  0.00  0.00    -0.230 N 
ATOM     12  H   UNL     1       0.002  -0.004   0.002  0.00  0.00    +0.173 HD
BRANCH   9  15
ATOM     13  C   UNL     1      -4.756   0.419   0.028  0.00  0.00    +0.008 A 
ATOM     14  C   UNL     1      -3.748   1.351   0.033  0.00  0.00    +0.021 A 
ATOM     15  C   UNL     1      -2.447   0.874   0.018  0.00  0.00    +0.075 A 
ATOM     16  S   UNL     1      -2.704  -0.892   0.011  0.00  0.00    -0.092 S 
ATOM     17  C   UNL     1      -4.438  -0.902   0.019  0.00  0.00    +0.046 A 
ENDBRANCH   9  15
ENDBRANCH   5  11
ENDBRANCH   4   6
ENDBRANCH   3   4
ENDBRANCH   1   3
BRANCH   1  18
ATOM     18  C   UNL     1       7.220   0.496  -0.064  0.00  0.00    +0.128 C 
BRANCH  18  19
ATOM     19  C   UNL     1       8.492   1.347  -0.072  0.00  0.00    +0.085 C 
BRANCH  19  20
ATOM     20  C   UNL     1       9.700   0.445  -0.088  0.00  0.00    +0.111 A 
ATOM     21  N   UNL     1      10.941   0.994  -0.097  0.00  0.00    -0.310 N 
ATOM     22  H   UNL     1      11.034   1.959  -0.093  0.00  0.00    +0.170 HD
ATOM     23  C   UNL     1      12.046   0.225  -0.112  0.00  0.00    +0.260 A 
ATOM     24  O   UNL     1      13.155   0.733  -0.120  0.00  0.00    -0.267 OA
ATOM     25  C   UNL     1      11.898  -1.200  -0.118  0.00  0.00    +0.075 A 
ATOM     26  C   UNL     1      12.945  -2.222  -0.134  0.00  0.00    -0.023 A 
ATOM     27  C   UNL     1      12.542  -3.510  -0.137  0.00  0.00    -0.004 A 
ATOM     28  S   UNL     1      10.771  -3.438  -0.118  0.00  0.00    -0.073 S 
ATOM     29  C   UNL     1      10.577  -1.674  -0.107  0.00  0.00    +0.116 A 
ATOM     30  N   UNL     1       9.533  -0.851  -0.088  0.00  0.00    -0.227 NA
ATOM     31  C   UNL     1      13.410  -4.732  -0.152  0.00  0.00    +0.043 C 
ATOM     32  C   UNL     1      14.834  -4.310  -0.539  0.00  0.00    +0.005 C 
ATOM     33  C   UNL     1      15.231  -3.092   0.301  0.00  0.00    +0.005 C 
ATOM     34  C   UNL     1      14.429  -1.869  -0.146  0.00  0.00    +0.037 C 
ENDBRANCH  19  20
ENDBRANCH  18  19
ENDBRANCH   1  18
TORSDOF 8
