REMARK  Name = ZINC16270115
REMARK  6 active torsions:
REMARK  status: ('A' for Active; 'I' for Inactive)
REMARK    1  A    between atoms: C_1  and  N_2
REMARK    2  A    between atoms: C_6  and  C_7
REMARK    3  A    between atoms: N_9  and  N_10
REMARK    4  A    between atoms: C_11  and  C_13
REMARK    5  A    between atoms: C_13  and  C_14
REMARK    6  A    between atoms: C_14  and  C_15
REMARK                            x       y       z     vdW  Elec       q    Type
REMARK                         _______ _______ _______ _____ _____    ______ ____
ROOT
ATOM      1  C   UNL     1      -5.986  -1.764  -0.000  0.00  0.00    +0.105 C 
ENDROOT
BRANCH   1   3
ATOM      2  N   UNL     1      -3.550  -1.331  -0.009  0.00  0.00    -0.234 N 
ATOM      3  C   UNL     1      -4.801  -0.839  -0.106  0.00  0.00    +0.229 C 
ATOM      4  O   UNL     1      -4.973   0.349  -0.279  0.00  0.00    -0.274 OA
ATOM      5  H   UNL     1      -3.413  -2.282   0.129  0.00  0.00    +0.173 HD
BRANCH   2   8
ATOM      6  C   UNL     1      -1.198  -0.964  -0.011  0.00  0.00    +0.277 C 
ATOM      7  O   UNL     1      -1.022  -2.165   0.069  0.00  0.00    -0.267 OA
ATOM      8  N   UNL     1      -2.449  -0.471  -0.107  0.00  0.00    -0.229 N 
ATOM      9  H   UNL     1      -2.586   0.479  -0.245  0.00  0.00    +0.173 HD
BRANCH   6  15
ATOM     10  C   UNL     1       1.788  -1.789  -0.012  0.00  0.00    +0.149 C 
ATOM     11  N   UNL     1       1.278  -0.416  -0.004  0.00  0.00    -0.345 N 
ATOM     12  C   UNL     1       2.036   0.709   0.007  0.00  0.00    +0.101 A 
ATOM     13  C   UNL     1       1.217   1.788   0.018  0.00  0.00    +0.036 A 
ATOM     14  C   UNL     1      -0.103   1.326   0.012  0.00  0.00    +0.047 A 
ATOM     15  C   UNL     1      -0.049  -0.052  -0.001  0.00  0.00    +0.107 A 
ATOM     16 BR   UNL     1       1.763   3.599   0.035  0.00  0.00    -0.049 Br
ENDBRANCH   6  15
ENDBRANCH   2   8
ENDBRANCH   1   3
BRANCH   1  17
ATOM     17  C   UNL     1      -7.277  -0.957  -0.143  0.00  0.00    +0.083 C 
BRANCH  17  18
ATOM     18  C   UNL     1      -8.462  -1.883  -0.037  0.00  0.00    +0.111 A 
ATOM     19  N   UNL     1      -9.717  -1.373  -0.136  0.00  0.00    -0.310 N 
ATOM     20  H   UNL     1      -9.834  -0.420  -0.274  0.00  0.00    +0.170 HD
ATOM     21  C   UNL     1     -10.803  -2.164  -0.047  0.00  0.00    +0.260 A 
ATOM     22  O   UNL     1     -11.923  -1.692  -0.138  0.00  0.00    -0.267 OA
ATOM     23  C   UNL     1     -10.620  -3.571   0.156  0.00  0.00    +0.075 A 
ATOM     24  C   UNL     1     -11.640  -4.611   0.283  0.00  0.00    -0.023 A 
ATOM     25  C   UNL     1     -11.206  -5.875   0.471  0.00  0.00    -0.004 A 
ATOM     26  S   UNL     1      -9.438  -5.755   0.491  0.00  0.00    -0.073 S 
ATOM     27  C   UNL     1      -9.287  -4.004   0.246  0.00  0.00    +0.116 A 
ATOM     28  N   UNL     1      -8.263  -3.161   0.144  0.00  0.00    -0.227 NA
ATOM     29  C   UNL     1     -12.043  -7.108   0.629  0.00  0.00    +0.043 C 
ATOM     30  C   UNL     1     -13.489  -6.678   0.916  0.00  0.00    +0.005 C 
ATOM     31  C   UNL     1     -13.890  -5.597  -0.092  0.00  0.00    +0.005 C 
ATOM     32  C   UNL     1     -13.133  -4.302   0.207  0.00  0.00    +0.037 C 
ENDBRANCH  17  18
ENDBRANCH   1  17
TORSDOF 5
