REMARK  Name = ZINC44392177
REMARK  6 active torsions:
REMARK  status: ('A' for Active; 'I' for Inactive)
REMARK    1  A    between atoms: C_1  and  C_2
REMARK    2  A    between atoms: C_2  and  C_4
REMARK    3  A    between atoms: C_2  and  N_16
REMARK    4  A    between atoms: N_6  and  C_7
REMARK    5  A    between atoms: C_12  and  N_13
REMARK    6  A    between atoms: C_21  and  C_23
REMARK                            x       y       z     vdW  Elec       q    Type
REMARK                         _______ _______ _______ _____ _____    ______ ____
ROOT
ATOM      1  C   UNL     1       0.008   1.562   0.029  0.00  0.00    +0.043 C 
ATOM      2  C   UNL     1       0.010   0.032   0.009  0.00  0.00    +0.194 C 
ENDROOT
BRANCH   2   3
ATOM      3  N   UNL     1       0.692  -0.440  -1.199  0.00  0.00    -0.217 N 
ATOM      4  C   UNL     1       0.014  -1.198  -2.081  0.00  0.00    +0.268 A 
ATOM      5  O   UNL     1      -1.154  -1.486  -1.873  0.00  0.00    -0.266 OA
ATOM      6  C   UNL     1       0.663  -1.656  -3.248  0.00  0.00    +0.074 A 
ATOM      7  C   UNL     1       1.967  -1.306  -3.433  0.00  0.00    +0.035 A 
ATOM      8  C   UNL     1       2.592  -0.506  -2.448  0.00  0.00    +0.092 A 
ATOM      9  N   UNL     1       1.919  -0.114  -1.391  0.00  0.00    -0.168 NA
BRANCH   8  10
ATOM     10  C   UNL     1       4.010  -0.103  -2.612  0.00  0.00    +0.002 A 
ATOM     11  C   UNL     1       4.631   0.680  -1.641  0.00  0.00    +0.013 A 
ATOM     12  C   UNL     1       5.950   1.052  -1.798  0.00  0.00    +0.039 A 
ATOM     13  C   UNL     1       6.657   0.649  -2.920  0.00  0.00    +0.123 A 
ATOM     14  C   UNL     1       6.043  -0.130  -3.888  0.00  0.00    +0.039 A 
ATOM     15  C   UNL     1       4.727  -0.512  -3.735  0.00  0.00    +0.013 A 
ATOM     16  F   UNL     1       7.949   1.016  -3.070  0.00  0.00    -0.205 F 
ENDBRANCH   8  10
ENDBRANCH   2   3
BRANCH   2  17
ATOM     17  C   UNL     1       0.731  -0.485   1.227  0.00  0.00    +0.242 C 
ATOM     18  O   UNL     1       1.718  -1.179   1.099  0.00  0.00    -0.273 OA
ATOM     19  N   UNL     1       0.280  -0.176   2.459  0.00  0.00    -0.282 N 
ATOM     20  H   UNL     1      -0.469   0.431   2.563  0.00  0.00    +0.155 HD
BRANCH  19  21
ATOM     21  C   UNL     1       0.892  -0.732   3.588  0.00  0.00    +0.064 A 
ATOM     22  C   UNL     1       2.263  -0.956   3.597  0.00  0.00    +0.025 A 
ATOM     23  C   UNL     1       2.864  -1.504   4.712  0.00  0.00    +0.002 A 
ATOM     24  C   UNL     1       2.103  -1.830   5.820  0.00  0.00    +0.002 A 
ATOM     25  C   UNL     1       0.739  -1.609   5.814  0.00  0.00    +0.034 A 
ATOM     26  C   UNL     1       0.132  -1.055   4.704  0.00  0.00    +0.147 A 
BRANCH  26  27
ATOM     27  N   UNL     1      -1.328  -0.811   4.701  0.00  0.00    +0.058 N 
ATOM     28  O   UNL     1      -1.974  -1.001   5.705  0.00  0.00    -0.126 OA
ATOM     29  O   UNL     1      -1.874  -0.423   3.695  0.00  0.00    -0.126 OA
ENDBRANCH  26  27
ENDBRANCH  19  21
ENDBRANCH   2  17
TORSDOF 5
