REMARK  Name = ZINC59166677
REMARK  8 active torsions:
REMARK  status: ('A' for Active; 'I' for Inactive)
REMARK    1  A    between atoms: C_1  and  C_2
REMARK    2  A    between atoms: C_2  and  C_4
REMARK    3  A    between atoms: C_2  and  S_23
REMARK    4  A    between atoms: N_6  and  N_7
REMARK    5  A    between atoms: C_8  and  C_9
REMARK    6  A    between atoms: C_12  and  C_14
REMARK    7  A    between atoms: C_17  and  N_20
REMARK    8  A    between atoms: S_23  and  C_24
REMARK                            x       y       z     vdW  Elec       q    Type
REMARK                         _______ _______ _______ _____ _____    ______ ____
ROOT
ATOM      1  N   UNL     1       2.654  -1.016  -2.311  0.00  0.00    -0.185 NA
ATOM      2  C   UNL     1       3.977  -1.125  -2.322  0.00  0.00    +0.176 C 
ENDROOT
BRANCH   2   3
ATOM      3  C   UNL     1       4.627  -1.573  -3.465  0.00  0.00    +0.148 A 
ATOM      4  C   UNL     1       6.078  -1.751  -3.629  0.00  0.00    +0.051 A 
ATOM      5  C   UNL     1       6.266  -2.203  -4.895  0.00  0.00    +0.050 A 
ATOM      6  C   UNL     1       4.991  -2.307  -5.505  0.00  0.00    +0.136 A 
ATOM      7  O   UNL     1       4.044  -1.931  -4.629  0.00  0.00    -0.454 OA
BRANCH   6   8
ATOM      8  C   UNL     1       4.753  -2.744  -6.832  0.00  0.00    +0.017 A 
ATOM      9  C   UNL     1       5.828  -3.124  -7.658  0.00  0.00    +0.014 A 
ATOM     10  C   UNL     1       5.586  -3.543  -8.935  0.00  0.00    +0.033 A 
ATOM     11  C   UNL     1       4.287  -3.596  -9.419  0.00  0.00    +0.126 A 
ATOM     12  C   UNL     1       3.220  -3.224  -8.615  0.00  0.00    +0.033 A 
ATOM     13  C   UNL     1       3.438  -2.806  -7.332  0.00  0.00    +0.014 A 
BRANCH  11  14
ATOM     14  N   UNL     1       4.037  -4.052 -10.806  0.00  0.00    +0.056 N 
ATOM     15  O   UNL     1       5.046  -4.406 -11.574  0.00  0.00    -0.126 OA
ATOM     16  O   UNL     1       2.806  -4.104 -11.270  0.00  0.00    -0.126 OA
ENDBRANCH  11  14
ENDBRANCH   6   8
ENDBRANCH   2   3
BRANCH   1  19
ATOM     17  C   UNL     1       0.707  -0.490  -1.238  0.00  0.00    +0.245 C 
ATOM     18  O   UNL     1       0.069  -0.781  -2.221  0.00  0.00    -0.273 OA
ATOM     19  N   UNL     1       2.051  -0.601  -1.250  0.00  0.00    -0.206 N 
ATOM     20  H   UNL     1       2.563  -0.367  -0.460  0.00  0.00    +0.177 HD
BRANCH  17  22
ATOM     21  C   UNL     1      -0.019   1.526   0.010  0.00  0.00    +0.029 C 
ATOM     22  C   UNL     1       0.002  -0.004   0.002  0.00  0.00    +0.137 C 
BRANCH  22  23
ATOM     23  S   UNL     1      -1.700  -0.632   0.015  0.00  0.00    -0.093 S 
BRANCH  23  24
ATOM     24  C   UNL     1      -2.335  -0.110   1.573  0.00  0.00    +0.098 A 
ATOM     25  C   UNL     1      -3.642  -0.431   1.928  0.00  0.00    +0.035 A 
ATOM     26  C   UNL     1      -4.127  -0.015   3.154  0.00  0.00    +0.004 A 
ATOM     27  C   UNL     1      -3.287   0.711   3.988  0.00  0.00    +0.020 A 
ATOM     28  C   UNL     1      -2.001   0.994   3.573  0.00  0.00    +0.112 A 
ATOM     29  N   UNL     1      -1.563   0.580   2.399  0.00  0.00    -0.249 NA
ENDBRANCH  23  24
ENDBRANCH  22  23
ENDBRANCH  17  22
ENDBRANCH   1  19
TORSDOF 7
