REMARK  Name = ZINC05400626
REMARK  6 active torsions:
REMARK  status: ('A' for Active; 'I' for Inactive)
REMARK    1  A    between atoms: C_1  and  C_2
REMARK    2  A    between atoms: C_5  and  N_9
REMARK    3  A    between atoms: C_10  and  C_12
REMARK    4  A    between atoms: C_12  and  N_13
REMARK    5  A    between atoms: C_18  and  C_20
REMARK    6  A    between atoms: C_23  and  N_26
REMARK                            x       y       z     vdW  Elec       q    Type
REMARK                         _______ _______ _______ _____ _____    ______ ____
ROOT
ATOM      1  N   UNL     1      -0.159   3.786   0.024  0.00  0.00    -0.220 N 
ATOM      2  C   UNL     1       1.055   3.204   0.018  0.00  0.00    +0.268 A 
ATOM      3  O   UNL     1       2.065   3.889   0.019  0.00  0.00    -0.266 OA
ATOM      4  C   UNL     1       1.151   1.795   0.010  0.00  0.00    +0.074 A 
ATOM      5  C   UNL     1      -0.008   1.076   0.009  0.00  0.00    +0.035 A 
ATOM      6  C   UNL     1      -1.234   1.782   0.010  0.00  0.00    +0.092 A 
ATOM      7  N   UNL     1      -1.241   3.094   0.023  0.00  0.00    -0.168 NA
ENDROOT
BRANCH   6   8
ATOM      8  C   UNL     1      -2.516   1.037   0.002  0.00  0.00    +0.002 A 
ATOM      9  C   UNL     1      -2.515  -0.357  -0.013  0.00  0.00    +0.012 A 
ATOM     10  C   UNL     1      -3.711  -1.046  -0.015  0.00  0.00    +0.033 A 
ATOM     11  C   UNL     1      -4.910  -0.355  -0.014  0.00  0.00    +0.126 A 
ATOM     12  C   UNL     1      -4.917   1.028  -0.005  0.00  0.00    +0.033 A 
ATOM     13  C   UNL     1      -3.727   1.727   0.003  0.00  0.00    +0.012 A 
BRANCH  11  14
ATOM     14  N   UNL     1      -6.189  -1.099  -0.023  0.00  0.00    +0.056 N 
ATOM     15  O   UNL     1      -7.246  -0.493  -0.022  0.00  0.00    -0.126 OA
ATOM     16  O   UNL     1      -6.185  -2.317  -0.030  0.00  0.00    -0.126 OA
ENDBRANCH  11  14
ENDBRANCH   6   8
BRANCH   1  17
ATOM     17  C   UNL     1      -0.248   5.248   0.033  0.00  0.00    +0.243 C 
BRANCH  17  19
ATOM     18  N   UNL     1      -0.364   7.082  -1.623  0.00  0.00    -0.284 N 
ATOM     19  C   UNL     1      -0.283   5.758  -1.385  0.00  0.00    +0.239 C 
ATOM     20  O   UNL     1      -0.237   4.976  -2.311  0.00  0.00    -0.273 OA
ATOM     21  H   UNL     1      -0.468   7.702  -0.885  0.00  0.00    +0.155 HD
BRANCH  18  26
ATOM     22  C   UNL     1      -0.096   9.032  -6.946  0.00  0.00    +0.047 C 
ATOM     23  C   UNL     1      -0.168   8.514  -5.532  0.00  0.00    -0.015 A 
ATOM     24  C   UNL     1       0.390   9.245  -4.500  0.00  0.00    +0.008 A 
ATOM     25  C   UNL     1       0.321   8.776  -3.203  0.00  0.00    +0.024 A 
ATOM     26  C   UNL     1      -0.298   7.562  -2.936  0.00  0.00    +0.036 A 
ATOM     27  C   UNL     1      -0.857   6.828  -3.973  0.00  0.00    +0.062 A 
ATOM     28  C   UNL     1      -0.791   7.305  -5.270  0.00  0.00    +0.128 A 
ATOM     29  F   UNL     1      -1.335   6.592  -6.281  0.00  0.00    -0.205 F 
ENDBRANCH  18  26
ENDBRANCH  17  19
ENDBRANCH   1  17
TORSDOF 5
