REMARK  Name = ZINC39361705
REMARK  10 active torsions:
REMARK  status: ('A' for Active; 'I' for Inactive)
REMARK    1  A    between atoms: C_1  and  C_2
REMARK    2  A    between atoms: C_6  and  N_8
REMARK    3  A    between atoms: C_9  and  C_27
REMARK    4  A    between atoms: C_13  and  S_14
REMARK    5  A    between atoms: S_14  and  C_15
REMARK    6  A    between atoms: C_15  and  C_16
REMARK    7  A    between atoms: N_18  and  C_19
REMARK    8  A    between atoms: C_22  and  C_26
REMARK    9  A    between atoms: C_24  and  C_25
REMARK   10  A    between atoms: C_27  and  C_28
REMARK                            x       y       z     vdW  Elec       q    Type
REMARK                         _______ _______ _______ _____ _____    ______ ____
ROOT
ATOM      1  N   UNL     1       0.066  -2.801   2.392  0.00  0.00    -0.258 N 
ATOM      2  C   UNL     1       0.019  -4.264   2.555  0.00  0.00    +0.187 C 
ATOM      3  N   UNL     1       0.098  -4.460   4.013  0.00  0.00    -0.246 N 
ATOM      4  N   UNL     1       0.180  -3.181   4.575  0.00  0.00    -0.162 NA
ATOM      5  C   UNL     1       0.168  -2.264   3.668  0.00  0.00    +0.180 C 
ATOM      6  H   UNL     1       0.093  -5.306   4.488  0.00  0.00    +0.170 HD
ENDROOT
BRANCH   1  12
ATOM      7  C   UNL     1       2.127  -1.659  -1.921  0.00  0.00    +0.044 C 
ATOM      8  C   UNL     1       1.008  -1.519  -0.921  0.00  0.00    -0.049 A 
ATOM      9  C   UNL     1      -0.064  -0.689  -1.194  0.00  0.00    +0.003 A 
ATOM     10  C   UNL     1      -1.092  -0.558  -0.279  0.00  0.00    +0.002 A 
ATOM     11  C   UNL     1      -1.052  -1.257   0.911  0.00  0.00    +0.023 A 
ATOM     12  C   UNL     1       0.022  -2.093   1.189  0.00  0.00    +0.038 A 
ATOM     13  C   UNL     1       1.052  -2.226   0.265  0.00  0.00    +0.027 A 
ENDBRANCH   1  12
BRANCH   5  14
ATOM     14  S   UNL     1       0.264  -0.538   4.007  0.00  0.00    -0.079 S 
BRANCH  14  15
ATOM     15  C   UNL     1       0.380  -0.452   5.816  0.00  0.00    +0.173 C 
BRANCH  15  16
ATOM     16  C   UNL     1       0.469   0.990   6.245  0.00  0.00    +0.227 C 
ATOM     17  O   UNL     1       0.456   1.873   5.413  0.00  0.00    -0.275 OA
ATOM     18  N   UNL     1       0.563   1.299   7.554  0.00  0.00    -0.285 N 
ATOM     19  H   UNL     1       0.632   0.592   8.215  0.00  0.00    +0.155 HD
BRANCH  18  20
ATOM     20  C   UNL     1       0.562   2.638   7.959  0.00  0.00    +0.036 A 
ATOM     21  C   UNL     1       0.989   3.630   7.085  0.00  0.00    +0.024 A 
ATOM     22  C   UNL     1       0.986   4.950   7.487  0.00  0.00    +0.005 A 
ATOM     23  C   UNL     1       0.559   5.287   8.759  0.00  0.00    -0.050 A 
ATOM     24  C   UNL     1       0.134   4.302   9.632  0.00  0.00    +0.008 A 
ATOM     25  C   UNL     1       0.128   2.979   9.233  0.00  0.00    -0.029 A 
ATOM     26  C   UNL     1      -0.343   1.907  10.181  0.00  0.00    +0.045 C 
ATOM     27  C   UNL     1       0.558   6.729   9.195  0.00  0.00    +0.044 C 
ENDBRANCH  18  20
ENDBRANCH  15  16
ENDBRANCH  14  15
ENDBRANCH   5  14
BRANCH   2  28
ATOM     28  C   UNL     1      -1.294  -4.824   2.005  0.00  0.00    +0.097 C 
BRANCH  28  29
ATOM     29  C   UNL     1      -1.317  -6.320   2.183  0.00  0.00    +0.029 A 
ATOM     30  N   UNL     1      -0.728  -7.132   1.253  0.00  0.00    -0.311 N 
ATOM     31  C   UNL     1      -0.742  -8.469   1.403  0.00  0.00    +0.327 A 
ATOM     32  O   UNL     1      -0.213  -9.172   0.564  0.00  0.00    -0.247 OA
ATOM     33  N   UNL     1      -1.333  -9.039   2.470  0.00  0.00    -0.275 N 
ATOM     34  C   UNL     1      -1.925  -8.273   3.409  0.00  0.00    +0.254 A 
ATOM     35  O   UNL     1      -2.460  -8.788   4.374  0.00  0.00    -0.268 OA
ATOM     36  C   UNL     1      -1.913  -6.865   3.265  0.00  0.00    +0.091 A 
ATOM     37  H   UNL     1      -1.335 -10.005   2.563  0.00  0.00    +0.173 HD
ATOM     38  H   UNL     1      -0.297  -6.740   0.477  0.00  0.00    +0.170 HD
ENDBRANCH  28  29
ENDBRANCH   2  28
TORSDOF 7
