REMARK  Name = ZINC19372316
REMARK  9 active torsions:
REMARK  status: ('A' for Active; 'I' for Inactive)
REMARK    1  A    between atoms: C_1  and  O_2
REMARK    2  A    between atoms: O_2  and  C_3
REMARK    3  A    between atoms: C_3  and  C_5
REMARK    4  A    between atoms: C_6  and  N_16
REMARK    5  A    between atoms: C_17  and  C_19
REMARK    6  A    between atoms: C_19  and  N_20
REMARK    7  A    between atoms: N_23  and  C_26
REMARK    8  A    between atoms: C_26  and  C_27
REMARK    9  A    between atoms: C_27  and  O_28
REMARK                            x       y       z     vdW  Elec       q    Type
REMARK                         _______ _______ _______ _____ _____    ______ ____
ROOT
ATOM      1  N   UNL     1       3.251   0.086   0.324  0.00  0.00    -0.285 N 
ATOM      2  C   UNL     1       4.486  -0.140  -0.165  0.00  0.00    +0.201 C 
ATOM      3  O   UNL     1       5.178   0.791  -0.519  0.00  0.00    -0.278 OA
ATOM      4  H   UNL     1       2.658  -0.749   0.726  0.00  0.00    +0.155 HD
ENDROOT
BRANCH   1   6
ATOM      5  C   UNL     1       1.419   1.730   0.061  0.00  0.00    +0.147 A 
ATOM      6  C   UNL     1       2.726   1.374   0.320  0.00  0.00    +0.073 A 
ATOM      7  C   UNL     1       3.453   2.616   0.591  0.00  0.00    +0.023 A 
ATOM      8  C   UNL     1       4.784   2.902   0.912  0.00  0.00    +0.027 A 
ATOM      9  C   UNL     1       5.170   4.196   1.117  0.00  0.00    +0.019 A 
ATOM     10  C   UNL     1       4.252   5.233   1.000  0.00  0.00    +0.017 A 
ATOM     11  C   UNL     1       2.937   4.975   0.685  0.00  0.00    +0.027 A 
ATOM     12  C   UNL     1       2.518   3.662   0.476  0.00  0.00    +0.049 A 
ATOM     13  N   UNL     1       1.300   3.109   0.157  0.00  0.00    -0.348 N 
ATOM     14  H   UNL     1       0.327   3.591  -0.017  0.00  0.00    +0.166 HD
ATOM     15 BR   UNL     1       6.968   4.580   1.558  0.00  0.00    -0.050 Br
BRANCH   5  16
ATOM     16  C   UNL     1       0.366   0.833  -0.252  0.00  0.00    +0.357 C 
ATOM     17  O   UNL     1       0.560  -0.368  -0.219  0.00  0.00    -0.243 OA
BRANCH  16  19
ATOM     18  C   UNL     1      -1.864   0.349  -0.889  0.00  0.00    +0.280 C 
ATOM     19  O   UNL     1      -0.851   1.310  -0.586  0.00  0.00    -0.463 OA
ENDBRANCH  16  19
ENDBRANCH   5  16
ENDBRANCH   1   6
BRANCH   2  20
ATOM     20  C   UNL     1       5.009  -1.549  -0.271  0.00  0.00    +0.019 C 
BRANCH  20  21
ATOM     21  N   UNL     1       6.367  -1.527  -0.830  0.00  0.00    +0.387 N 
ATOM     22  C   UNL     1       6.357  -1.055  -2.221  0.00  0.00    -0.063 C 
ATOM     23  C   UNL     1       7.795  -0.971  -2.739  0.00  0.00    +0.066 C 
ATOM     24  N   UNL     1       8.427  -2.294  -2.639  0.00  0.00    -0.304 NA
ATOM     25  C   UNL     1       8.437  -2.766  -1.247  0.00  0.00    +0.066 C 
ATOM     26  C   UNL     1       6.999  -2.850  -0.730  0.00  0.00    -0.063 C 
ATOM     27  H   UNL     1       6.964  -0.820  -0.235  0.00  0.00    -0.081 HD
BRANCH  24  28
ATOM     28  C   UNL     1       9.786  -2.272  -3.197  0.00  0.00    +0.112 C 
BRANCH  28  29
ATOM     29  C   UNL     1      10.223  -3.699  -3.532  0.00  0.00    +0.171 C 
BRANCH  29  30
ATOM     30  O   UNL     1       9.381  -4.227  -4.558  0.00  0.00    -0.394 OA
ATOM     31  H   UNL     1       9.544  -5.249  -4.932  0.00  0.00    +0.209 HD
ENDBRANCH  29  30
ENDBRANCH  28  29
ENDBRANCH  24  28
ENDBRANCH  20  21
ENDBRANCH   2  20
TORSDOF 8
