REMARK  Name = ZINC09284037
REMARK  15 active torsions:
REMARK  status: ('A' for Active; 'I' for Inactive)
REMARK    1  A    between atoms: C_1  and  C_2
REMARK    2  A    between atoms: C_2  and  O_3
REMARK    3  A    between atoms: O_3  and  C_4
REMARK    4  A    between atoms: C_4  and  C_6
REMARK    5  A    between atoms: C_7  and  C_33
REMARK    6  A    between atoms: C_8  and  C_13
REMARK    7  A    between atoms: C_9  and  C_12
REMARK    8  A    between atoms: C_13  and  O_15
REMARK    9  A    between atoms: O_15  and  C_16
REMARK   10  A    between atoms: C_16  and  C_17
REMARK   11  A    between atoms: N_19  and  C_20
REMARK   12  A    between atoms: C_22  and  S_27
REMARK   13  A    between atoms: S_27  and  N_30
REMARK   14  A    between atoms: N_30  and  C_31
REMARK   15  A    between atoms: N_30  and  C_32
REMARK                            x       y       z     vdW  Elec       q    Type
REMARK                         _______ _______ _______ _____ _____    ______ ____
ROOT
ATOM      1  C   UNL     1      -1.886   1.043  -9.341  0.00  0.00    +0.328 C 
ENDROOT
BRANCH   1   2
ATOM      2  C   UNL     1      -2.670  -0.109  -9.916  0.00  0.00    +0.255 C 
ATOM      3  O   UNL     1      -3.239  -0.884  -9.177  0.00  0.00    -0.272 OA
ATOM      4  N   UNL     1      -2.739  -0.277 -11.252  0.00  0.00    -0.281 N 
ATOM      5  H   UNL     1      -2.352   0.387 -11.844  0.00  0.00    +0.155 HD
BRANCH   4   6
ATOM      6  C   UNL     1      -3.368  -1.408 -11.783  0.00  0.00    +0.054 A 
ATOM      7  C   UNL     1      -3.460  -2.571 -11.030  0.00  0.00    +0.053 A 
ATOM      8  C   UNL     1      -4.085  -3.685 -11.556  0.00  0.00    +0.107 A 
ATOM      9  C   UNL     1      -4.611  -3.646 -12.835  0.00  0.00    +0.030 A 
ATOM     10  C   UNL     1      -4.517  -2.492 -13.590  0.00  0.00    +0.024 A 
ATOM     11  C   UNL     1      -3.897  -1.372 -13.068  0.00  0.00    +0.062 A 
ATOM     12 CL   UNL     1      -3.779   0.077 -14.016  0.00  0.00    -0.082 Cl
BRANCH   8  13
ATOM     13  S   UNL     1      -4.208  -5.159 -10.598  0.00  0.00    +0.060 S 
ATOM     14  O   UNL     1      -4.122  -4.766  -9.236  0.00  0.00    -0.153 OA
ATOM     15  O   UNL     1      -5.315  -5.886 -11.113  0.00  0.00    -0.153 OA
BRANCH  13  16
ATOM     16  N   UNL     1      -2.858  -6.064 -10.916  0.00  0.00    -0.183 NA
ATOM     17  C   UNL     1      -1.653  -5.893 -10.101  0.00  0.00    +0.131 C 
ATOM     18  C   UNL     1      -2.869  -7.035 -12.014  0.00  0.00    +0.131 C 
ENDBRANCH  13  16
ENDBRANCH   8  13
ENDBRANCH   4   6
ENDBRANCH   1   2
BRANCH   1  19
ATOM     19  O   UNL     1      -1.965   1.005  -7.891  0.00  0.00    -0.452 OA
BRANCH  19  20
ATOM     20  C   UNL     1      -1.312   1.974  -7.218  0.00  0.00    +0.342 C 
ATOM     21  O   UNL     1      -0.695   2.826  -7.826  0.00  0.00    -0.245 OA
BRANCH  20  24
ATOM     22  C   UNL     1      -0.841   1.646  -3.601  0.00  0.00    +0.128 A 
ATOM     23  C   UNL     1      -0.434   1.367  -4.873  0.00  0.00    -0.005 A 
ATOM     24  C   UNL     1      -1.348   1.999  -5.746  0.00  0.00    +0.083 A 
ATOM     25  C   UNL     1      -2.279   2.651  -4.958  0.00  0.00    +0.028 A 
ATOM     26  N   UNL     1      -1.969   2.434  -3.670  0.00  0.00    -0.352 N 
ATOM     27  H   UNL     1      -2.461   2.779  -2.908  0.00  0.00    +0.166 HD
ATOM     28  C   UNL     1      -3.444   3.465  -5.459  0.00  0.00    +0.064 C 
ATOM     29  C   UNL     1       0.760   0.540  -5.272  0.00  0.00    +0.047 C 
BRANCH  22  30
ATOM     30  C   UNL     1      -0.185   1.190  -2.371  0.00  0.00    +0.356 C 
ATOM     31  O   UNL     1       0.810   0.494  -2.434  0.00  0.00    -0.243 OA
BRANCH  30  32
ATOM     32  O   UNL     1      -0.687   1.541  -1.169  0.00  0.00    -0.460 OA
BRANCH  32  34
ATOM     33  C   UNL     1      -0.698   1.552   1.266  0.00  0.00    +0.048 C 
ATOM     34  C   UNL     1       0.013   1.054   0.006  0.00  0.00    +0.229 C 
ENDBRANCH  32  34
ENDBRANCH  30  32
ENDBRANCH  22  30
ENDBRANCH  20  24
ENDBRANCH  19  20
ENDBRANCH   1  19
TORSDOF 10
