REMARK  Name = ZINC12244920
REMARK  13 active torsions:
REMARK  status: ('A' for Active; 'I' for Inactive)
REMARK    1  A    between atoms: C_1  and  C_2
REMARK    2  A    between atoms: C_3  and  C_9
REMARK    3  A    between atoms: C_4  and  C_8
REMARK    4  A    between atoms: N_5  and  C_7
REMARK    5  A    between atoms: C_9  and  C_11
REMARK    6  A    between atoms: C_9  and  N_66
REMARK    7  A    between atoms: C_12  and  N_66
REMARK    8  A    between atoms: C_13  and  C_14
REMARK    9  A    between atoms: C_13  and  N_66
REMARK   10  A    between atoms: C_17  and  C_22
REMARK   11  A    between atoms: N_24  and  C_25
REMARK   12  A    between atoms: C_25  and  C_26
REMARK   13  A    between atoms: C_26  and  O_32
REMARK                            x       y       z     vdW  Elec       q    Type
REMARK                         _______ _______ _______ _____ _____    ______ ____
ROOT
ATOM      1  C   UNL     1      -2.101   2.993   8.276  0.00  0.00    +0.003 A 
ATOM      2  C   UNL     1      -0.947   2.279   8.243  0.00  0.00    +0.020 A 
ATOM      3  C   UNL     1      -0.419   1.857   7.023  0.00  0.00    +0.020 A 
ATOM      4  C   UNL     1      -1.088   2.191   5.847  0.00  0.00    +0.101 A 
ATOM      5  C   UNL     1      -2.290   2.939   5.933  0.00  0.00    +0.261 A 
ATOM      6  O   UNL     1      -2.897   3.239   4.919  0.00  0.00    -0.267 OA
ATOM      7  N   UNL     1      -2.759   3.317   7.137  0.00  0.00    -0.327 N 
ATOM      8  H   UNL     1      -3.582   3.828   7.190  0.00  0.00    +0.169 HD
ENDROOT
BRANCH   4   9
ATOM      9  C   UNL     1      -0.560   1.769   4.541  0.00  0.00    +0.249 C 
ATOM     10  O   UNL     1       0.407   1.034   4.484  0.00  0.00    -0.270 OA
ATOM     11  N   UNL     1      -1.149   2.197   3.406  0.00  0.00    -0.308 N 
ATOM     12  H   UNL     1      -1.962   2.724   3.451  0.00  0.00    +0.149 HD
BRANCH  11  13
ATOM     13  C   UNL     1      -0.560   1.867   2.106  0.00  0.00    +0.139 C 
BRANCH  13  14
ATOM     14  C   UNL     1      -1.417   2.469   0.991  0.00  0.00    +0.081 C 
ATOM     15  C   UNL     1      -0.802   2.124  -0.367  0.00  0.00    +0.036 C 
ATOM     16  C   UNL     1      -1.659   2.726  -1.483  0.00  0.00    +0.003 C 
ATOM     17  C   UNL     1      -1.715   4.246  -1.319  0.00  0.00    +0.000 C 
ATOM     18  C   UNL     1      -2.330   4.591   0.038  0.00  0.00    +0.003 C 
ATOM     19  C   UNL     1      -1.473   3.989   1.154  0.00  0.00    +0.036 C 
BRANCH  14  20
ATOM     20  O   UNL     1      -2.740   1.933   1.064  0.00  0.00    -0.387 OA
ATOM     21  H   UNL     1      -3.191   2.114   1.900  0.00  0.00    +0.210 HD
ENDBRANCH  14  20
ENDBRANCH  13  14
ENDBRANCH  11  13
ENDBRANCH   4   9
BRANCH   1  22
ATOM     22  C   UNL     1      -2.660   3.434   9.604  0.00  0.00    -0.024 C 
BRANCH  22  24
ATOM     23  C   UNL     1      -3.751   1.325  10.079  0.00  0.00    -0.095 C 
ATOM     24  N   UNL     1      -3.961   2.765   9.819  0.00  0.00    +0.386 N 
ATOM     25  H   UNL     1      -4.534   2.871   8.974  0.00  0.00    -0.081 HD
BRANCH  24  26
ATOM     26  C   UNL     1      -4.666   3.387  10.959  0.00  0.00    -0.037 C 
ATOM     27  C   UNL     1      -4.935   4.858  10.633  0.00  0.00    -0.008 C 
BRANCH  26  30
ATOM     28  C   UNL     1      -6.713   2.530   8.696  0.00  0.00    +0.068 C 
ATOM     29  C   UNL     1      -6.879   2.294  10.175  0.00  0.00    +0.062 A 
ATOM     30  C   UNL     1      -5.976   2.672  11.173  0.00  0.00    -0.018 A 
ATOM     31  C   UNL     1      -6.487   2.289  12.366  0.00  0.00    +0.038 A 
ATOM     32  N   UNL     1      -7.670   1.684  12.130  0.00  0.00    -0.271 N 
ATOM     33  N   UNL     1      -7.893   1.695  10.747  0.00  0.00    -0.176 NA
ATOM     34  C   UNL     1      -8.564   1.115  13.142  0.00  0.00    +0.172 C 
ATOM     35  C   UNL     1      -5.851   2.501  13.715  0.00  0.00    +0.065 C 
ENDBRANCH  26  30
ENDBRANCH  24  26
ENDBRANCH  22  24
ENDBRANCH   1  22
TORSDOF 8
