REMARK  Name = ZINC38856006
REMARK  9 active torsions:
REMARK  status: ('A' for Active; 'I' for Inactive)
REMARK    1  A    between atoms: C_1  and  C_2
REMARK    2  A    between atoms: N_8  and  S_34
REMARK    3  A    between atoms: C_10  and  C_13
REMARK    4  A    between atoms: N_15  and  C_16
REMARK    5  A    between atoms: C_21  and  C_22
REMARK    6  A    between atoms: N_24  and  C_25
REMARK    7  A    between atoms: C_25  and  C_27
REMARK    8  A    between atoms: C_25  and  C_28
REMARK    9  A    between atoms: S_34  and  C_37
REMARK                            x       y       z     vdW  Elec       q    Type
REMARK                         _______ _______ _______ _____ _____    ______ ____
ROOT
ATOM      1  C   UNL     1      -0.846  -6.202   1.123  0.00  0.00    +0.260 C 
ATOM      2  O   UNL     1      -0.571  -6.774   0.089  0.00  0.00    -0.271 OA
ATOM      3  N   UNL     1      -1.109  -6.914   2.237  0.00  0.00    -0.282 N 
ATOM      4  H   UNL     1      -1.410  -6.463   3.041  0.00  0.00    +0.155 HD
ENDROOT
BRANCH   1  14
ATOM      5  C   UNL     1       0.204   1.369  -0.707  0.00  0.00    +0.044 C 
ATOM      6  C   UNL     1      -0.033  -0.111  -0.551  0.00  0.00    -0.048 A 
ATOM      7  C   UNL     1      -0.457  -0.860  -1.633  0.00  0.00    +0.007 A 
ATOM      8  C   UNL     1      -0.674  -2.218  -1.498  0.00  0.00    +0.048 A 
ATOM      9  C   UNL     1      -0.469  -2.836  -0.274  0.00  0.00    +0.144 A 
ATOM     10  C   UNL     1      -0.045  -2.079   0.815  0.00  0.00    +0.093 A 
ATOM     11  C   UNL     1       0.179  -0.719   0.673  0.00  0.00    +0.031 A 
ATOM     12  N   UNL     1       0.157  -2.699   2.058  0.00  0.00    -0.200 N 
ATOM     13  C   UNL     1       0.213  -4.171   2.088  0.00  0.00    +0.185 C 
ATOM     14  C   UNL     1      -0.893  -4.696   1.163  0.00  0.00    +0.278 C 
ATOM     15  O   UNL     1      -0.681  -4.173  -0.151  0.00  0.00    -0.476 OA
BRANCH  12  16
ATOM     16  S   UNL     1       0.325  -1.807   3.443  0.00  0.00    +0.043 S 
ATOM     17  O   UNL     1      -0.514  -0.677   3.251  0.00  0.00    -0.155 OA
ATOM     18  O   UNL     1       0.073  -2.725   4.499  0.00  0.00    -0.155 OA
ATOM     19  C   UNL     1       2.066  -1.297   3.461  0.00  0.00    +0.218 C 
ENDBRANCH  12  16
ENDBRANCH   1  14
BRANCH   3  20
ATOM     20  C   UNL     1      -0.948  -8.297   2.234  0.00  0.00    +0.046 A 
ATOM     21  C   UNL     1      -0.027  -8.891   1.381  0.00  0.00    +0.024 A 
ATOM     22  C   UNL     1       0.130 -10.262   1.379  0.00  0.00    +0.002 A 
ATOM     23  C   UNL     1      -0.626 -11.056   2.226  0.00  0.00    +0.001 A 
ATOM     24  C   UNL     1      -1.544 -10.485   3.080  0.00  0.00    +0.015 A 
ATOM     25  C   UNL     1      -1.711  -9.098   3.097  0.00  0.00    +0.058 A 
BRANCH  25  26
ATOM     26  C   UNL     1      -2.688  -8.479   4.013  0.00  0.00    +0.246 C 
ATOM     27  O   UNL     1      -2.801  -7.269   4.054  0.00  0.00    -0.270 OA
ATOM     28  N   UNL     1      -3.454  -9.255   4.804  0.00  0.00    -0.305 N 
ATOM     29  H   UNL     1      -3.364 -10.220   4.772  0.00  0.00    +0.150 HD
BRANCH  28  30
ATOM     30  C   UNL     1      -4.425  -8.641   5.714  0.00  0.00    +0.100 C 
ATOM     31  C   UNL     1      -5.730  -8.372   4.962  0.00  0.00    +0.033 C 
BRANCH  30  32
ATOM     32  C   UNL     1      -4.692  -9.573   6.868  0.00  0.00    -0.027 A 
ATOM     33  C   UNL     1      -4.798 -10.933   6.646  0.00  0.00    +0.005 A 
ATOM     34  C   UNL     1      -5.043 -11.789   7.705  0.00  0.00    +0.000 A 
ATOM     35  C   UNL     1      -5.182 -11.283   8.984  0.00  0.00    +0.000 A 
ATOM     36  C   UNL     1      -5.075  -9.923   9.205  0.00  0.00    +0.000 A 
ATOM     37  C   UNL     1      -4.826  -9.068   8.148  0.00  0.00    +0.005 A 
ENDBRANCH  30  32
ENDBRANCH  28  30
ENDBRANCH  25  26
ENDBRANCH   3  20
TORSDOF 6
