REMARK  Name = ZINC20923643
REMARK  8 active torsions:
REMARK  status: ('A' for Active; 'I' for Inactive)
REMARK    1  A    between atoms: C_4  and  N_7
REMARK    2  A    between atoms: N_7  and  C_8
REMARK    3  A    between atoms: N_7  and  S_18
REMARK    4  A    between atoms: C_8  and  C_9
REMARK    5  A    between atoms: N_11  and  C_12
REMARK    6  A    between atoms: C_12  and  C_13
REMARK    7  A    between atoms: S_18  and  C_21
REMARK    8  A    between atoms: C_25  and  N_27
REMARK                            x       y       z     vdW  Elec       q    Type
REMARK                         _______ _______ _______ _____ _____    ______ ____
ROOT
ATOM      1  N   UNL     1      -0.343   1.625  -0.033  0.00  0.00    -0.194 N 
ENDROOT
BRANCH   1   5
ATOM      2  C   UNL     1       3.032   3.991  -0.621  0.00  0.00    +0.000 A 
ATOM      3  C   UNL     1       1.777   4.494  -0.913  0.00  0.00    +0.002 A 
ATOM      4  C   UNL     1       0.656   3.712  -0.720  0.00  0.00    +0.025 A 
ATOM      5  C   UNL     1       0.789   2.418  -0.231  0.00  0.00    +0.052 A 
ATOM      6  C   UNL     1       2.050   1.918   0.067  0.00  0.00    +0.025 A 
ATOM      7  C   UNL     1       3.168   2.704  -0.134  0.00  0.00    +0.002 A 
ENDBRANCH   1   5
BRANCH   1   8
ATOM      8  S   UNL     1      -0.488   0.177  -0.825  0.00  0.00    +0.075 S 
ATOM      9  O   UNL     1      -1.878  -0.105  -0.903  0.00  0.00    -0.150 OA
ATOM     10  O   UNL     1       0.339   0.261  -1.978  0.00  0.00    -0.150 OA
BRANCH   8  11
ATOM     11  C   UNL     1       0.220  -1.058   0.213  0.00  0.00    +0.111 A 
ATOM     12  C   UNL     1       1.526  -1.465   0.012  0.00  0.00    +0.030 A 
ATOM     13  C   UNL     1       2.083  -2.430   0.830  0.00  0.00    +0.024 A 
ATOM     14  C   UNL     1       1.329  -2.997   1.843  0.00  0.00    +0.071 A 
ATOM     15  C   UNL     1       0.021  -2.593   2.040  0.00  0.00    +0.146 A 
ATOM     16  C   UNL     1      -0.533  -1.624   1.225  0.00  0.00    +0.063 A 
ATOM     17 CL   UNL     1       2.026  -4.214   2.866  0.00  0.00    -0.081 Cl
BRANCH  15  18
ATOM     18  N   UNL     1      -0.785  -3.199   3.124  0.00  0.00    +0.058 N 
ATOM     19  O   UNL     1      -1.937  -2.843   3.298  0.00  0.00    -0.126 OA
ATOM     20  O   UNL     1      -0.296  -4.053   3.841  0.00  0.00    -0.126 OA
ENDBRANCH  15  18
ENDBRANCH   8  11
ENDBRANCH   1   8
BRANCH   1  21
ATOM     21  C   UNL     1      -1.405   2.075   0.870  0.00  0.00    +0.227 C 
BRANCH  21  22
ATOM     22  C   UNL     1      -1.065   1.678   2.283  0.00  0.00    +0.233 C 
ATOM     23  O   UNL     1      -0.037   1.077   2.513  0.00  0.00    -0.274 OA
ATOM     24  N   UNL     1      -1.903   1.990   3.291  0.00  0.00    -0.307 N 
ATOM     25  H   UNL     1      -2.836   2.534   3.082  0.00  0.00    +0.149 HD
BRANCH  24  26
ATOM     26  C   UNL     1      -1.573   1.603   4.665  0.00  0.00    +0.178 C 
BRANCH  26  27
ATOM     27  C   UNL     1      -2.665   2.067   5.594  0.00  0.00    +0.122 A 
ATOM     28  C   UNL     1      -3.757   1.361   5.938  0.00  0.00    +0.046 A 
ATOM     29  C   UNL     1      -4.507   2.171   6.821  0.00  0.00    +0.041 A 
ATOM     30  C   UNL     1      -3.829   3.323   6.964  0.00  0.00    +0.195 A 
ATOM     31  O   UNL     1      -2.711   3.252   6.223  0.00  0.00    -0.466 OA
ENDBRANCH  26  27
ENDBRANCH  24  26
ENDBRANCH  21  22
ENDBRANCH   1  21
TORSDOF 8
