REMARK  Name = ZINC03579748
REMARK  9 active torsions:
REMARK  status: ('A' for Active; 'I' for Inactive)
REMARK    1  A    between atoms: C_1  and  C_2
REMARK    2  A    between atoms: C_2  and  C_21
REMARK    3  A    between atoms: N_5  and  N_9
REMARK    4  A    between atoms: C_10  and  C_11
REMARK    5  A    between atoms: C_14  and  C_17
REMARK    6  A    between atoms: C_17  and  O_19
REMARK    7  A    between atoms: O_19  and  C_20
REMARK    8  A    between atoms: C_24  and  O_27
REMARK    9  A    between atoms: O_27  and  C_28
REMARK                            x       y       z     vdW  Elec       q    Type
REMARK                         _______ _______ _______ _____ _____    ______ ____
ROOT
ATOM      1  C   UNL     1      -0.013   1.527   0.019  0.00  0.00    +0.047 C 
ATOM      2  C   UNL     1       0.003  -0.003   0.002  0.00  0.00    +0.137 C 
ATOM      3  C   UNL     1       0.818  -0.515  -1.169  0.00  0.00    +0.271 C 
ATOM      4  O   UNL     1       0.603  -0.330  -2.347  0.00  0.00    -0.271 OA
ATOM      5  N   UNL     1       1.832  -1.218  -0.627  0.00  0.00    -0.109 N 
ATOM      6  C   UNL     1       1.771  -1.222   0.709  0.00  0.00    +0.330 C 
ATOM      7  O   UNL     1       2.576  -1.791   1.421  0.00  0.00    -0.250 OA
ATOM      8  N   UNL     1       0.720  -0.527   1.178  0.00  0.00    -0.280 N 
ATOM      9  H   UNL     1       0.480  -0.395   2.109  0.00  0.00    +0.152 HD
ENDROOT
BRANCH   2  10
ATOM     10  C   UNL     1      -1.402  -0.546  -0.048  0.00  0.00    -0.015 A 
ATOM     11  C   UNL     1      -2.001  -0.800  -1.268  0.00  0.00    +0.010 A 
ATOM     12  C   UNL     1      -3.289  -1.297  -1.316  0.00  0.00    +0.046 A 
ATOM     13  C   UNL     1      -3.981  -1.542  -0.139  0.00  0.00    +0.120 A 
ATOM     14  C   UNL     1      -3.378  -1.287   1.084  0.00  0.00    +0.046 A 
ATOM     15  C   UNL     1      -2.088  -0.794   1.127  0.00  0.00    +0.010 A 
BRANCH  13  16
ATOM     16  O   UNL     1      -5.248  -2.031  -0.184  0.00  0.00    -0.495 OA
ATOM     17  C   UNL     1      -5.901  -2.259   1.067  0.00  0.00    +0.277 C 
ENDBRANCH  13  16
ENDBRANCH   2  10
BRANCH   5  18
ATOM     18  N   UNL     1       2.826  -1.867  -1.372  0.00  0.00    -0.176 NA
ATOM     19  C   UNL     1       2.748  -1.901  -2.667  0.00  0.00    +0.139 C 
BRANCH  19  20
ATOM     20  C   UNL     1       3.732  -2.676  -3.444  0.00  0.00    -0.005 A 
ATOM     21  C   UNL     1       4.745  -3.380  -2.786  0.00  0.00    +0.010 A 
ATOM     22  C   UNL     1       5.659  -4.101  -3.509  0.00  0.00    +0.015 A 
ATOM     23  C   UNL     1       5.579  -4.133  -4.904  0.00  0.00    +0.059 A 
ATOM     24  C   UNL     1       4.566  -3.429  -5.562  0.00  0.00    +0.015 A 
ATOM     25  C   UNL     1       3.648  -2.712  -4.839  0.00  0.00    +0.010 A 
BRANCH  23  26
ATOM     26  C   UNL     1       6.564  -4.909  -5.682  0.00  0.00    +0.339 C 
ATOM     27  O   UNL     1       7.444  -5.521  -5.110  0.00  0.00    -0.245 OA
BRANCH  26  28
ATOM     28  O   UNL     1       6.487  -4.940  -7.027  0.00  0.00    -0.464 OA
ATOM     29  C   UNL     1       7.473  -5.711  -7.716  0.00  0.00    +0.280 C 
ENDBRANCH  26  28
ENDBRANCH  23  26
ENDBRANCH  19  20
ENDBRANCH   5  18
TORSDOF 6
