REMARK  Name = ZINC36207843
REMARK  14 active torsions:
REMARK  status: ('A' for Active; 'I' for Inactive)
REMARK    1  A    between atoms: C_1  and  O_2
REMARK    2  A    between atoms: O_2  and  C_3
REMARK    3  A    between atoms: C_6  and  C_9
REMARK    4  A    between atoms: C_18  and  C_20
REMARK    5  A    between atoms: C_20  and  N_21
REMARK    6  A    between atoms: N_21  and  C_22
REMARK    7  A    between atoms: N_21  and  C_28
REMARK    8  A    between atoms: C_22  and  C_23
REMARK    9  A    between atoms: C_28  and  C_29
REMARK   10  A    between atoms: C_29  and  C_31
REMARK   11  A    between atoms: C_29  and  O_36
REMARK   12  A    between atoms: C_31  and  O_32
REMARK   13  A    between atoms: O_32  and  C_33
REMARK   14  A    between atoms: C_33  and  C_34
REMARK                            x       y       z     vdW  Elec       q    Type
REMARK                         _______ _______ _______ _____ _____    ______ ____
ROOT
ATOM      1  C   UNL     1       2.203  -2.851  -5.464  0.00  0.00    +0.004 A 
ATOM      2  C   UNL     1       2.071  -2.495  -6.764  0.00  0.00    +0.056 A 
ATOM      3  S   UNL     1       3.283  -3.505  -7.594  0.00  0.00    -0.076 S 
ATOM      4  C   UNL     1       3.933  -4.373  -6.190  0.00  0.00    +0.116 A 
ATOM      5  C   UNL     1       3.199  -3.856  -5.110  0.00  0.00    +0.080 A 
ATOM      6  C   UNL     1       3.529  -4.390  -3.824  0.00  0.00    +0.260 A 
ATOM      7  O   UNL     1       2.943  -4.006  -2.825  0.00  0.00    -0.267 OA
ATOM      8  N   UNL     1       4.495  -5.322  -3.733  0.00  0.00    -0.312 N 
ATOM      9  H   UNL     1       4.723  -5.688  -2.864  0.00  0.00    +0.170 HD
ATOM     10  C   UNL     1       5.157  -5.761  -4.834  0.00  0.00    +0.094 A 
ATOM     11  N   UNL     1       4.872  -5.300  -6.022  0.00  0.00    -0.229 NA
ENDROOT
BRANCH   1  15
ATOM     12  C   UNL     1      -0.229  -1.060  -2.470  0.00  0.00    +0.120 A 
ATOM     13  C   UNL     1       0.445  -0.262  -3.384  0.00  0.00    +0.046 A 
ATOM     14  C   UNL     1       1.234  -0.839  -4.356  0.00  0.00    +0.012 A 
ATOM     15  C   UNL     1       1.356  -2.227  -4.420  0.00  0.00    -0.016 A 
ATOM     16  C   UNL     1       0.678  -3.026  -3.500  0.00  0.00    +0.012 A 
ATOM     17  C   UNL     1      -0.106  -2.442  -2.527  0.00  0.00    +0.046 A 
BRANCH  12  19
ATOM     18  C   UNL     1      -1.088   0.939  -1.511  0.00  0.00    +0.277 C 
ATOM     19  O   UNL     1      -1.006  -0.488  -1.513  0.00  0.00    -0.495 OA
ENDBRANCH  12  19
ENDBRANCH   1  15
BRANCH  10  20
ATOM     20  C   UNL     1       6.232  -6.807  -4.684  0.00  0.00    -0.003 C 
BRANCH  20  21
ATOM     21  N   UNL     1       6.800  -7.119  -6.002  0.00  0.00    +0.391 N 
ATOM     22  H   UNL     1       6.055  -7.356  -6.641  0.00  0.00    -0.080 HD
BRANCH  21  23
ATOM     23  C   UNL     1       7.527  -5.949  -6.512  0.00  0.00    -0.002 C 
BRANCH  23  24
ATOM     24  C   UNL     1       8.031  -6.237  -7.903  0.00  0.00    +0.089 A 
ATOM     25  C   UNL     1       7.329  -6.084  -9.040  0.00  0.00    +0.042 A 
ATOM     26  C   UNL     1       8.181  -6.467 -10.101  0.00  0.00    +0.041 A 
ATOM     27  C   UNL     1       9.353  -6.830  -9.549  0.00  0.00    +0.195 A 
ATOM     28  O   UNL     1       9.258  -6.683  -8.217  0.00  0.00    -0.470 OA
ENDBRANCH  23  24
ENDBRANCH  21  23
BRANCH  21  29
ATOM     29  C   UNL     1       7.723  -8.255  -5.882  0.00  0.00    -0.044 C 
BRANCH  29  30
ATOM     30  C   UNL     1       6.931  -9.522  -5.549  0.00  0.00    +0.124 C 
BRANCH  30  31
ATOM     31  O   UNL     1       6.437  -9.437  -4.211  0.00  0.00    -0.391 OA
ATOM     32  H   UNL     1       7.129  -9.348  -3.541  0.00  0.00    +0.210 HD
ENDBRANCH  30  31
BRANCH  30  33
ATOM     33  C   UNL     1       7.845 -10.742  -5.679  0.00  0.00    +0.189 C 
BRANCH  33  34
ATOM     34  O   UNL     1       7.079 -11.933  -5.482  0.00  0.00    -0.373 OA
BRANCH  34  35
ATOM     35  C   UNL     1       7.841 -13.137  -5.584  0.00  0.00    +0.186 C 
BRANCH  35  36
ATOM     36  C   UNL     1       6.939 -14.323  -5.361  0.00  0.00    -0.007 C 
ATOM     37  C   UNL     1       7.016 -15.364  -6.152  0.00  0.00    +0.006 C 
ENDBRANCH  35  36
ENDBRANCH  34  35
ENDBRANCH  33  34
ENDBRANCH  30  33
ENDBRANCH  29  30
ENDBRANCH  21  29
ENDBRANCH  20  21
ENDBRANCH  10  20
TORSDOF 13
