REMARK  Name = ZINC35105671
REMARK  15 active torsions:
REMARK  status: ('A' for Active; 'I' for Inactive)
REMARK    1  A    between atoms: C_1  and  C_2
REMARK    2  A    between atoms: C_2  and  C_3
REMARK    3  A    between atoms: C_3  and  C_4
REMARK    4  A    between atoms: C_4  and  N_5
REMARK    5  A    between atoms: C_13  and  C_15
REMARK    6  A    between atoms: C_16  and  C_18
REMARK    7  A    between atoms: C_18  and  C_20
REMARK    8  A    between atoms: C_18  and  N_25
REMARK    9  A    between atoms: C_20  and  C_22
REMARK   10  A    between atoms: C_20  and  C_23
REMARK   11  A    between atoms: C_23  and  C_24
REMARK   12  A    between atoms: N_25  and  S_26
REMARK   13  A    between atoms: S_26  and  C_29
REMARK   14  A    between atoms: C_32  and  O_35
REMARK   15  A    between atoms: O_35  and  C_36
REMARK                            x       y       z     vdW  Elec       q    Type
REMARK                         _______ _______ _______ _____ _____    ______ ____
ROOT
ATOM      1  C   UNL     1       3.591  -4.373  -8.287  0.00  0.00    +0.165 C 
ENDROOT
BRANCH   1  12
ATOM      2  N   UNL     1       5.394  -3.496  -1.940  0.00  0.00    -0.299 N 
ATOM      3  C   UNL     1       5.375  -4.756  -2.417  0.00  0.00    +0.303 C 
ATOM      4  O   UNL     1       5.511  -5.696  -1.658  0.00  0.00    -0.253 OA
ATOM      5  N   UNL     1       5.204  -4.975  -3.736  0.00  0.00    -0.280 N 
ATOM      6  C   UNL     1       5.153  -3.850  -4.680  0.00  0.00    +0.128 C 
ATOM      7  C   UNL     1       3.848  -3.941  -5.481  0.00  0.00    +0.127 C 
ATOM      8  N   UNL     1       3.710  -5.309  -6.000  0.00  0.00    -0.297 N 
ATOM      9  C   UNL     1       3.761  -6.434  -5.056  0.00  0.00    +0.130 C 
ATOM     10  C   UNL     1       5.072  -6.343  -4.256  0.00  0.00    +0.092 C 
ATOM     11  C   UNL     1       5.035  -7.334  -3.091  0.00  0.00    +0.030 C 
ATOM     12  C   UNL     1       3.539  -5.527  -7.319  0.00  0.00    +0.235 C 
ATOM     13  O   UNL     1       3.345  -6.653  -7.727  0.00  0.00    -0.274 OA
ATOM     14  H   UNL     1       5.359  -2.745  -2.553  0.00  0.00    +0.150 HD
BRANCH   2  15
ATOM     15  C   UNL     1       5.468  -3.260  -0.496  0.00  0.00    +0.106 C 
BRANCH  15  16
ATOM     16  C   UNL     1       5.476  -1.754  -0.225  0.00  0.00    +0.018 C 
BRANCH  16  18
ATOM     17  C   UNL     1       5.562  -0.003   1.555  0.00  0.00    +0.004 C 
ATOM     18  C   UNL     1       5.554  -1.508   1.284  0.00  0.00    -0.002 C 
ENDBRANCH  16  18
ENDBRANCH  15  16
ENDBRANCH   2  15
ENDBRANCH   1  12
BRANCH   1  19
ATOM     19  C   UNL     1       2.392  -3.454  -8.049  0.00  0.00    +0.013 C 
ATOM     20  C   UNL     1       2.523  -2.207  -8.925  0.00  0.00    +0.009 C 
BRANCH  19  21
ATOM     21  C   UNL     1       1.102  -4.195  -8.406  0.00  0.00    +0.002 C 
ATOM     22  C   UNL     1      -0.103  -3.322  -8.050  0.00  0.00    +0.004 C 
ENDBRANCH  19  21
ENDBRANCH   1  19
BRANCH   1  23
ATOM     23  N   UNL     1       3.549  -4.885  -9.659  0.00  0.00    -0.178 NA
ATOM     24  H   UNL     1       2.813  -5.449  -9.944  0.00  0.00    +0.149 HD
BRANCH  23  25
ATOM     25  S   UNL     1       4.758  -4.501 -10.724  0.00  0.00    +0.059 S 
ATOM     26  O   UNL     1       4.445  -5.153 -11.947  0.00  0.00    -0.153 OA
ATOM     27  O   UNL     1       4.944  -3.095 -10.636  0.00  0.00    -0.153 OA
BRANCH  25  28
ATOM     28  C   UNL     1       6.238  -5.243 -10.121  0.00  0.00    +0.105 A 
ATOM     29  C   UNL     1       7.055  -4.546  -9.251  0.00  0.00    +0.032 A 
ATOM     30  C   UNL     1       8.216  -5.126  -8.777  0.00  0.00    +0.047 A 
ATOM     31  C   UNL     1       8.562  -6.409  -9.176  0.00  0.00    +0.120 A 
ATOM     32  C   UNL     1       7.740  -7.107 -10.050  0.00  0.00    +0.047 A 
ATOM     33  C   UNL     1       6.577  -6.524 -10.516  0.00  0.00    +0.032 A 
BRANCH  31  34
ATOM     34  O   UNL     1       9.703  -6.982  -8.712  0.00  0.00    -0.495 OA
ATOM     35  C   UNL     1       9.996  -8.305  -9.165  0.00  0.00    +0.277 C 
ENDBRANCH  31  34
ENDBRANCH  25  28
ENDBRANCH  23  25
ENDBRANCH   1  23
TORSDOF 10
