REMARK  Name = ZINC64491013
REMARK  2 active torsions:
REMARK  status: ('A' for Active; 'I' for Inactive)
REMARK    1  A    between atoms: C_8  and  C_28
REMARK    2  A    between atoms: N_18  and  C_19
REMARK                            x       y       z     vdW  Elec       q    Type
REMARK                         _______ _______ _______ _____ _____    ______ ____
ROOT
ATOM      1  C   UNL     1       0.973   1.659  -1.159  0.00  0.00    +0.001 A 
ATOM      2  C   UNL     1       2.146   2.260  -0.683  0.00  0.00    +0.002 A 
ATOM      3  C   UNL     1       3.156   1.552  -0.134  0.00  0.00    +0.026 A 
ATOM      4  C   UNL     1       3.064   0.139  -0.015  0.00  0.00    +0.043 A 
ATOM      5  N   UNL     1       3.889  -0.750   0.491  0.00  0.00    -0.375 N 
ATOM      6  C   UNL     1       3.322  -2.080   0.282  0.00  0.00    +0.131 C 
ATOM      7  C   UNL     1       3.152  -2.842   1.601  0.00  0.00    +0.134 C 
ATOM      8  N   UNL     1       2.229  -3.962   1.359  0.00  0.00    -0.276 N 
ATOM      9  C   UNL     1       0.862  -3.715   0.888  0.00  0.00    +0.114 C 
ATOM     10  C   UNL     1       0.914  -2.945  -0.445  0.00  0.00    +0.052 C 
ATOM     11  C   UNL     1       1.936  -1.842  -0.294  0.00  0.00    -0.035 C 
ATOM     12  C   UNL     1       1.830  -0.522  -0.505  0.00  0.00    -0.001 A 
ATOM     13  C   UNL     1       0.781   0.323  -1.092  0.00  0.00    +0.010 A 
ATOM     14  C   UNL     1       2.643  -5.227   1.572  0.00  0.00    +0.307 C 
ATOM     15  O   UNL     1       3.732  -5.434   2.071  0.00  0.00    -0.252 OA
ATOM     16  N   UNL     1       1.850  -6.263   1.232  0.00  0.00    -0.269 N 
ATOM     17  H   UNL     1       1.018  -6.101   0.761  0.00  0.00    +0.156 HD
ATOM     18  H   UNL     1       4.732  -0.556   0.929  0.00  0.00    +0.160 HD
ENDROOT
BRANCH  16  19
ATOM     19  C   UNL     1       2.229  -7.572   1.558  0.00  0.00    +0.038 A 
ATOM     20  C   UNL     1       3.561  -7.864   1.819  0.00  0.00    +0.027 A 
ATOM     21  C   UNL     1       3.936  -9.155   2.141  0.00  0.00    +0.051 A 
ATOM     22  C   UNL     1       2.984 -10.160   2.204  0.00  0.00    +0.166 A 
ATOM     23  C   UNL     1       1.647  -9.869   1.943  0.00  0.00    +0.168 A 
ATOM     24  C   UNL     1       1.272  -8.575   1.625  0.00  0.00    +0.073 A 
ATOM     25  O   UNL     1       0.918 -11.017   2.069  0.00  0.00    -0.453 OA
ATOM     26  C   UNL     1       1.877 -12.090   2.009  0.00  0.00    +0.466 C 
ATOM     27  O   UNL     1       3.092 -11.491   2.495  0.00  0.00    -0.453 OA
ENDBRANCH  16  19
BRANCH   7  28
ATOM     28  C   UNL     1       2.578  -1.925   2.650  0.00  0.00    -0.025 A 
ATOM     29  C   UNL     1       3.352  -1.542   3.729  0.00  0.00    +0.008 A 
ATOM     30  C   UNL     1       2.827  -0.700   4.692  0.00  0.00    +0.038 A 
ATOM     31  C   UNL     1       1.526  -0.240   4.574  0.00  0.00    +0.123 A 
ATOM     32  C   UNL     1       0.752  -0.625   3.492  0.00  0.00    +0.038 A 
ATOM     33  C   UNL     1       1.281  -1.463   2.528  0.00  0.00    +0.008 A 
ATOM     34  F   UNL     1       1.012   0.582   5.514  0.00  0.00    -0.205 F 
ENDBRANCH   7  28
TORSDOF 2
