REMARK  Name = ZINC15674970
REMARK  5 active torsions:
REMARK  status: ('A' for Active; 'I' for Inactive)
REMARK    1  A    between atoms: C_6  and  C_7
REMARK    2  A    between atoms: C_9  and  C_12
REMARK    3  A    between atoms: C_15  and  O_25
REMARK    4  A    between atoms: C_18  and  C_19
REMARK    5  A    between atoms: C_18  and  N_52
REMARK                            x       y       z     vdW  Elec       q    Type
REMARK                         _______ _______ _______ _____ _____    ______ ____
ROOT
ATOM      1  C   UNL     1      -1.198  -0.915   0.009  0.00  0.00    +0.025 C 
ATOM      2  C   UNL     1      -1.964  -0.822  -1.334  0.00  0.00    +0.023 C 
ATOM      3  C   UNL     1      -3.394  -1.264  -0.949  0.00  0.00    +0.097 C 
ATOM      4  C   UNL     1      -3.493  -1.028   0.570  0.00  0.00    -0.046 C 
ATOM      5  N   UNL     1      -2.203  -0.459   0.977  0.00  0.00    +0.389 N 
ATOM      6  H   UNL     1      -2.255   0.567   0.963  0.00  0.00    -0.081 HD
ENDROOT
BRANCH   1   9
ATOM      7  C   UNL     1       1.974   0.775  -0.013  0.00  0.00    +0.202 A 
ATOM      8  N   UNL     1       1.259  -0.373  -0.012  0.00  0.00    -0.193 NA
ATOM      9  C   UNL     1       0.002  -0.004   0.002  0.00  0.00    +0.214 A 
ATOM     10  O   UNL     1      -0.016   1.333   0.009  0.00  0.00    -0.339 OA
ATOM     11  N   UNL     1       1.118   1.764   0.001  0.00  0.00    -0.056 NA
BRANCH   7  17
ATOM     12  C   UNL     1       4.243  -0.257  -0.038  0.00  0.00    +0.015 A 
ATOM     13  C   UNL     1       5.618  -0.148  -0.051  0.00  0.00    +0.050 A 
ATOM     14  C   UNL     1       6.219   1.102  -0.050  0.00  0.00    +0.166 A 
ATOM     15  C   UNL     1       5.433   2.254  -0.037  0.00  0.00    +0.167 A 
ATOM     16  C   UNL     1       4.055   2.148  -0.030  0.00  0.00    +0.061 A 
ATOM     17  C   UNL     1       3.453   0.891  -0.025  0.00  0.00    +0.026 A 
ATOM     18  O   UNL     1       6.256   3.343  -0.040  0.00  0.00    -0.453 OA
ATOM     19  C   UNL     1       7.549   2.849   0.358  0.00  0.00    +0.466 C 
ATOM     20  O   UNL     1       7.533   1.471  -0.061  0.00  0.00    -0.453 OA
ENDBRANCH   7  17
ENDBRANCH   1   9
BRANCH   3  21
ATOM     21  O   UNL     1      -3.583  -2.649  -1.248  0.00  0.00    -0.394 OA
ATOM     22  H   UNL     1      -4.448  -2.994  -0.987  0.00  0.00    +0.210 HD
ENDBRANCH   3  21
BRANCH   5  23
ATOM     23  C   UNL     1      -1.849  -0.912   2.355  0.00  0.00    -0.074 C 
BRANCH  23  24
ATOM     24  C   UNL     1      -3.017  -0.639   3.306  0.00  0.00    -0.028 C 
ATOM     25  C   UNL     1      -3.228   0.871   3.432  0.00  0.00    +0.002 C 
ATOM     26  C   UNL     1      -4.396   1.145   4.382  0.00  0.00    +0.000 C 
ATOM     27  C   UNL     1      -4.081   0.557   5.760  0.00  0.00    +0.000 C 
ATOM     28  C   UNL     1      -3.869  -0.953   5.633  0.00  0.00    +0.000 C 
ATOM     29  C   UNL     1      -2.702  -1.227   4.683  0.00  0.00    +0.002 C 
ENDBRANCH  23  24
ENDBRANCH   5  23
TORSDOF 5
