REMARK  Name = ZINC14863242
REMARK  6 active torsions:
REMARK  status: ('A' for Active; 'I' for Inactive)
REMARK    1  A    between atoms: C_7  and  N_17
REMARK    2  A    between atoms: C_8  and  C_10
REMARK    3  A    between atoms: C_10  and  C_12
REMARK    4  A    between atoms: C_18  and  C_20
REMARK    5  A    between atoms: C_20  and  C_21
REMARK    6  A    between atoms: C_21  and  N_22
REMARK                            x       y       z     vdW  Elec       q    Type
REMARK                         _______ _______ _______ _____ _____    ______ ____
ROOT
ATOM      1  N   UNL     1       0.124  -2.713   2.583  0.00  0.00    -0.282 N 
ATOM      2  C   UNL     1       0.459  -2.068   1.448  0.00  0.00    +0.219 C 
ATOM      3  O   UNL     1       0.722  -2.700   0.446  0.00  0.00    -0.275 OA
ATOM      4  H   UNL     1      -0.033  -2.211   3.398  0.00  0.00    +0.155 HD
ENDROOT
BRANCH   1  11
ATOM      5  C   UNL     1      -0.887  -5.774  -0.729  0.00  0.00    +0.001 A 
ATOM      6  C   UNL     1      -0.890  -7.073  -0.241  0.00  0.00    +0.004 A 
ATOM      7  C   UNL     1      -0.614  -7.327   1.085  0.00  0.00    +0.047 A 
ATOM      8  C   UNL     1      -0.328  -6.275   1.948  0.00  0.00    +0.138 A 
ATOM      9  C   UNL     1      -0.332  -4.961   1.448  0.00  0.00    +0.042 A 
ATOM     10  C   UNL     1      -0.609  -4.724   0.100  0.00  0.00    +0.013 A 
ATOM     11  C   UNL     1       0.005  -4.098   2.586  0.00  0.00    +0.091 A 
ATOM     12  C   UNL     1       0.174  -4.946   3.661  0.00  0.00    +0.200 A 
ATOM     13  O   UNL     1      -0.028  -6.221   3.260  0.00  0.00    -0.449 OA
BRANCH  12  14
ATOM     14  C   UNL     1       0.517  -4.530   5.020  0.00  0.00    +0.264 C 
ATOM     15  O   UNL     1       0.562  -3.345   5.303  0.00  0.00    -0.280 OA
BRANCH  14  16
ATOM     16  C   UNL     1       0.807  -5.540   6.045  0.00  0.00    +0.178 A 
ATOM     17  C   UNL     1       1.139  -5.291   7.347  0.00  0.00    +0.053 A 
ATOM     18  C   UNL     1       1.328  -6.538   7.962  0.00  0.00    +0.042 A 
ATOM     19  C   UNL     1       1.106  -7.483   7.021  0.00  0.00    +0.196 A 
ATOM     20  O   UNL     1       0.787  -6.877   5.869  0.00  0.00    -0.460 OA
ENDBRANCH  14  16
ENDBRANCH  12  14
ENDBRANCH   1  11
BRANCH   2  21
ATOM     21  C   UNL     1       0.505  -0.562   1.422  0.00  0.00    +0.115 C 
BRANCH  21  22
ATOM     22  C   UNL     1       0.908  -0.088   0.025  0.00  0.00    +0.126 C 
BRANCH  22  23
ATOM     23  N   UNL     1       0.954   1.376   0.000  0.00  0.00    -0.234 N 
ATOM     24  C   UNL     1      -0.089   2.165  -0.316  0.00  0.00    +0.254 C 
ATOM     25  O   UNL     1      -1.201   1.782  -0.622  0.00  0.00    -0.270 OA
ATOM     26  C   UNL     1       0.343   3.576  -0.227  0.00  0.00    +0.049 A 
ATOM     27  C   UNL     1      -0.283   4.795  -0.433  0.00  0.00    +0.014 A 
ATOM     28  C   UNL     1       0.431   5.971  -0.265  0.00  0.00    +0.001 A 
ATOM     29  C   UNL     1       1.762   5.936   0.107  0.00  0.00    +0.001 A 
ATOM     30  C   UNL     1       2.401   4.724   0.317  0.00  0.00    +0.014 A 
ATOM     31  C   UNL     1       1.700   3.540   0.152  0.00  0.00    +0.049 A 
ATOM     32  C   UNL     1       2.045   2.109   0.286  0.00  0.00    +0.254 C 
ATOM     33  O   UNL     1       3.132   1.668   0.600  0.00  0.00    -0.270 OA
ENDBRANCH  22  23
ENDBRANCH  21  22
ENDBRANCH   2  21
TORSDOF 6
