REMARK  Name = ZINC03289575
REMARK  8 active torsions:
REMARK  status: ('A' for Active; 'I' for Inactive)
REMARK    1  A    between atoms: C_1  and  C_2
REMARK    2  A    between atoms: C_2  and  C_3
REMARK    3  A    between atoms: C_2  and  C_4
REMARK    4  A    between atoms: C_2  and  N_5
REMARK    5  A    between atoms: C_9  and  C_11
REMARK    6  A    between atoms: C_11  and  O_12
REMARK    7  A    between atoms: O_12  and  C_13
REMARK    8  A    between atoms: C_13  and  C_15
REMARK                            x       y       z     vdW  Elec       q    Type
REMARK                         _______ _______ _______ _____ _____    ______ ____
ROOT
ATOM      1  C   UNL     1       0.002  -0.004   0.002  0.00  0.00    +0.328 C 
ENDROOT
BRANCH   1   6
ATOM      2  N   UNL     1      -3.133  -3.649   0.012  0.00  0.00    -0.294 N 
ATOM      3  C   UNL     1      -2.904  -2.321   0.017  0.00  0.00    +0.306 C 
ATOM      4  O   UNL     1      -3.839  -1.543   0.030  0.00  0.00    -0.252 OA
ATOM      5  N   UNL     1      -1.640  -1.854   0.008  0.00  0.00    -0.237 N 
ATOM      6  C   UNL     1      -1.412  -0.526   0.013  0.00  0.00    +0.258 C 
ATOM      7  O   UNL     1      -2.344   0.249   0.026  0.00  0.00    -0.272 OA
ATOM      8  H   UNL     1      -2.387  -4.269   0.002  0.00  0.00    +0.151 HD
ATOM      9  H   UNL     1      -0.894  -2.474  -0.003  0.00  0.00    +0.159 HD
BRANCH   2  11
ATOM     10  C   UNL     1      -5.247  -3.649  -1.217  0.00  0.00    +0.031 C 
ATOM     11  C   UNL     1      -4.507  -4.156   0.023  0.00  0.00    +0.028 C 
ATOM     12  C   UNL     1      -4.486  -5.686   0.014  0.00  0.00    +0.031 C 
ATOM     13  C   UNL     1      -5.223  -3.662   1.282  0.00  0.00    +0.031 C 
ENDBRANCH   2  11
ENDBRANCH   1   6
BRANCH   1  14
ATOM     14  O   UNL     1      -0.018   1.448   0.010  0.00  0.00    -0.452 OA
BRANCH  14  15
ATOM     15  C   UNL     1       1.174   2.076   0.002  0.00  0.00    +0.343 C 
ATOM     16  O   UNL     1       2.202   1.428  -0.011  0.00  0.00    -0.245 OA
BRANCH  15  17
ATOM     17  C   UNL     1       1.232   3.550   0.009  0.00  0.00    +0.097 A 
ATOM     18  C   UNL     1       1.265   4.246   1.222  0.00  0.00    +0.056 A 
ATOM     19  C   UNL     1       1.323   5.625   1.221  0.00  0.00    +0.022 A 
ATOM     20  C   UNL     1       1.338   6.320   0.025  0.00  0.00    +0.023 A 
ATOM     21  C   UNL     1       1.300   5.640  -1.180  0.00  0.00    +0.060 A 
ATOM     22  C   UNL     1       1.247   4.258  -1.195  0.00  0.00    +0.075 A 
ATOM     23 CL   UNL     1       1.200   3.406  -2.707  0.00  0.00    -0.081 Cl
ATOM     24 CL   UNL     1       1.320   6.522  -2.675  0.00  0.00    -0.082 Cl
ATOM     25 CL   UNL     1       1.239   3.377   2.724  0.00  0.00    -0.083 Cl
ENDBRANCH  15  17
ENDBRANCH  14  15
ENDBRANCH   1  14
TORSDOF 5
