REMARK  Name = ZINC04827453
REMARK  6 active torsions:
REMARK  status: ('A' for Active; 'I' for Inactive)
REMARK    1  A    between atoms: C_1  and  C_2
REMARK    2  A    between atoms: C_5  and  C_9
REMARK    3  A    between atoms: N_11  and  N_12
REMARK    4  A    between atoms: C_13  and  C_14
REMARK    5  A    between atoms: C_15  and  C_16
REMARK    6  A    between atoms: C_19  and  N_22
REMARK                            x       y       z     vdW  Elec       q    Type
REMARK                         _______ _______ _______ _____ _____    ______ ____
ROOT
ATOM      1  N   UNL     1      -6.029   1.597   0.040  0.00  0.00    -0.188 NA
ATOM      2  C   UNL     1      -4.896   0.957   0.031  0.00  0.00    +0.130 C 
ENDROOT
BRANCH   1   5
ATOM      3  C   UNL     1      -8.409   1.549   0.052  0.00  0.00    +0.265 C 
ATOM      4  O   UNL     1      -8.421   2.765   0.058  0.00  0.00    -0.268 OA
ATOM      5  N   UNL     1      -7.236   0.886   0.043  0.00  0.00    -0.203 N 
ATOM      6  H   UNL     1      -7.228  -0.084   0.038  0.00  0.00    +0.178 HD
BRANCH   3  11
ATOM      7  C   UNL     1     -13.366  -1.375   0.062  0.00  0.00    +0.044 C 
ATOM      8  C   UNL     1     -12.068  -0.608   0.059  0.00  0.00    -0.049 A 
ATOM      9  C   UNL     1     -10.864  -1.292   0.049  0.00  0.00    +0.004 A 
ATOM     10  C   UNL     1      -9.673  -0.598   0.047  0.00  0.00    +0.015 A 
ATOM     11  C   UNL     1      -9.682   0.799   0.054  0.00  0.00    +0.057 A 
ATOM     12  C   UNL     1     -10.900   1.483   0.069  0.00  0.00    +0.053 A 
ATOM     13  C   UNL     1     -12.086   0.774   0.066  0.00  0.00    +0.024 A 
ATOM     14 CL   UNL     1     -10.924   3.219   0.086  0.00  0.00    -0.083 Cl
ENDBRANCH   3  11
ENDBRANCH   1   5
BRANCH   2  15
ATOM     15  C   UNL     1      -3.674   1.677   0.029  0.00  0.00    +0.022 C 
ATOM     16  C   UNL     1      -2.500   1.013   0.020  0.00  0.00    +0.009 C 
BRANCH  16  17
ATOM     17  C   UNL     1      -1.232   1.760   0.017  0.00  0.00    -0.025 A 
ATOM     18  C   UNL     1      -0.013   1.076   0.008  0.00  0.00    +0.010 A 
ATOM     19  C   UNL     1       1.171   1.783   0.001  0.00  0.00    +0.033 A 
ATOM     20  C   UNL     1       1.154   3.167   0.008  0.00  0.00    +0.126 A 
ATOM     21  C   UNL     1      -0.048   3.852   0.022  0.00  0.00    +0.033 A 
ATOM     22  C   UNL     1      -1.240   3.159   0.029  0.00  0.00    +0.010 A 
BRANCH  20  23
ATOM     23  N   UNL     1       2.430   3.919  -0.001  0.00  0.00    +0.056 N 
ATOM     24  O   UNL     1       3.490   3.320  -0.013  0.00  0.00    -0.126 OA
ATOM     25  O   UNL     1       2.419   5.137   0.006  0.00  0.00    -0.126 OA
ENDBRANCH  20  23
ENDBRANCH  16  17
ENDBRANCH   2  15
TORSDOF 5
