REMARK  Name = ZINC14863277
REMARK  5 active torsions:
REMARK  status: ('A' for Active; 'I' for Inactive)
REMARK    1  A    between atoms: C_7  and  N_17
REMARK    2  A    between atoms: C_8  and  C_10
REMARK    3  A    between atoms: C_10  and  C_12
REMARK    4  A    between atoms: C_18  and  C_20
REMARK    5  A    between atoms: C_20  and  N_21
REMARK                            x       y       z     vdW  Elec       q    Type
REMARK                         _______ _______ _______ _____ _____    ______ ____
ROOT
ATOM      1  C   UNL     1       4.460  -0.043  -0.569  0.00  0.00    +0.001 A 
ATOM      2  C   UNL     1       5.261   1.081  -0.422  0.00  0.00    +0.004 A 
ATOM      3  C   UNL     1       4.703   2.312  -0.154  0.00  0.00    +0.047 A 
ATOM      4  C   UNL     1       3.323   2.436  -0.029  0.00  0.00    +0.138 A 
ATOM      5  C   UNL     1       2.519   1.292  -0.174  0.00  0.00    +0.042 A 
ATOM      6  C   UNL     1       3.102   0.054  -0.450  0.00  0.00    +0.013 A 
ATOM      7  C   UNL     1       1.136   1.749   0.006  0.00  0.00    +0.091 A 
ATOM      8  C   UNL     1       1.219   3.104   0.250  0.00  0.00    +0.200 A 
ATOM      9  O   UNL     1       2.515   3.485   0.224  0.00  0.00    -0.449 OA
ENDROOT
BRANCH   7  10
ATOM     10  N   UNL     1      -0.018   0.976  -0.050  0.00  0.00    -0.281 N 
ATOM     11  C   UNL     1      -0.096  -0.056  -0.914  0.00  0.00    +0.235 C 
ATOM     12  O   UNL     1       0.873  -0.369  -1.573  0.00  0.00    -0.274 OA
ATOM     13  H   UNL     1      -0.765   1.176   0.535  0.00  0.00    +0.155 HD
BRANCH  11  14
ATOM     14  C   UNL     1      -1.387  -0.819  -1.062  0.00  0.00    +0.213 C 
BRANCH  14  15
ATOM     15  N   UNL     1      -1.214  -1.883  -2.054  0.00  0.00    -0.225 N 
ATOM     16  C   UNL     1      -1.450  -1.741  -3.371  0.00  0.00    +0.254 C 
ATOM     17  O   UNL     1      -1.833  -0.727  -3.917  0.00  0.00    -0.270 OA
ATOM     18  C   UNL     1      -1.162  -3.027  -4.041  0.00  0.00    +0.049 A 
ATOM     19  C   UNL     1      -1.220  -3.468  -5.354  0.00  0.00    +0.014 A 
ATOM     20  C   UNL     1      -0.877  -4.777  -5.655  0.00  0.00    +0.001 A 
ATOM     21  C   UNL     1      -0.478  -5.644  -4.655  0.00  0.00    +0.001 A 
ATOM     22  C   UNL     1      -0.415  -5.217  -3.338  0.00  0.00    +0.014 A 
ATOM     23  C   UNL     1      -0.755  -3.911  -3.022  0.00  0.00    +0.049 A 
ATOM     24  C   UNL     1      -0.805  -3.132  -1.767  0.00  0.00    +0.254 C 
ATOM     25  O   UNL     1      -0.523  -3.549  -0.662  0.00  0.00    -0.270 OA
ENDBRANCH  14  15
ENDBRANCH  11  14
ENDBRANCH   7  10
BRANCH   8  26
ATOM     26  C   UNL     1       0.082   3.991   0.496  0.00  0.00    +0.264 C 
ATOM     27  O   UNL     1      -1.039   3.526   0.613  0.00  0.00    -0.280 OA
BRANCH  26  28
ATOM     28  C   UNL     1       0.291   5.440   0.604  0.00  0.00    +0.178 A 
ATOM     29  C   UNL     1      -0.677   6.376   0.831  0.00  0.00    +0.053 A 
ATOM     30  C   UNL     1      -0.035   7.623   0.857  0.00  0.00    +0.042 A 
ATOM     31  C   UNL     1       1.281   7.397   0.648  0.00  0.00    +0.196 A 
ATOM     32  O   UNL     1       1.474   6.080   0.501  0.00  0.00    -0.460 OA
ENDBRANCH  26  28
ENDBRANCH   8  26
TORSDOF 5
