REMARK  Name = ZINC40154708
REMARK  8 active torsions:
REMARK  status: ('A' for Active; 'I' for Inactive)
REMARK    1  A    between atoms: C_1  and  C_2
REMARK    2  A    between atoms: C_2  and  C_4
REMARK    3  A    between atoms: C_2  and  N_18
REMARK    4  A    between atoms: N_6  and  C_7
REMARK    5  A    between atoms: C_10  and  O_16
REMARK    6  A    between atoms: C_12  and  N_13
REMARK    7  A    between atoms: O_16  and  C_17
REMARK    8  A    between atoms: C_22  and  C_25
REMARK                            x       y       z     vdW  Elec       q    Type
REMARK                         _______ _______ _______ _____ _____    ______ ____
ROOT
ATOM      1  C   UNL     1      -0.049   1.562   0.025  0.00  0.00    +0.034 C 
ATOM      2  C   UNL     1      -0.009   0.033   0.007  0.00  0.00    +0.140 C 
ENDROOT
BRANCH   2   3
ATOM      3  N   UNL     1       0.706  -0.453   1.194  0.00  0.00    -0.287 NA
ATOM      4  C   UNL     1       0.056   0.013   2.428  0.00  0.00    +0.113 C 
ATOM      5  C   UNL     1       0.795  -0.564   3.638  0.00  0.00    +0.176 C 
ATOM      6  O   UNL     1       2.172  -0.182   3.574  0.00  0.00    -0.369 OA
ATOM      7  C   UNL     1       2.837  -0.620   2.386  0.00  0.00    +0.162 C 
ATOM      8  C   UNL     1       2.118  -0.044   1.164  0.00  0.00    +0.121 C 
BRANCH   7   9
ATOM      9  C   UNL     1       4.266  -0.140   2.403  0.00  0.00    -0.018 A 
ATOM     10  C   UNL     1       4.577   1.084   2.965  0.00  0.00    +0.007 A 
ATOM     11  C   UNL     1       5.887   1.525   2.981  0.00  0.00    +0.020 A 
ATOM     12  C   UNL     1       6.887   0.740   2.434  0.00  0.00    +0.041 A 
ATOM     13  C   UNL     1       6.575  -0.485   1.872  0.00  0.00    +0.020 A 
ATOM     14  C   UNL     1       5.265  -0.927   1.862  0.00  0.00    +0.007 A 
ATOM     15 CL   UNL     1       8.532   1.293   2.453  0.00  0.00    -0.084 Cl
ENDBRANCH   7   9
ENDBRANCH   2   3
BRANCH   2  16
ATOM     16  C   UNL     1      -1.416  -0.507   0.011  0.00  0.00    +0.234 C 
ATOM     17  O   UNL     1      -1.787  -1.226   0.915  0.00  0.00    -0.274 OA
ATOM     18  N   UNL     1      -2.262  -0.191  -0.989  0.00  0.00    -0.282 N 
ATOM     19  H   UNL     1      -1.987   0.434  -1.677  0.00  0.00    +0.155 HD
BRANCH  18  20
ATOM     20  C   UNL     1      -3.539  -0.767  -1.034  0.00  0.00    +0.064 A 
ATOM     21  C   UNL     1      -4.227  -1.025   0.144  0.00  0.00    +0.029 A 
ATOM     22  C   UNL     1      -5.485  -1.592   0.099  0.00  0.00    +0.047 A 
ATOM     23  C   UNL     1      -6.061  -1.905  -1.124  0.00  0.00    +0.122 A 
ATOM     24  C   UNL     1      -5.375  -1.647  -2.301  0.00  0.00    +0.080 A 
ATOM     25  C   UNL     1      -4.119  -1.074  -2.258  0.00  0.00    +0.151 A 
BRANCH  25  26
ATOM     26  N   UNL     1      -3.389  -0.793  -3.514  0.00  0.00    +0.058 N 
ATOM     27  O   UNL     1      -3.931  -0.970  -4.580  0.00  0.00    -0.126 OA
ATOM     28  O   UNL     1      -2.251  -0.388  -3.475  0.00  0.00    -0.126 OA
ENDBRANCH  25  26
BRANCH  23  29
ATOM     29  O   UNL     1      -7.300  -2.464  -1.168  0.00  0.00    -0.495 OA
ATOM     30  C   UNL     1      -7.949  -2.702   0.082  0.00  0.00    +0.277 C 
ENDBRANCH  23  29
ENDBRANCH  18  20
ENDBRANCH   2  16
TORSDOF 6
