REMARK  Name = ZINC13206908
REMARK  8 active torsions:
REMARK  status: ('A' for Active; 'I' for Inactive)
REMARK    1  A    between atoms: C_3  and  N_11
REMARK    2  A    between atoms: C_4  and  N_8
REMARK    3  A    between atoms: C_12  and  C_14
REMARK    4  A    between atoms: C_14  and  S_15
REMARK    5  A    between atoms: S_15  and  C_16
REMARK    6  A    between atoms: N_26  and  C_27
REMARK    7  A    between atoms: C_27  and  C_28
REMARK    8  A    between atoms: C_28  and  C_29
REMARK                            x       y       z     vdW  Elec       q    Type
REMARK                         _______ _______ _______ _____ _____    ______ ____
ROOT
ATOM      1  C   UNL     1      -0.381  -0.097   3.020  0.00  0.00    +0.173 A 
ATOM      2  N   UNL     1       0.202  -0.588   4.086  0.00  0.00    -0.223 NA
ATOM      3  C   UNL     1       1.195   0.078   4.720  0.00  0.00    +0.080 A 
ATOM      4  C   UNL     1       1.814  -0.442   5.860  0.00  0.00    +0.048 A 
ATOM      5  C   UNL     1       2.821   0.272   6.471  0.00  0.00    +0.043 A 
ATOM      6  C   UNL     1       3.228   1.503   5.968  0.00  0.00    +0.021 A 
ATOM      7  C   UNL     1       2.637   2.032   4.855  0.00  0.00    +0.017 A 
ATOM      8  C   UNL     1       1.616   1.331   4.216  0.00  0.00    +0.065 A 
ATOM      9  C   UNL     1       0.949   1.854   3.017  0.00  0.00    +0.262 A 
ATOM     10  O   UNL     1       1.266   2.927   2.536  0.00  0.00    -0.267 OA
ATOM     11  N   UNL     1      -0.032   1.102   2.466  0.00  0.00    -0.287 N 
ATOM     12 CL   UNL     1       3.592  -0.372   7.887  0.00  0.00    -0.083 Cl
ENDROOT
BRANCH   1  13
ATOM     13  S   UNL     1      -1.670  -1.029   2.263  0.00  0.00    -0.078 S 
BRANCH  13  14
ATOM     14  C   UNL     1      -1.711  -2.463   3.366  0.00  0.00    +0.173 C 
BRANCH  14  16
ATOM     15  N   UNL     1      -2.984  -4.574   3.573  0.00  0.00    -0.283 N 
ATOM     16  C   UNL     1      -2.772  -3.426   2.899  0.00  0.00    +0.228 C 
ATOM     17  O   UNL     1      -3.436  -3.167   1.917  0.00  0.00    -0.275 OA
ATOM     18  H   UNL     1      -2.402  -4.819   4.309  0.00  0.00    +0.155 HD
BRANCH  15  21
ATOM     19  C   UNL     1      -6.203  -5.717   2.210  0.00  0.00    +0.040 A 
ATOM     20  C   UNL     1      -5.158  -4.888   2.567  0.00  0.00    +0.028 A 
ATOM     21  C   UNL     1      -4.045  -5.412   3.210  0.00  0.00    +0.064 A 
ATOM     22  C   UNL     1      -3.983  -6.772   3.489  0.00  0.00    +0.150 A 
ATOM     23  C   UNL     1      -5.033  -7.596   3.135  0.00  0.00    +0.073 A 
ATOM     24  C   UNL     1      -6.142  -7.071   2.494  0.00  0.00    +0.126 A 
ATOM     25  F   UNL     1      -7.166  -7.880   2.144  0.00  0.00    -0.205 F 
BRANCH  22  26
ATOM     26  N   UNL     1      -2.795  -7.335   4.169  0.00  0.00    +0.058 N 
ATOM     27  O   UNL     1      -2.701  -8.538   4.332  0.00  0.00    -0.126 OA
ATOM     28  O   UNL     1      -1.913  -6.595   4.565  0.00  0.00    -0.126 OA
ENDBRANCH  22  26
ENDBRANCH  15  21
ENDBRANCH  14  16
ENDBRANCH  13  14
ENDBRANCH   1  13
BRANCH  11  29
ATOM     29  C   UNL     1      -0.729   1.579   1.270  0.00  0.00    +0.138 C 
BRANCH  29  30
ATOM     30  C   UNL     1       0.003   1.084   0.021  0.00  0.00    +0.147 C 
BRANCH  30  31
ATOM     31  C   UNL     1      -0.714   1.575  -1.210  0.00  0.00    +0.358 C 
ATOM     32  O   UNL     1      -1.708   2.252  -1.100  0.00  0.00    -0.246 OA
ATOM     33  O   UNL     1      -0.247   1.260  -2.429  0.00  0.00    -0.246 OA
ENDBRANCH  30  31
ENDBRANCH  29  30
ENDBRANCH  11  29
TORSDOF 8
