REMARK  Name = ZINC04893582
REMARK  7 active torsions:
REMARK  status: ('A' for Active; 'I' for Inactive)
REMARK    1  A    between atoms: C_1  and  C_2
REMARK    2  A    between atoms: C_5  and  C_8
REMARK    3  A    between atoms: C_11  and  S_13
REMARK    4  A    between atoms: S_13  and  C_14
REMARK    5  A    between atoms: C_14  and  C_15
REMARK    6  A    between atoms: N_17  and  C_18
REMARK    7  A    between atoms: C_21  and  N_25
REMARK                            x       y       z     vdW  Elec       q    Type
REMARK                         _______ _______ _______ _____ _____    ______ ____
ROOT
ATOM      1  C   UNL     1      -6.275   6.043   0.281  0.00  0.00    +0.175 C 
ENDROOT
BRANCH   1   2
ATOM      2  C   UNL     1      -4.961   5.316   0.158  0.00  0.00    +0.228 C 
ATOM      3  O   UNL     1      -3.921   5.939   0.157  0.00  0.00    -0.275 OA
ATOM      4  N   UNL     1      -4.942   3.973   0.048  0.00  0.00    -0.284 N 
ATOM      5  H   UNL     1      -5.774   3.481  -0.032  0.00  0.00    +0.155 HD
BRANCH   4   6
ATOM      6  C   UNL     1      -3.721   3.288   0.050  0.00  0.00    +0.052 A 
ATOM      7  C   UNL     1      -2.607   3.853   0.656  0.00  0.00    +0.027 A 
ATOM      8  C   UNL     1      -1.405   3.172   0.660  0.00  0.00    +0.034 A 
ATOM      9  C   UNL     1      -1.308   1.934   0.052  0.00  0.00    +0.128 A 
ATOM     10  C   UNL     1      -2.414   1.368  -0.553  0.00  0.00    +0.054 A 
ATOM     11  C   UNL     1      -3.622   2.041  -0.556  0.00  0.00    +0.064 A 
ATOM     12 CL   UNL     1      -5.011   1.330  -1.315  0.00  0.00    -0.082 Cl
BRANCH   9  13
ATOM     13  N   UNL     1      -0.016   1.210   0.054  0.00  0.00    +0.056 N 
ATOM     14  O   UNL     1       0.070   0.117  -0.476  0.00  0.00    -0.126 OA
ATOM     15  O   UNL     1       0.961   1.710   0.582  0.00  0.00    -0.126 OA
ENDBRANCH   9  13
ENDBRANCH   4   6
ENDBRANCH   1   2
BRANCH   1  16
ATOM     16  S   UNL     1      -5.970   7.823   0.410  0.00  0.00    -0.056 S 
BRANCH  16  20
ATOM     17  C   UNL     1      -9.361   9.682   0.728  0.00  0.00    +0.249 A 
ATOM     18  N   UNL     1      -9.746   8.432   0.646  0.00  0.00    -0.106 NA
ATOM     19  N   UNL     1      -8.714   7.672   0.534  0.00  0.00    -0.101 NA
ATOM     20  C   UNL     1      -7.627   8.409   0.539  0.00  0.00    +0.278 A 
ATOM     21  O   UNL     1      -8.011   9.693   0.668  0.00  0.00    -0.411 OA
BRANCH  17  26
ATOM     22  C   UNL     1     -12.784  14.275   1.272  0.00  0.00    +0.044 C 
ATOM     23  C   UNL     1     -11.887  13.072   1.129  0.00  0.00    -0.050 A 
ATOM     24  C   UNL     1     -12.440  11.806   1.053  0.00  0.00    +0.004 A 
ATOM     25  C   UNL     1     -11.625  10.700   0.923  0.00  0.00    +0.013 A 
ATOM     26  C   UNL     1     -10.240  10.861   0.867  0.00  0.00    +0.039 A 
ATOM     27  C   UNL     1      -9.688  12.141   0.949  0.00  0.00    +0.013 A 
ATOM     28  C   UNL     1     -10.515  13.239   1.074  0.00  0.00    +0.004 A 
ENDBRANCH  17  26
ENDBRANCH  16  20
ENDBRANCH   1  16
TORSDOF 6
