REMARK  Name = ZINC39583599
REMARK  6 active torsions:
REMARK  status: ('A' for Active; 'I' for Inactive)
REMARK    1  A    between atoms: C_4  and  C_7
REMARK    2  A    between atoms: C_11  and  S_20
REMARK    3  A    between atoms: N_13  and  C_14
REMARK    4  A    between atoms: C_14  and  C_15
REMARK    5  A    between atoms: S_20  and  C_21
REMARK    6  A    between atoms: C_21  and  C_22
REMARK                            x       y       z     vdW  Elec       q    Type
REMARK                         _______ _______ _______ _____ _____    ______ ____
ROOT
ATOM      1  C   UNL     1       3.679  -0.729  -0.072  0.00  0.00    +0.172 C 
ATOM      2  N   UNL     1       4.720   0.128   0.554  0.00  0.00    -0.233 NA
ATOM      3  N   UNL     1       5.728  -0.846   1.000  0.00  0.00    -0.229 NA
ATOM      4  C   UNL     1       4.939  -2.004   1.476  0.00  0.00    +0.201 C 
ATOM      5  N   UNL     1       3.630  -1.934   0.789  0.00  0.00    -0.250 NA
ATOM      6  H   UNL     1       4.342   0.642   1.336  0.00  0.00    +0.143 HD
ATOM      7  H   UNL     1       6.295  -0.465   1.743  0.00  0.00    +0.143 HD
ENDROOT
BRANCH   1  11
ATOM      8  C   UNL     1      -0.098   1.266  -0.072  0.00  0.00    +0.000 A 
ATOM      9  C   UNL     1       0.735   1.363   1.027  0.00  0.00    +0.000 A 
ATOM     10  C   UNL     1       1.957   0.718   1.027  0.00  0.00    +0.006 A 
ATOM     11  C   UNL     1       2.346  -0.026  -0.071  0.00  0.00    -0.015 A 
ATOM     12  C   UNL     1       1.513  -0.124  -1.170  0.00  0.00    +0.006 A 
ATOM     13  C   UNL     1       0.291   0.522  -1.170  0.00  0.00    +0.000 A 
ENDBRANCH   1  11
BRANCH   5  14
ATOM     14  C   UNL     1       2.531  -1.843   1.759  0.00  0.00    +0.163 C 
BRANCH  14  15
ATOM     15  C   UNL     1       2.401  -3.151   2.495  0.00  0.00    +0.119 A 
ATOM     16  C   UNL     1       3.028  -3.475   3.641  0.00  0.00    +0.046 A 
ATOM     17  C   UNL     1       2.621  -4.787   3.974  0.00  0.00    +0.041 A 
ATOM     18  C   UNL     1       1.770  -5.187   3.012  0.00  0.00    +0.195 A 
ATOM     19  O   UNL     1       1.636  -4.190   2.123  0.00  0.00    -0.467 OA
ENDBRANCH  14  15
ENDBRANCH   5  14
BRANCH   4  20
ATOM     20  S   UNL     1       5.782  -3.551   1.045  0.00  0.00    -0.117 S 
BRANCH  20  21
ATOM     21  C   UNL     1       5.929  -3.482  -0.761  0.00  0.00    +0.146 C 
BRANCH  21  22
ATOM     22  C   UNL     1       6.622  -4.726  -1.257  0.00  0.00    +0.118 A 
ATOM     23  N   UNL     1       7.967  -4.860  -1.409  0.00  0.00    -0.341 N 
ATOM     24  H   UNL     1       8.637  -4.184  -1.220  0.00  0.00    +0.167 HD
ATOM     25  C   UNL     1       8.202  -6.136  -1.880  0.00  0.00    +0.066 A 
ATOM     26  C   UNL     1       9.345  -6.845  -2.221  0.00  0.00    +0.028 A 
ATOM     27  C   UNL     1       9.235  -8.143  -2.673  0.00  0.00    +0.002 A 
ATOM     28  C   UNL     1       7.989  -8.743  -2.791  0.00  0.00    +0.002 A 
ATOM     29  C   UNL     1       6.853  -8.060  -2.460  0.00  0.00    +0.030 A 
ATOM     30  C   UNL     1       6.941  -6.744  -1.999  0.00  0.00    +0.089 A 
ATOM     31  N   UNL     1       6.022  -5.829  -1.596  0.00  0.00    -0.232 NA
ENDBRANCH  21  22
ENDBRANCH  20  21
ENDBRANCH   4  20
TORSDOF 6
