REMARK  Name = ZINC40866813
REMARK  7 active torsions:
REMARK  status: ('A' for Active; 'I' for Inactive)
REMARK    1  A    between atoms: C_1  and  C_2
REMARK    2  A    between atoms: C_5  and  O_9
REMARK    3  A    between atoms: C_7  and  C_8
REMARK    4  A    between atoms: O_9  and  C_10
REMARK    5  A    between atoms: C_10  and  C_11
REMARK    6  A    between atoms: C_16  and  C_19
REMARK    7  A    between atoms: C_22  and  N_25
REMARK                            x       y       z     vdW  Elec       q    Type
REMARK                         _______ _______ _______ _____ _____    ______ ____
ROOT
ATOM      1  C   UNL     1       0.079  -6.266  -1.108  0.00  0.00    +0.256 C 
ATOM      2  O   UNL     1       0.090  -6.735   0.010  0.00  0.00    -0.272 OA
ATOM      3  N   UNL     1       0.084  -7.081  -2.182  0.00  0.00    -0.262 N 
ATOM      4  C   UNL     1       0.102  -8.459  -2.007  0.00  0.00    +0.165 A 
ATOM      5  N   UNL     1       0.116  -9.416  -2.916  0.00  0.00    -0.225 NA
ATOM      6  C   UNL     1       0.134 -10.694  -2.569  0.00  0.00    +0.080 A 
ATOM      7  C   UNL     1       0.139 -11.030  -1.244  0.00  0.00    +0.076 A 
ATOM      8  S   UNL     1       0.123  -9.407  -0.492  0.00  0.00    -0.060 S 
ATOM      9  H   UNL     1       0.074  -6.705  -3.076  0.00  0.00    +0.157 HD
ENDROOT
BRANCH   6  10
ATOM     10  C   UNL     1       0.148 -11.752  -3.609  0.00  0.00    +0.001 A 
ATOM     11  C   UNL     1       0.160 -13.096  -3.240  0.00  0.00    +0.012 A 
ATOM     12  C   UNL     1       0.173 -14.076  -4.211  0.00  0.00    +0.033 A 
ATOM     13  C   UNL     1       0.174 -13.726  -5.550  0.00  0.00    +0.126 A 
ATOM     14  C   UNL     1       0.162 -12.394  -5.922  0.00  0.00    +0.033 A 
ATOM     15  C   UNL     1       0.143 -11.406  -4.959  0.00  0.00    +0.012 A 
BRANCH  13  16
ATOM     16  N   UNL     1       0.190 -14.782  -6.587  0.00  0.00    +0.056 N 
ATOM     17  O   UNL     1       0.201 -15.947  -6.264  0.00  0.00    -0.126 OA
ATOM     18  O   UNL     1       0.191 -14.479  -7.758  0.00  0.00    -0.126 OA
ENDBRANCH  13  16
ENDBRANCH   6  10
BRANCH   1  19
ATOM     19  C   UNL     1       0.058  -4.771  -1.298  0.00  0.00    +0.324 C 
BRANCH  19  20
ATOM     20  O   UNL     1       0.057  -4.129  -0.021  0.00  0.00    -0.483 OA
BRANCH  20  25
ATOM     21  C   UNL     1      -0.018   1.503   0.010  0.00  0.00    +0.044 C 
ATOM     22  C   UNL     1       0.002  -0.004   0.002  0.00  0.00    -0.047 A 
ATOM     23  C   UNL     1       0.006  -0.688  -1.200  0.00  0.00    +0.007 A 
ATOM     24  C   UNL     1       0.024  -2.069  -1.210  0.00  0.00    +0.046 A 
ATOM     25  C   UNL     1       0.039  -2.770  -0.013  0.00  0.00    +0.121 A 
ATOM     26  C   UNL     1       0.036  -2.082   1.191  0.00  0.00    +0.049 A 
ATOM     27  C   UNL     1       0.023  -0.701   1.196  0.00  0.00    -0.044 A 
ATOM     28  C   UNL     1       0.025   0.048   2.504  0.00  0.00    +0.044 C 
ENDBRANCH  20  25
ENDBRANCH  19  20
ENDBRANCH   1  19
TORSDOF 5
