REMARK  Name = ZINC15467613
REMARK  9 active torsions:
REMARK  status: ('A' for Active; 'I' for Inactive)
REMARK    1  A    between atoms: C_1  and  C_2
REMARK    2  A    between atoms: C_5  and  S_8
REMARK    3  A    between atoms: S_8  and  C_9
REMARK    4  A    between atoms: C_9  and  C_10
REMARK    5  A    between atoms: N_12  and  N_13
REMARK    6  A    between atoms: C_14  and  C_16
REMARK    7  A    between atoms: C_19  and  S_22
REMARK    8  A    between atoms: S_22  and  N_25
REMARK    9  A    between atoms: N_25  and  C_26
REMARK                            x       y       z     vdW  Elec       q    Type
REMARK                         _______ _______ _______ _____ _____    ______ ____
ROOT
ATOM      1  C   UNL     1      -1.285   2.188  -0.268  0.00  0.00    +0.038 A 
ATOM      2  C   UNL     1      -1.359   3.579  -0.184  0.00  0.00    +0.015 A 
ATOM      3  C   UNL     1      -2.590   4.197  -0.102  0.00  0.00    +0.029 A 
ATOM      4  C   UNL     1      -3.748   3.441  -0.089  0.00  0.00    +0.109 A 
ATOM      5  C   UNL     1      -3.681   2.061  -0.165  0.00  0.00    +0.029 A 
ATOM      6  C   UNL     1      -2.457   1.431  -0.255  0.00  0.00    +0.015 A 
ENDROOT
BRANCH   1   8
ATOM      7  N   UNL     1       1.160   2.253  -0.381  0.00  0.00    -0.230 N 
ATOM      8  C   UNL     1       0.030   1.519  -0.363  0.00  0.00    +0.260 C 
ATOM      9  O   UNL     1       0.092   0.307  -0.430  0.00  0.00    -0.269 OA
ATOM     10  H   UNL     1       1.111   3.220  -0.327  0.00  0.00    +0.173 HD
BRANCH   7  13
ATOM     11  C   UNL     1       3.536   2.354  -0.495  0.00  0.00    +0.239 C 
ATOM     12  O   UNL     1       3.474   3.563  -0.428  0.00  0.00    -0.273 OA
ATOM     13  N   UNL     1       2.406   1.620  -0.477  0.00  0.00    -0.233 N 
ATOM     14  H   UNL     1       2.455   0.652  -0.531  0.00  0.00    +0.173 HD
BRANCH  11  15
ATOM     15  C   UNL     1       4.876   1.673  -0.599  0.00  0.00    +0.171 C 
BRANCH  15  16
ATOM     16  S   UNL     1       6.191   2.922  -0.598  0.00  0.00    -0.116 S 
BRANCH  16  21
ATOM     17  C   UNL     1      11.273  -0.308  -1.024  0.00  0.00    +0.044 C 
ATOM     18  C   UNL     1      10.004   0.498  -0.918  0.00  0.00    -0.050 A 
ATOM     19  C   UNL     1      10.067   1.878  -0.849  0.00  0.00    +0.004 A 
ATOM     20  C   UNL     1       8.907   2.620  -0.751  0.00  0.00    +0.015 A 
ATOM     21  C   UNL     1       7.674   1.979  -0.723  0.00  0.00    +0.008 A 
ATOM     22  C   UNL     1       7.615   0.592  -0.788  0.00  0.00    +0.015 A 
ATOM     23  C   UNL     1       8.779  -0.143  -0.891  0.00  0.00    +0.004 A 
ENDBRANCH  16  21
ENDBRANCH  15  16
ENDBRANCH  11  15
ENDBRANCH   7  13
ENDBRANCH   1   8
BRANCH   4  24
ATOM     24  S   UNL     1      -5.315   4.238   0.025  0.00  0.00    +0.072 S 
ATOM     25  O   UNL     1      -5.135   5.560  -0.465  0.00  0.00    -0.150 OA
ATOM     26  O   UNL     1      -6.268   3.343  -0.532  0.00  0.00    -0.150 OA
BRANCH  24  27
ATOM     27  N   UNL     1      -5.679   4.376   1.635  0.00  0.00    -0.215 N 
ATOM     28  H   UNL     1      -6.475   3.950   1.990  0.00  0.00    +0.174 HD
BRANCH  27  29
ATOM     29  C   UNL     1      -4.839   5.104   2.481  0.00  0.00    +0.066 A 
ATOM     30  C   UNL     1      -4.202   6.247   2.014  0.00  0.00    +0.026 A 
ATOM     31  C   UNL     1      -3.377   6.968   2.855  0.00  0.00    +0.002 A 
ATOM     32  C   UNL     1      -3.175   6.548   4.157  0.00  0.00    +0.002 A 
ATOM     33  C   UNL     1      -3.804   5.408   4.624  0.00  0.00    +0.022 A 
ATOM     34  C   UNL     1      -4.635   4.684   3.790  0.00  0.00    +0.063 A 
ATOM     35 CL   UNL     1      -5.423   3.253   4.377  0.00  0.00    -0.082 Cl
ENDBRANCH  27  29
ENDBRANCH  24  27
ENDBRANCH   4  24
TORSDOF 8
