REMARK  Name = ZINC09065333
REMARK  5 active torsions:
REMARK  status: ('A' for Active; 'I' for Inactive)
REMARK    1  A    between atoms: C_4  and  C_7
REMARK    2  A    between atoms: C_7  and  C_8
REMARK    3  A    between atoms: C_7  and  N_65
REMARK    4  A    between atoms: C_19  and  C_21
REMARK    5  A    between atoms: C_22  and  O_35
REMARK                            x       y       z     vdW  Elec       q    Type
REMARK                         _______ _______ _______ _____ _____    ______ ____
ROOT
ATOM      1  C   UNL     1      -1.118   0.149   2.235  0.00  0.00    -0.058 C 
ATOM      2  C   UNL     1      -2.268  -0.344   3.120  0.00  0.00    +0.089 C 
ATOM      3  N   UNL     1      -2.320  -1.812   3.043  0.00  0.00    -0.301 N 
ATOM      4  C   UNL     1      -2.343  -2.439   1.713  0.00  0.00    +0.089 C 
ATOM      5  C   UNL     1      -1.190  -1.863   0.883  0.00  0.00    -0.058 C 
ATOM      6  C   UNL     1      -2.346  -2.563   4.162  0.00  0.00    +0.255 C 
ATOM      7  O   UNL     1      -2.484  -3.770   4.082  0.00  0.00    -0.270 OA
ATOM      8  N   UNL     1      -1.305  -0.389   0.870  0.00  0.00    +0.389 N 
ATOM      9  H   UNL     1      -2.241  -0.131   0.536  0.00  0.00    -0.080 HD
ENDROOT
BRANCH   6  10
ATOM     10  C   UNL     1      -2.209  -1.926   5.477  0.00  0.00    +0.143 A 
ATOM     11  C   UNL     1      -3.307  -1.318   6.090  0.00  0.00    +0.143 A 
ATOM     12  C   UNL     1      -3.113  -0.705   7.408  0.00  0.00    +0.041 A 
ATOM     13  C   UNL     1      -4.192  -0.092   8.057  0.00  0.00    +0.013 A 
ATOM     14  C   UNL     1      -4.015   0.481   9.283  0.00  0.00    +0.001 A 
ATOM     15  C   UNL     1      -2.768   0.456   9.889  0.00  0.00    +0.006 A 
ATOM     16  C   UNL     1      -1.692  -0.141   9.267  0.00  0.00    -0.023 A 
ATOM     17  C   UNL     1      -1.842  -0.728   8.014  0.00  0.00    +0.059 A 
ATOM     18  N   UNL     1      -0.776  -1.325   7.371  0.00  0.00    -0.307 N 
ATOM     19  C   UNL     1      -0.922  -1.910   6.165  0.00  0.00    +0.268 A 
ATOM     20  O   UNL     1       0.041  -2.438   5.637  0.00  0.00    -0.267 OA
ATOM     21  C   UNL     1       0.560  -1.337   7.981  0.00  0.00    +0.126 C 
ATOM     22  C   UNL     1       0.433  -1.381   9.504  0.00  0.00    +0.026 C 
ATOM     23  C   UNL     1      -0.353  -0.149   9.962  0.00  0.00    +0.039 C 
BRANCH  11  24
ATOM     24  O   UNL     1      -4.515  -1.300   5.488  0.00  0.00    -0.505 OA
ATOM     25  H   UNL     1      -4.550  -1.804   4.663  0.00  0.00    +0.292 HD
ENDBRANCH  11  24
ENDBRANCH   6  10
BRANCH   8  26
ATOM     26  C   UNL     1      -0.295   0.187  -0.042  0.00  0.00    -0.007 C 
BRANCH  26  30
ATOM     27  C   UNL     1      -0.633   4.445   0.027  0.00  0.00    +0.000 A 
ATOM     28  C   UNL     1       0.614   3.852  -0.030  0.00  0.00    +0.000 A 
ATOM     29  C   UNL     1       0.724   2.474  -0.052  0.00  0.00    +0.002 A 
ATOM     30  C   UNL     1      -0.414   1.689  -0.017  0.00  0.00    -0.057 A 
ATOM     31  C   UNL     1      -1.661   2.283   0.034  0.00  0.00    +0.002 A 
ATOM     32  C   UNL     1      -1.771   3.661   0.062  0.00  0.00    +0.000 A 
ENDBRANCH  26  30
BRANCH  26  33
ATOM     33  C   UNL     1      -0.556  -0.315  -1.438  0.00  0.00    -0.057 A 
ATOM     34  C   UNL     1      -1.855  -0.450  -1.892  0.00  0.00    +0.002 A 
ATOM     35  C   UNL     1      -2.094  -0.906  -3.175  0.00  0.00    +0.000 A 
ATOM     36  C   UNL     1      -1.036  -1.236  -4.000  0.00  0.00    +0.000 A 
ATOM     37  C   UNL     1       0.263  -1.106  -3.544  0.00  0.00    +0.000 A 
ATOM     38  C   UNL     1       0.503  -0.645  -2.263  0.00  0.00    +0.002 A 
ENDBRANCH  26  33
ENDBRANCH   8  26
TORSDOF 5
