REMARK  Name = ZINC00297734
REMARK  5 active torsions:
REMARK  status: ('A' for Active; 'I' for Inactive)
REMARK    1  A    between atoms: C_1  and  C_2
REMARK    2  A    between atoms: C_5  and  N_21
REMARK    3  A    between atoms: C_7  and  N_8
REMARK    4  A    between atoms: C_9  and  C_10
REMARK    5  A    between atoms: C_11  and  C_20
REMARK                            x       y       z     vdW  Elec       q    Type
REMARK                         _______ _______ _______ _____ _____    ______ ____
ROOT
ATOM      1  N   UNL     1       0.026  -0.037   2.398  0.00  0.00    -0.255 NA
ATOM      2  C   UNL     1      -0.053  -0.699   3.522  0.00  0.00    +0.121 C 
ENDROOT
BRANCH   2   3
ATOM      3  C   UNL     1      -0.161   0.025   4.792  0.00  0.00    +0.021 A 
ATOM      4  C   UNL     1      -0.197   1.379   4.960  0.00  0.00    +0.023 A 
ATOM      5  N   UNL     1      -0.302   1.673   6.281  0.00  0.00    -0.358 N 
ATOM      6  H   UNL     1      -0.346   2.571   6.646  0.00  0.00    +0.166 HD
ATOM      7  C   UNL     1      -0.339   0.515   7.031  0.00  0.00    +0.047 A 
ATOM      8  C   UNL     1      -0.258  -0.567   6.139  0.00  0.00    +0.009 A 
ATOM      9  C   UNL     1      -0.278  -1.872   6.623  0.00  0.00    +0.010 A 
ATOM     10  C   UNL     1      -0.380  -2.096   7.979  0.00  0.00    +0.001 A 
ATOM     11  C   UNL     1      -0.463  -1.028   8.860  0.00  0.00    +0.002 A 
ATOM     12  C   UNL     1      -0.438   0.269   8.396  0.00  0.00    +0.026 A 
ATOM     13  C   UNL     1      -0.130   2.393   3.848  0.00  0.00    +0.064 C 
ENDBRANCH   2   3
BRANCH   1  20
ATOM     14  C   UNL     1      -1.657   0.598   0.198  0.00  0.00    +0.046 C 
ATOM     15  C   UNL     1      -0.563  -0.435   0.110  0.00  0.00    -0.025 A 
ATOM     16  C   UNL     1      -0.344  -1.110  -1.074  0.00  0.00    +0.007 A 
ATOM     17  C   UNL     1       0.660  -2.058  -1.157  0.00  0.00    +0.033 A 
ATOM     18  C   UNL     1       1.450  -2.338  -0.055  0.00  0.00    +0.128 A 
ATOM     19  C   UNL     1       1.242  -1.671   1.134  0.00  0.00    +0.060 A 
ATOM     20  C   UNL     1       0.234  -0.707   1.223  0.00  0.00    +0.069 A 
BRANCH  18  21
ATOM     21  N   UNL     1       2.521  -3.355  -0.153  0.00  0.00    +0.056 N 
ATOM     22  O   UNL     1       2.705  -3.941  -1.195  0.00  0.00    -0.126 OA
ATOM     23  O   UNL     1       3.212  -3.600   0.808  0.00  0.00    -0.126 OA
ENDBRANCH  18  21
ENDBRANCH   1  20
TORSDOF 3
