REMARK  Name = ZINC38624447
REMARK  11 active torsions:
REMARK  status: ('A' for Active; 'I' for Inactive)
REMARK    1  A    between atoms: C_1  and  C_2
REMARK    2  A    between atoms: C_2  and  C_3
REMARK    3  A    between atoms: C_3  and  O_4
REMARK    4  A    between atoms: O_4  and  C_5
REMARK    5  A    between atoms: C_8  and  S_11
REMARK    6  A    between atoms: S_11  and  N_14
REMARK    7  A    between atoms: N_14  and  C_15
REMARK    8  A    between atoms: C_15  and  C_16
REMARK    9  A    between atoms: C_16  and  C_18
REMARK   10  A    between atoms: C_16  and  N_27
REMARK   11  A    between atoms: N_30  and  C_33
REMARK                            x       y       z     vdW  Elec       q    Type
REMARK                         _______ _______ _______ _____ _____    ______ ____
ROOT
ATOM      1  C   UNL     1       0.521  -6.106   7.989  0.00  0.00    +0.102 C 
ENDROOT
BRANCH   1   2
ATOM      2  C   UNL     1      -0.522  -7.127   7.614  0.00  0.00    -0.025 A 
ATOM      3  C   UNL     1      -1.620  -7.324   8.431  0.00  0.00    +0.009 A 
ATOM      4  C   UNL     1      -2.580  -8.259   8.092  0.00  0.00    +0.050 A 
ATOM      5  C   UNL     1      -2.443  -9.002   6.931  0.00  0.00    +0.166 A 
ATOM      6  C   UNL     1      -1.337  -8.805   6.108  0.00  0.00    +0.167 A 
ATOM      7  C   UNL     1      -0.382  -7.862   6.452  0.00  0.00    +0.054 A 
ATOM      8  O   UNL     1      -1.433  -9.649   5.039  0.00  0.00    -0.453 OA
ATOM      9  C   UNL     1      -2.394 -10.649   5.424  0.00  0.00    +0.466 C 
ATOM     10  O   UNL     1      -3.231  -9.970   6.378  0.00  0.00    -0.453 OA
ENDBRANCH   1   2
BRANCH   1  11
ATOM     11  N   UNL     1       1.752  -6.793   8.403  0.00  0.00    -0.298 NA
ATOM     12  C   UNL     1       2.256  -7.663   7.331  0.00  0.00    +0.066 C 
ATOM     13  C   UNL     1       3.568  -8.312   7.779  0.00  0.00    -0.064 C 
ATOM     14  N   UNL     1       3.334  -9.095   9.000  0.00  0.00    +0.379 N 
ATOM     15  C   UNL     1       2.854  -8.209  10.068  0.00  0.00    -0.064 C 
ATOM     16  C   UNL     1       1.537  -7.559   9.639  0.00  0.00    +0.066 C 
ATOM     17  C   UNL     1       4.590  -9.732   9.420  0.00  0.00    -0.096 C 
ATOM     18  H   UNL     1       2.642  -9.805   8.816  0.00  0.00    -0.082 HD
ENDBRANCH   1  11
BRANCH   1  19
ATOM     19  C   UNL     1       0.817  -5.213   6.782  0.00  0.00    +0.129 C 
BRANCH  19  20
ATOM     20  N   UNL     1       1.914  -4.299   7.108  0.00  0.00    -0.188 NA
ATOM     21  H   UNL     1       2.183  -4.174   8.032  0.00  0.00    +0.148 HD
BRANCH  20  22
ATOM     22  S   UNL     1       2.696  -3.480   5.900  0.00  0.00    +0.058 S 
ATOM     23  O   UNL     1       3.027  -4.441   4.907  0.00  0.00    -0.153 OA
ATOM     24  O   UNL     1       3.677  -2.667   6.530  0.00  0.00    -0.153 OA
BRANCH  22  28
ATOM     25  C   UNL     1      -0.313  -0.663   4.026  0.00  0.00    +0.121 A 
ATOM     26  C   UNL     1       0.462  -0.240   5.096  0.00  0.00    +0.047 A 
ATOM     27  C   UNL     1       1.379  -1.101   5.666  0.00  0.00    +0.032 A 
ATOM     28  C   UNL     1       1.526  -2.384   5.171  0.00  0.00    +0.105 A 
ATOM     29  C   UNL     1       0.755  -2.808   4.104  0.00  0.00    +0.032 A 
ATOM     30  C   UNL     1      -0.168  -1.952   3.534  0.00  0.00    +0.047 A 
BRANCH  25  31
ATOM     31  O   UNL     1      -1.216   0.183   3.463  0.00  0.00    -0.492 OA
BRANCH  31  32
ATOM     32  C   UNL     1      -1.311   1.495   4.021  0.00  0.00    +0.229 C 
BRANCH  32  34
ATOM     33  C   UNL     1      -2.473   3.701   3.860  0.00  0.00    +0.007 C 
ATOM     34  C   UNL     1      -2.372   2.296   3.263  0.00  0.00    +0.038 C 
ENDBRANCH  32  34
ENDBRANCH  31  32
ENDBRANCH  25  31
ENDBRANCH  22  28
ENDBRANCH  20  22
ENDBRANCH  19  20
ENDBRANCH   1  19
TORSDOF 9
