REMARK  Name = ZINC20058210
REMARK  6 active torsions:
REMARK  status: ('A' for Active; 'I' for Inactive)
REMARK    1  A    between atoms: C_1  and  O_2
REMARK    2  A    between atoms: O_2  and  C_3
REMARK    3  A    between atoms: C_8  and  C_9
REMARK    4  A    between atoms: C_20  and  N_27
REMARK    5  A    between atoms: C_22  and  O_25
REMARK    6  A    between atoms: O_25  and  C_26
REMARK                            x       y       z     vdW  Elec       q    Type
REMARK                         _______ _______ _______ _____ _____    ______ ____
ROOT
ATOM      1  C   UNL     1       2.434   0.033  -0.051  0.00  0.00    +0.109 C 
ATOM      2  C   UNL     1       1.304  -0.246   0.918  0.00  0.00    +0.029 C 
ATOM      3  C   UNL     1       0.927  -1.709   1.181  0.00  0.00    +0.033 C 
ATOM      4  C   UNL     1      -0.564  -1.585   1.504  0.00  0.00    -0.030 C 
ATOM      5  C   UNL     1      -1.066  -0.503   0.919  0.00  0.00    -0.023 C 
ATOM      6  C   UNL     1       0.012   0.155   0.140  0.00  0.00    +0.049 C 
ATOM      7  C   UNL     1       0.072   1.620  -0.057  0.00  0.00    -0.014 A 
ATOM      8  C   UNL     1      -1.069   2.396  -0.082  0.00  0.00    +0.039 A 
ATOM      9  C   UNL     1      -0.987   3.761  -0.278  0.00  0.00    +0.130 A 
ATOM     10  C   UNL     1       0.250   4.354  -0.458  0.00  0.00    +0.080 A 
ATOM     11  C   UNL     1       1.398   3.586  -0.434  0.00  0.00    +0.143 A 
ATOM     12  C   UNL     1       1.329   2.203  -0.226  0.00  0.00    +0.074 A 
ATOM     13  N   UNL     1       2.532   1.495  -0.192  0.00  0.00    -0.334 N 
ATOM     14  H   UNL     1       3.518   1.976  -0.264  0.00  0.00    +0.147 HD
ENDROOT
BRANCH   1  20
ATOM     15  C   UNL     1       4.097  -1.826   0.210  0.00  0.00    +0.125 A 
ATOM     16  C   UNL     1       5.290  -2.330   0.707  0.00  0.00    +0.047 A 
ATOM     17  C   UNL     1       6.100  -1.535   1.494  0.00  0.00    +0.019 A 
ATOM     18  C   UNL     1       5.726  -0.234   1.780  0.00  0.00    +0.018 A 
ATOM     19  C   UNL     1       4.540   0.273   1.280  0.00  0.00    +0.024 A 
ATOM     20  C   UNL     1       3.727  -0.520   0.493  0.00  0.00    +0.016 A 
ATOM     21 BR   UNL     1       6.837   0.853   2.857  0.00  0.00    -0.050 Br
BRANCH  15  23
ATOM     22  C   UNL     1       3.739  -3.944  -0.810  0.00  0.00    +0.277 C 
ATOM     23  O   UNL     1       3.295  -2.609  -0.559  0.00  0.00    -0.495 OA
ENDBRANCH  15  23
ENDBRANCH   1  20
BRANCH   9  24
ATOM     24  N   UNL     1      -2.216   4.585  -0.297  0.00  0.00    +0.057 N 
ATOM     25  O   UNL     1      -2.140   5.788  -0.473  0.00  0.00    -0.126 OA
ATOM     26  O   UNL     1      -3.304   4.060  -0.138  0.00  0.00    -0.126 OA
ENDBRANCH   9  24
BRANCH  11  27
ATOM     27  O   UNL     1       2.608   4.180  -0.614  0.00  0.00    -0.493 OA
ATOM     28  C   UNL     1       2.613   5.594  -0.821  0.00  0.00    +0.277 C 
ENDBRANCH  11  27
TORSDOF 4
