REMARK  Name = ZINC48958101
REMARK  9 active torsions:
REMARK  status: ('A' for Active; 'I' for Inactive)
REMARK    1  A    between atoms: C_1  and  C_2
REMARK    2  A    between atoms: C_2  and  C_4
REMARK    3  A    between atoms: C_2  and  N_14
REMARK    4  A    between atoms: C_15  and  C_17
REMARK    5  A    between atoms: N_19  and  C_20
REMARK    6  A    between atoms: C_23  and  C_26
REMARK    7  A    between atoms: C_26  and  C_27
REMARK    8  A    between atoms: C_26  and  C_28
REMARK    9  A    between atoms: C_26  and  C_29
REMARK                            x       y       z     vdW  Elec       q    Type
REMARK                         _______ _______ _______ _____ _____    ______ ____
ROOT
ATOM      1  N   UNL     1      -1.374  -0.507   0.013  0.00  0.00    -0.301 N 
ATOM      2  C   UNL     1      -2.053  -0.636  -1.144  0.00  0.00    +0.300 C 
ATOM      3  O   UNL     1      -1.529  -0.327  -2.194  0.00  0.00    -0.265 OA
ATOM      4  H   UNL     1      -1.793  -0.754   0.852  0.00  0.00    +0.150 HD
ENDROOT
BRANCH   2   5
ATOM      5  C   UNL     1      -3.451  -1.161  -1.134  0.00  0.00    +0.303 C 
ATOM      6  O   UNL     1      -3.976  -1.471  -0.085  0.00  0.00    -0.265 OA
ATOM      7  N   UNL     1      -4.130  -1.291  -2.291  0.00  0.00    -0.278 N 
ATOM      8  H   UNL     1      -3.737  -0.982  -3.122  0.00  0.00    +0.155 HD
BRANCH   7   9
ATOM      9  C   UNL     1      -5.401  -1.872  -2.294  0.00  0.00    +0.034 A 
ATOM     10  C   UNL     1      -5.804  -2.662  -3.363  0.00  0.00    +0.023 A 
ATOM     11  C   UNL     1      -7.061  -3.234  -3.362  0.00  0.00    +0.006 A 
ATOM     12  C   UNL     1      -7.918  -3.022  -2.299  0.00  0.00    -0.042 A 
ATOM     13  C   UNL     1      -7.521  -2.236  -1.232  0.00  0.00    +0.006 A 
ATOM     14  C   UNL     1      -6.263  -1.665  -1.224  0.00  0.00    +0.023 A 
BRANCH  12  15
ATOM     15  C   UNL     1      -9.289  -3.648  -2.301  0.00  0.00    -0.013 C 
ATOM     16  C   UNL     1      -9.154  -5.170  -2.370  0.00  0.00    +0.015 C 
ATOM     17  C   UNL     1     -10.030  -3.259  -1.020  0.00  0.00    +0.015 C 
ATOM     18  C   UNL     1     -10.075  -3.150  -3.516  0.00  0.00    +0.015 C 
ENDBRANCH  12  15
ENDBRANCH   7   9
ENDBRANCH   2   5
BRANCH   1  20
ATOM     19  C   UNL     1      -0.032   1.538   0.019  0.00  0.00    +0.033 C 
ATOM     20  C   UNL     1      -0.002   0.008   0.003  0.00  0.00    +0.101 C 
BRANCH  20  21
ATOM     21  C   UNL     1       0.731  -0.493   1.220  0.00  0.00    -0.024 A 
ATOM     22  C   UNL     1       0.082  -0.557   2.439  0.00  0.00    +0.009 A 
ATOM     23  C   UNL     1       0.751  -1.015   3.558  0.00  0.00    +0.050 A 
ATOM     24  C   UNL     1       2.077  -1.411   3.461  0.00  0.00    +0.162 A 
ATOM     25  C   UNL     1       2.729  -1.349   2.235  0.00  0.00    +0.162 A 
ATOM     26  C   UNL     1       2.050  -0.892   1.115  0.00  0.00    +0.055 A 
ATOM     27  O   UNL     1       4.027  -1.740   2.116  0.00  0.00    -0.485 OA
ATOM     28  C   UNL     1       4.782  -1.844   3.329  0.00  0.00    +0.270 C 
ATOM     29  C   UNL     1       3.932  -2.596   4.361  0.00  0.00    +0.270 C 
ATOM     30  O   UNL     1       2.724  -1.856   4.573  0.00  0.00    -0.485 OA
ENDBRANCH  20  21
ENDBRANCH   1  20
TORSDOF 5
