REMARK  Name = ZINC00145280
REMARK  7 active torsions:
REMARK  status: ('A' for Active; 'I' for Inactive)
REMARK    1  A    between atoms: C_1  and  C_2
REMARK    2  A    between atoms: C_4  and  C_23
REMARK    3  A    between atoms: C_5  and  N_9
REMARK    4  A    between atoms: C_10  and  C_12
REMARK    5  A    between atoms: C_12  and  O_13
REMARK    6  A    between atoms: O_13  and  C_14
REMARK    7  A    between atoms: C_17  and  N_20
REMARK                            x       y       z     vdW  Elec       q    Type
REMARK                         _______ _______ _______ _____ _____    ______ ____
ROOT
ATOM      1  N   UNL     1       3.270   6.433   0.006  0.00  0.00    -0.281 N 
ATOM      2  C   UNL     1       3.038   5.799   1.172  0.00  0.00    +0.255 C 
ATOM      3  O   UNL     1       2.746   6.436   2.162  0.00  0.00    -0.272 OA
ATOM      4  H   UNL     1       3.575   5.932  -0.766  0.00  0.00    +0.155 HD
ENDROOT
BRANCH   1   9
ATOM      5  C   UNL     1       2.470  12.038  -0.381  0.00  0.00    +0.044 C 
ATOM      6  C   UNL     1       2.682  10.549  -0.279  0.00  0.00    -0.049 A 
ATOM      7  C   UNL     1       3.937  10.050   0.017  0.00  0.00    +0.008 A 
ATOM      8  C   UNL     1       4.135   8.686   0.112  0.00  0.00    -0.028 A 
ATOM      9  C   UNL     1       3.072   7.816  -0.089  0.00  0.00    +0.055 A 
ATOM     10  C   UNL     1       1.813   8.320  -0.392  0.00  0.00    +0.063 A 
ATOM     11  C   UNL     1       1.621   9.686  -0.480  0.00  0.00    +0.025 A 
ATOM     12 CL   UNL     1       0.483   7.236  -0.652  0.00  0.00    -0.082 Cl
ATOM     13  C   UNL     1       5.504   8.144   0.435  0.00  0.00    +0.046 C 
ENDBRANCH   1   9
BRANCH   2  14
ATOM     14  C   UNL     1       3.140   4.297   1.246  0.00  0.00    +0.324 C 
BRANCH  14  15
ATOM     15  O   UNL     1       2.851   3.865   2.577  0.00  0.00    -0.483 OA
BRANCH  15  16
ATOM     16  C   UNL     1       2.900   2.528   2.816  0.00  0.00    +0.121 A 
ATOM     17  C   UNL     1       2.631   2.038   4.086  0.00  0.00    +0.048 A 
ATOM     18  C   UNL     1       2.681   0.679   4.327  0.00  0.00    +0.036 A 
ATOM     19  C   UNL     1       3.001  -0.194   3.303  0.00  0.00    +0.126 A 
ATOM     20  C   UNL     1       3.270   0.291   2.036  0.00  0.00    +0.036 A 
ATOM     21  C   UNL     1       3.221   1.650   1.791  0.00  0.00    +0.048 A 
BRANCH  19  22
ATOM     22  N   UNL     1       3.054  -1.650   3.563  0.00  0.00    +0.056 N 
ATOM     23  O   UNL     1       2.818  -2.078   4.678  0.00  0.00    -0.126 OA
ATOM     24  O   UNL     1       3.335  -2.419   2.662  0.00  0.00    -0.126 OA
ENDBRANCH  19  22
ENDBRANCH  15  16
ENDBRANCH  14  15
ENDBRANCH   2  14
TORSDOF 5
