REMARK  Name = ZINC44902017
REMARK  8 active torsions:
REMARK  status: ('A' for Active; 'I' for Inactive)
REMARK    1  A    between atoms: C_1  and  C_2
REMARK    2  A    between atoms: C_5  and  C_8
REMARK    3  A    between atoms: C_8  and  C_10
REMARK    4  A    between atoms: C_8  and  N_11
REMARK    5  A    between atoms: N_11  and  S_12
REMARK    6  A    between atoms: S_12  and  C_15
REMARK    7  A    between atoms: C_18  and  C_24
REMARK    8  A    between atoms: C_19  and  N_21
REMARK                            x       y       z     vdW  Elec       q    Type
REMARK                         _______ _______ _______ _____ _____    ______ ____
ROOT
ATOM      1  S   UNL     1      -1.582  -6.077   0.615  0.00  0.00    +0.059 S 
ATOM      2  O   UNL     1      -2.162  -6.072   1.912  0.00  0.00    -0.153 OA
ATOM      3  O   UNL     1      -2.364  -6.144  -0.569  0.00  0.00    -0.153 OA
ENDROOT
BRANCH   1   4
ATOM      4  C   UNL     1      -0.473  -7.445   0.565  0.00  0.00    +0.107 A 
ATOM      5  C   UNL     1      -0.131  -8.013  -0.648  0.00  0.00    +0.029 A 
ATOM      6  C   UNL     1       0.739  -9.087  -0.687  0.00  0.00    +0.007 A 
ATOM      7  C   UNL     1       1.267  -9.592   0.486  0.00  0.00    -0.020 A 
ATOM      8  C   UNL     1       0.925  -9.024   1.699  0.00  0.00    +0.131 A 
ATOM      9  C   UNL     1       0.059  -7.947   1.738  0.00  0.00    +0.061 A 
ATOM     10  C   UNL     1       2.214 -10.764   0.443  0.00  0.00    +0.046 C 
BRANCH   8  11
ATOM     11  N   UNL     1       1.490  -9.565   2.955  0.00  0.00    +0.057 N 
ATOM     12  O   UNL     1       0.812  -9.603   3.956  0.00  0.00    -0.126 OA
ATOM     13  O   UNL     1       2.629  -9.969   2.981  0.00  0.00    -0.126 OA
ENDBRANCH   8  11
ENDBRANCH   1   4
BRANCH   1  14
ATOM     14  N   UNL     1      -0.667  -4.701   0.501  0.00  0.00    -0.183 NA
ATOM     15  H   UNL     1      -0.632  -4.079   1.244  0.00  0.00    +0.149 HD
BRANCH  14  16
ATOM     16  C   UNL     1       0.089  -4.424  -0.723  0.00  0.00    +0.103 C 
ATOM     17  C   UNL     1       1.525  -4.927  -0.560  0.00  0.00    +0.031 C 
BRANCH  16  22
ATOM     18  C   UNL     1       0.140   1.270  -1.706  0.00  0.00    +0.044 C 
ATOM     19  C   UNL     1       0.127  -0.215  -1.450  0.00  0.00    -0.050 A 
ATOM     20  C   UNL     1      -0.024  -1.097  -2.503  0.00  0.00    +0.003 A 
ATOM     21  C   UNL     1      -0.036  -2.459  -2.268  0.00  0.00    +0.005 A 
ATOM     22  C   UNL     1       0.103  -2.939  -0.980  0.00  0.00    -0.029 A 
ATOM     23  C   UNL     1       0.256  -2.057   0.074  0.00  0.00    +0.005 A 
ATOM     24  C   UNL     1       0.272  -0.695  -0.162  0.00  0.00    +0.003 A 
ENDBRANCH  16  22
ENDBRANCH  14  16
ENDBRANCH   1  14
TORSDOF 5
