REMARK  Name = ZINC04581336
REMARK  6 active torsions:
REMARK  status: ('A' for Active; 'I' for Inactive)
REMARK    1  A    between atoms: C_2  and  C_3
REMARK    2  A    between atoms: C_3  and  N_4
REMARK    3  A    between atoms: C_8  and  C_9
REMARK    4  A    between atoms: C_12  and  N_15
REMARK    5  A    between atoms: N_20  and  C_21
REMARK    6  A    between atoms: C_24  and  O_27
REMARK                            x       y       z     vdW  Elec       q    Type
REMARK                         _______ _______ _______ _____ _____    ______ ____
ROOT
ATOM      1  N   UNL     1      -0.562  -2.179   0.876  0.00  0.00    -0.242 N 
ATOM      2  C   UNL     1      -0.969  -0.933   0.693  0.00  0.00    +0.259 C 
ATOM      3  O   UNL     1      -2.128  -0.598   0.847  0.00  0.00    -0.269 OA
ATOM      4  C   UNL     1       0.084   0.026   0.282  0.00  0.00    +0.078 C 
ATOM      5  C   UNL     1      -0.017   1.389   0.010  0.00  0.00    +0.028 C 
ATOM      6  S   UNL     1       1.518  -1.037   0.239  0.00  0.00    -0.049 S 
ATOM      7  C   UNL     1       0.750  -2.521   0.702  0.00  0.00    +0.169 C 
ATOM      8  N   UNL     1       1.310  -3.722   0.853  0.00  0.00    -0.225 NA
ENDROOT
BRANCH   5   9
ATOM      9  C   UNL     1      -1.290   2.002  -0.073  0.00  0.00    -0.024 A 
ATOM     10  C   UNL     1      -2.370   1.317  -0.658  0.00  0.00    +0.010 A 
ATOM     11  C   UNL     1      -3.605   1.920  -0.728  0.00  0.00    +0.033 A 
ATOM     12  C   UNL     1      -3.784   3.203  -0.234  0.00  0.00    +0.126 A 
ATOM     13  C   UNL     1      -2.726   3.890   0.341  0.00  0.00    +0.033 A 
ATOM     14  C   UNL     1      -1.484   3.304   0.426  0.00  0.00    +0.010 A 
BRANCH  12  15
ATOM     15  N   UNL     1      -5.116   3.844  -0.319  0.00  0.00    +0.056 N 
ATOM     16  O   UNL     1      -5.292   5.062   0.149  0.00  0.00    -0.126 OA
ATOM     17  O   UNL     1      -6.125   3.196  -0.863  0.00  0.00    -0.126 OA
ENDBRANCH  12  15
ENDBRANCH   5   9
BRANCH   8  18
ATOM     18  C   UNL     1       2.614  -3.879   0.640  0.00  0.00    +0.067 A 
ATOM     19  C   UNL     1       3.258  -3.289  -0.538  0.00  0.00    +0.031 A 
ATOM     20  C   UNL     1       4.591  -3.464  -0.720  0.00  0.00    +0.047 A 
ATOM     21  C   UNL     1       5.348  -4.207   0.195  0.00  0.00    +0.117 A 
ATOM     22  C   UNL     1       4.766  -4.789   1.328  0.00  0.00    +0.047 A 
ATOM     23  C   UNL     1       3.438  -4.650   1.577  0.00  0.00    +0.031 A 
BRANCH  21  24
ATOM     24  O   UNL     1       6.672  -4.366  -0.020  0.00  0.00    -0.507 OA
ATOM     25  H   UNL     1       6.894  -5.147  -0.544  0.00  0.00    +0.292 HD
ENDBRANCH  21  24
ENDBRANCH   8  18
BRANCH   1  26
ATOM     26  C   UNL     1      -1.528  -3.204   1.277  0.00  0.00    +0.142 C 
BRANCH  26  28
ATOM     27  C   UNL     1      -2.756  -3.126   3.386  0.00  0.00    +0.005 C 
ATOM     28  C   UNL     1      -1.602  -3.263   2.781  0.00  0.00    -0.015 C 
ENDBRANCH  26  28
ENDBRANCH   1  26
TORSDOF 6
