REMARK  Name = ZINC36118371
REMARK  4 active torsions:
REMARK  status: ('A' for Active; 'I' for Inactive)
REMARK    1  A    between atoms: C_1  and  C_2
REMARK    2  A    between atoms: C_4  and  C_23
REMARK    3  A    between atoms: N_8  and  C_9
REMARK    4  A    between atoms: C_14  and  C_16
REMARK                            x       y       z     vdW  Elec       q    Type
REMARK                         _______ _______ _______ _____ _____    ______ ____
ROOT
ATOM      1  C   UNL     1       3.492  -2.100  -0.125  0.00  0.00    +0.148 C 
ATOM      2  C   UNL     1       4.695  -2.809  -0.239  0.00  0.00    +0.170 C 
ATOM      3  C   UNL     1       4.849  -4.213  -0.267  0.00  0.00    +0.366 C 
ATOM      4  O   UNL     1       3.964  -5.049  -0.196  0.00  0.00    -0.243 OA
ATOM      5  O   UNL     1       6.173  -4.444  -0.388  0.00  0.00    -0.402 OA
ATOM      6  C   UNL     1       6.809  -3.256  -0.434  0.00  0.00    +0.232 C 
ATOM      7  N   UNL     1       5.945  -2.280  -0.352  0.00  0.00    -0.204 NA
ENDROOT
BRANCH   1  15
ATOM      8  C   UNL     1      -0.019   1.502   0.030  0.00  0.00    +0.044 C 
ATOM      9  C   UNL     1       0.002  -0.004   0.009  0.00  0.00    -0.045 A 
ATOM     10  C   UNL     1      -1.197  -0.726  -0.004  0.00  0.00    +0.024 A 
ATOM     11  C   UNL     1      -1.174  -2.082  -0.022  0.00  0.00    +0.015 A 
ATOM     12  N   UNL     1       0.003  -2.754  -0.029  0.00  0.00    -0.344 N 
ATOM     13  C   UNL     1       1.188  -2.078  -0.017  0.00  0.00    +0.131 A 
ATOM     14  C   UNL     1       1.192  -0.678  -0.004  0.00  0.00    +0.049 A 
ATOM     15  N   UNL     1       2.347  -2.753  -0.023  0.00  0.00    -0.236 NA
ATOM     16  C   UNL     1      -2.471  -2.849  -0.036  0.00  0.00    +0.063 C 
ATOM     17  H   UNL     1       0.002  -3.724  -0.041  0.00  0.00    +0.167 HD
ENDBRANCH   1  15
BRANCH   6  18
ATOM     18  C   UNL     1       8.270  -3.083  -0.563  0.00  0.00    +0.037 A 
ATOM     19  C   UNL     1       8.824  -1.801  -0.594  0.00  0.00    +0.014 A 
ATOM     20  C   UNL     1      10.189  -1.647  -0.715  0.00  0.00    +0.021 A 
ATOM     21  C   UNL     1      11.010  -2.759  -0.806  0.00  0.00    +0.041 A 
ATOM     22  C   UNL     1      10.466  -4.032  -0.777  0.00  0.00    +0.021 A 
ATOM     23  C   UNL     1       9.104  -4.200  -0.649  0.00  0.00    +0.014 A 
ATOM     24 CL   UNL     1      12.727  -2.555  -0.959  0.00  0.00    -0.084 Cl
ENDBRANCH   6  18
TORSDOF 2
