REMARK  Name = ZINC09923994
REMARK  15 active torsions:
REMARK  status: ('A' for Active; 'I' for Inactive)
REMARK    1  A    between atoms: C_1  and  C_2
REMARK    2  A    between atoms: C_2  and  O_3
REMARK    3  A    between atoms: O_3  and  C_4
REMARK    4  A    between atoms: C_4  and  C_6
REMARK    5  A    between atoms: C_7  and  C_22
REMARK    6  A    between atoms: C_12  and  C_14
REMARK    7  A    between atoms: C_17  and  O_20
REMARK    8  A    between atoms: O_20  and  C_21
REMARK    9  A    between atoms: C_22  and  O_23
REMARK   10  A    between atoms: O_23  and  C_24
REMARK   11  A    between atoms: C_24  and  C_26
REMARK   12  A    between atoms: C_29  and  N_35
REMARK   13  A    between atoms: C_30  and  N_32
REMARK   14  A    between atoms: N_35  and  C_36
REMARK   15  A    between atoms: N_35  and  C_37
REMARK                            x       y       z     vdW  Elec       q    Type
REMARK                         _______ _______ _______ _____ _____    ______ ____
ROOT
ATOM      1  C   UNL     1      -3.076   0.917  -1.395  0.00  0.00    +0.081 C 
ATOM      2  C   UNL     1      -4.286   1.478  -1.609  0.00  0.00    +0.061 C 
ATOM      3  N   UNL     1      -4.994   2.037  -0.584  0.00  0.00    -0.269 N 
ATOM      4  C   UNL     1      -4.563   2.075   0.683  0.00  0.00    +0.304 C 
ATOM      5  O   UNL     1      -5.265   2.596   1.528  0.00  0.00    -0.252 OA
ATOM      6  N   UNL     1      -3.375   1.556   1.052  0.00  0.00    -0.288 N 
ATOM      7  C   UNL     1      -2.534   0.929   0.020  0.00  0.00    +0.144 C 
ATOM      8  H   UNL     1      -5.859   2.429  -0.785  0.00  0.00    +0.156 HD
ATOM      9  H   UNL     1      -3.082   1.594   1.976  0.00  0.00    +0.151 HD
ENDROOT
BRANCH   7  10
ATOM     10  C   UNL     1      -1.208   1.645   0.002  0.00  0.00    -0.022 A 
ATOM     11  C   UNL     1      -0.031   0.920  -0.003  0.00  0.00    +0.009 A 
ATOM     12  C   UNL     1       1.185   1.574  -0.025  0.00  0.00    +0.046 A 
ATOM     13  C   UNL     1       1.225   2.961  -0.036  0.00  0.00    +0.120 A 
ATOM     14  C   UNL     1       0.043   3.687  -0.024  0.00  0.00    +0.046 A 
ATOM     15  C   UNL     1      -1.171   3.027  -0.002  0.00  0.00    +0.009 A 
BRANCH  13  16
ATOM     16  O   UNL     1       2.421   3.607  -0.058  0.00  0.00    -0.495 OA
ATOM     17  C   UNL     1       2.386   5.036  -0.068  0.00  0.00    +0.277 C 
ENDBRANCH  13  16
ENDBRANCH   7  10
BRANCH   1  18
ATOM     18  C   UNL     1      -2.341   0.338  -2.456  0.00  0.00    +0.339 C 
ATOM     19  O   UNL     1      -2.836   0.255  -3.564  0.00  0.00    -0.245 OA
BRANCH  18  20
ATOM     20  O   UNL     1      -1.092  -0.124  -2.238  0.00  0.00    -0.462 OA
BRANCH  20  22
ATOM     21  C   UNL     1       0.983  -1.159  -2.917  0.00  0.00    +0.048 C 
ATOM     22  C   UNL     1      -0.408  -0.696  -3.354  0.00  0.00    +0.229 C 
ENDBRANCH  20  22
ENDBRANCH  18  20
ENDBRANCH   1  18
BRANCH   2  23
ATOM     23  C   UNL     1      -4.863   1.488  -3.001  0.00  0.00    +0.283 C 
BRANCH  23  24
ATOM     24  O   UNL     1      -6.133   2.192  -2.993  0.00  0.00    -0.455 OA
BRANCH  24  25
ATOM     25  C   UNL     1      -6.784   2.292  -4.169  0.00  0.00    +0.340 C 
ATOM     26  O   UNL     1      -6.304   1.803  -5.173  0.00  0.00    -0.245 OA
BRANCH  25  27
ATOM     27  C   UNL     1      -8.079   2.992  -4.237  0.00  0.00    +0.061 A 
ATOM     28  C   UNL     1      -8.636   3.550  -3.081  0.00  0.00    +0.017 A 
ATOM     29  C   UNL     1      -9.833   4.204  -3.146  0.00  0.00    +0.026 A 
ATOM     30  C   UNL     1     -10.509   4.309  -4.359  0.00  0.00    +0.060 A 
ATOM     31  C   UNL     1      -9.965   3.752  -5.513  0.00  0.00    +0.148 A 
ATOM     32  C   UNL     1      -8.757   3.096  -5.456  0.00  0.00    +0.049 A 
BRANCH  31  33
ATOM     33  N   UNL     1     -10.686   3.866  -6.801  0.00  0.00    +0.058 N 
ATOM     34  O   UNL     1     -10.210   3.379  -7.810  0.00  0.00    -0.126 OA
ATOM     35  O   UNL     1     -11.756   4.446  -6.851  0.00  0.00    -0.126 OA
ENDBRANCH  31  33
BRANCH  30  36
ATOM     36  N   UNL     1     -11.730   4.972  -4.417  0.00  0.00    -0.334 N 
ATOM     37  C   UNL     1     -12.719   4.331  -3.540  0.00  0.00    +0.129 C 
ATOM     38  C   UNL     1     -11.573   6.394  -4.083  0.00  0.00    +0.129 C 
ENDBRANCH  30  36
ENDBRANCH  25  27
ENDBRANCH  24  25
ENDBRANCH  23  24
ENDBRANCH   2  23
TORSDOF 11
