REMARK  Name = ZINC01325330
REMARK  11 active torsions:
REMARK  status: ('A' for Active; 'I' for Inactive)
REMARK    1  A    between atoms: C_1  and  C_2
REMARK    2  A    between atoms: C_2  and  O_3
REMARK    3  A    between atoms: O_3  and  C_4
REMARK    4  A    between atoms: C_6  and  N_26
REMARK    5  A    between atoms: C_7  and  O_23
REMARK    6  A    between atoms: C_9  and  S_10
REMARK    7  A    between atoms: S_10  and  N_13
REMARK    8  A    between atoms: N_13  and  C_14
REMARK    9  A    between atoms: C_20  and  C_22
REMARK   10  A    between atoms: O_23  and  C_24
REMARK   11  A    between atoms: C_24  and  C_25
REMARK                            x       y       z     vdW  Elec       q    Type
REMARK                         _______ _______ _______ _____ _____    ______ ____
ROOT
ATOM      1  C   UNL     1       1.624  -1.379   1.769  0.00  0.00    +0.149 A 
ATOM      2  C   UNL     1       1.681  -2.425   0.861  0.00  0.00    +0.079 A 
ATOM      3  C   UNL     1       2.857  -2.680   0.173  0.00  0.00    +0.114 A 
ATOM      4  C   UNL     1       3.977  -1.880   0.391  0.00  0.00    +0.148 A 
ATOM      5  C   UNL     1       3.912  -0.833   1.296  0.00  0.00    +0.080 A 
ATOM      6  C   UNL     1       2.738  -0.581   1.981  0.00  0.00    +0.150 A 
ENDROOT
BRANCH   3   7
ATOM      7  N   UNL     1       2.920  -3.741  -0.743  0.00  0.00    -0.197 N 
ATOM      8  C   UNL     1       1.934  -4.607  -1.063  0.00  0.00    +0.251 A 
ATOM      9  N   UNL     1       2.416  -5.431  -1.957  0.00  0.00    -0.116 NA
ATOM     10  N   UNL     1       3.642  -5.151  -2.217  0.00  0.00    -0.023 NA
ATOM     11  N   UNL     1       4.024  -4.136  -1.519  0.00  0.00    -0.039 NA
ENDBRANCH   3   7
BRANCH   6  12
ATOM     12  S   UNL     1       2.660   0.752   3.131  0.00  0.00    +0.062 S 
ATOM     13  O   UNL     1       1.477   1.480   2.829  0.00  0.00    -0.153 OA
ATOM     14  O   UNL     1       3.946   1.358   3.139  0.00  0.00    -0.153 OA
BRANCH  12  15
ATOM     15  N   UNL     1       2.439   0.091   4.633  0.00  0.00    -0.187 NA
ATOM     16  H   UNL     1       1.615   0.253   5.118  0.00  0.00    +0.148 HD
BRANCH  15  17
ATOM     17  C   UNL     1       3.488  -0.740   5.229  0.00  0.00    +0.079 C 
ATOM     18  C   UNL     1       4.372   0.123   6.131  0.00  0.00    +0.020 C 
ATOM     19  C   UNL     1       3.518   0.740   7.241  0.00  0.00    +0.002 C 
ATOM     20  C   UNL     1       2.876  -0.374   8.070  0.00  0.00    +0.000 C 
ATOM     21  C   UNL     1       1.993  -1.238   7.167  0.00  0.00    +0.005 C 
ATOM     22  C   UNL     1       2.847  -1.855   6.058  0.00  0.00    +0.005 C 
ATOM     23  C   UNL     1       1.964  -2.718   5.155  0.00  0.00    +0.009 C 
ENDBRANCH  15  17
ENDBRANCH  12  15
ENDBRANCH   6  12
BRANCH   1  24
ATOM     24  O   UNL     1       0.472  -1.131   2.449  0.00  0.00    -0.490 OA
BRANCH  24  26
ATOM     25  C   UNL     1      -1.833  -1.563   3.033  0.00  0.00    +0.048 C 
ATOM     26  C   UNL     1      -0.636  -1.992   2.182  0.00  0.00    +0.226 C 
ENDBRANCH  24  26
ENDBRANCH   1  24
BRANCH   4  27
ATOM     27  O   UNL     1       5.132  -2.127  -0.283  0.00  0.00    -0.490 OA
BRANCH  27  28
ATOM     28  C   UNL     1       6.239  -1.267  -0.009  0.00  0.00    +0.226 C 
ATOM     29  C   UNL     1       7.440  -1.696  -0.855  0.00  0.00    +0.048 C 
ENDBRANCH  27  28
ENDBRANCH   4  27
TORSDOF 8
