REMARK  Name = ZINC64409161
REMARK  8 active torsions:
REMARK  status: ('A' for Active; 'I' for Inactive)
REMARK    1  A    between atoms: C_4  and  N_7
REMARK    2  A    between atoms: N_10  and  C_11
REMARK    3  A    between atoms: C_14  and  C_17
REMARK    4  A    between atoms: C_17  and  C_18
REMARK    5  A    between atoms: C_18  and  C_19
REMARK    6  A    between atoms: N_21  and  C_22
REMARK    7  A    between atoms: C_22  and  C_23
REMARK    8  A    between atoms: C_23  and  C_24
REMARK                            x       y       z     vdW  Elec       q    Type
REMARK                         _______ _______ _______ _____ _____    ______ ____
ROOT
ATOM      1  C   UNL     1       8.098  -6.037   0.320  0.00  0.00    +0.060 C 
ENDROOT
BRANCH   1   4
ATOM      2  C   UNL     1       4.848  -4.106   0.247  0.00  0.00    +0.252 C 
ATOM      3  N   UNL     1       6.197  -4.593   0.601  0.00  0.00    -0.259 NA
ATOM      4  C   UNL     1       6.722  -5.537  -0.039  0.00  0.00    +0.027 C 
ATOM      5  C   UNL     1       5.942  -6.167  -1.185  0.00  0.00    +0.123 C 
ATOM      6  S   UNL     1       4.620  -4.894  -1.407  0.00  0.00    -0.109 S 
BRANCH   2  10
ATOM      7  N   UNL     1       3.622  -0.651  -0.036  0.00  0.00    -0.269 N 
ATOM      8  C   UNL     1       3.645  -1.995   0.058  0.00  0.00    +0.306 C 
ATOM      9  O   UNL     1       2.603  -2.622   0.065  0.00  0.00    -0.252 OA
ATOM     10  N   UNL     1       4.823  -2.644   0.144  0.00  0.00    -0.269 N 
ATOM     11  H   UNL     1       4.452  -0.156  -0.120  0.00  0.00    +0.156 HD
ATOM     12  H   UNL     1       5.654  -2.144   0.139  0.00  0.00    +0.153 HD
BRANCH   7  16
ATOM     13  C   UNL     1      -0.015   1.381   0.031  0.00  0.00    +0.000 A 
ATOM     14  C   UNL     1       0.140   0.219   0.765  0.00  0.00    +0.002 A 
ATOM     15  C   UNL     1       1.344  -0.457   0.744  0.00  0.00    +0.023 A 
ATOM     16  C   UNL     1       2.400   0.031  -0.014  0.00  0.00    +0.035 A 
ATOM     17  C   UNL     1       2.241   1.198  -0.750  0.00  0.00    +0.023 A 
ATOM     18  C   UNL     1       1.034   1.870  -0.725  0.00  0.00    +0.002 A 
ENDBRANCH   7  16
ENDBRANCH   2  10
ENDBRANCH   1   4
BRANCH   1  19
ATOM     19  C   UNL     1       8.642  -5.229   1.499  0.00  0.00    +0.101 C 
BRANCH  19  20
ATOM     20  C   UNL     1      10.018  -5.729   1.858  0.00  0.00    +0.213 C 
ATOM     21  O   UNL     1      10.514  -6.642   1.232  0.00  0.00    -0.276 OA
ATOM     22  N   UNL     1      10.697  -5.162   2.875  0.00  0.00    -0.315 N 
ATOM     23  H   UNL     1      10.300  -4.431   3.376  0.00  0.00    +0.149 HD
BRANCH  22  24
ATOM     24  C   UNL     1      12.034  -5.647   3.224  0.00  0.00    +0.108 C 
BRANCH  24  25
ATOM     25  C   UNL     1      12.579  -4.839   4.404  0.00  0.00    +0.052 C 
BRANCH  25  26
ATOM     26  C   UNL     1      13.954  -5.339   4.763  0.00  0.00    -0.040 C 
ATOM     27  C   UNL     1      15.137  -4.835   4.345  0.00  0.00    -0.001 A 
ATOM     28  C   UNL     1      15.485  -3.713   3.463  0.00  0.00    +0.010 A 
ATOM     29  C   UNL     1      16.789  -3.445   3.225  0.00  0.00    +0.001 A 
ATOM     30  C   UNL     1      17.814  -4.210   3.798  0.00  0.00    +0.002 A 
ATOM     31  C   UNL     1      17.574  -5.255   4.618  0.00  0.00    +0.026 A 
ATOM     32  C   UNL     1      16.239  -5.626   4.937  0.00  0.00    +0.043 A 
ATOM     33  N   UNL     1      15.756  -6.582   5.692  0.00  0.00    -0.380 N 
ATOM     34  C   UNL     1      14.291  -6.502   5.669  0.00  0.00    +0.144 C 
ATOM     35  H   UNL     1      16.279  -7.232   6.187  0.00  0.00    +0.160 HD
ENDBRANCH  25  26
ENDBRANCH  24  25
ENDBRANCH  22  24
ENDBRANCH  19  20
ENDBRANCH   1  19
TORSDOF 8
