REMARK  Name = ZINC51705487
REMARK  9 active torsions:
REMARK  status: ('A' for Active; 'I' for Inactive)
REMARK    1  A    between atoms: C_1  and  C_2
REMARK    2  A    between atoms: C_2  and  C_3
REMARK    3  A    between atoms: C_3  and  C_24
REMARK    4  A    between atoms: N_6  and  C_10
REMARK    5  A    between atoms: C_10  and  C_11
REMARK    6  A    between atoms: C_11  and  O_13
REMARK    7  A    between atoms: O_13  and  C_14
REMARK    8  A    between atoms: C_18  and  N_21
REMARK    9  A    between atoms: C_19  and  C_20
REMARK                            x       y       z     vdW  Elec       q    Type
REMARK                         _______ _______ _______ _____ _____    ______ ____
ROOT
ATOM      1  C   UNL     1       1.391   0.477   1.308  0.00  0.00    +0.138 C 
ATOM      2  C   UNL     1       0.519   0.696   2.528  0.00  0.00    +0.252 C 
ATOM      3  O   UNL     1      -0.611   0.293   2.703  0.00  0.00    -0.272 OA
ATOM      4  N   UNL     1       1.262   1.430   3.380  0.00  0.00    -0.213 N 
ATOM      5  C   UNL     1       2.469   1.703   2.872  0.00  0.00    +0.310 C 
ATOM      6  O   UNL     1       3.317   2.351   3.454  0.00  0.00    -0.252 OA
ATOM      7  N   UNL     1       2.641   1.179   1.645  0.00  0.00    -0.281 N 
ATOM      8  H   UNL     1       3.433   1.251   1.090  0.00  0.00    +0.152 HD
ENDROOT
BRANCH   1   9
ATOM      9  C   UNL     1       1.649  -0.992   1.093  0.00  0.00    -0.015 A 
ATOM     10  C   UNL     1       0.828  -1.724   0.256  0.00  0.00    +0.006 A 
ATOM     11  C   UNL     1       1.065  -3.071   0.059  0.00  0.00    +0.000 A 
ATOM     12  C   UNL     1       2.124  -3.687   0.699  0.00  0.00    +0.000 A 
ATOM     13  C   UNL     1       2.947  -2.955   1.535  0.00  0.00    +0.000 A 
ATOM     14  C   UNL     1       2.712  -1.607   1.729  0.00  0.00    +0.006 A 
ENDBRANCH   1   9
BRANCH   1  16
ATOM     15  C   UNL     1       0.557   2.598   0.283  0.00  0.00    +0.007 C 
ATOM     16  C   UNL     1       0.744   1.095   0.067  0.00  0.00    +0.037 C 
ENDBRANCH   1  16
BRANCH   4  17
ATOM     17  C   UNL     1       0.804   1.875   4.698  0.00  0.00    +0.238 C 
BRANCH  17  18
ATOM     18  C   UNL     1       1.159   0.837   5.731  0.00  0.00    +0.330 C 
ATOM     19  O   UNL     1       1.736  -0.172   5.399  0.00  0.00    -0.249 OA
BRANCH  18  20
ATOM     20  O   UNL     1       0.835   1.032   7.019  0.00  0.00    -0.424 OA
BRANCH  20  21
ATOM     21  C   UNL     1       1.162   0.062   7.913  0.00  0.00    +0.137 A 
ATOM     22  C   UNL     1       2.353   0.143   8.621  0.00  0.00    +0.047 A 
ATOM     23  C   UNL     1       2.683  -0.844   9.530  0.00  0.00    +0.006 A 
ATOM     24  C   UNL     1       1.828  -1.911   9.734  0.00  0.00    +0.033 A 
ATOM     25  C   UNL     1       0.642  -1.994   9.029  0.00  0.00    +0.133 A 
ATOM     26  C   UNL     1       0.304  -1.007   8.124  0.00  0.00    +0.022 A 
ATOM     27  C   UNL     1      -0.993  -1.094   7.362  0.00  0.00    +0.050 C 
BRANCH  25  28
ATOM     28  N   UNL     1      -0.271  -3.139   9.250  0.00  0.00    +0.057 N 
ATOM     29  O   UNL     1      -0.396  -3.608  10.357  0.00  0.00    -0.126 OA
ATOM     30  O   UNL     1      -0.891  -3.605   8.322  0.00  0.00    -0.126 OA
ENDBRANCH  25  28
ENDBRANCH  20  21
ENDBRANCH  18  20
ENDBRANCH  17  18
ENDBRANCH   4  17
TORSDOF 7
