REMARK  Name = ZINC56274722
REMARK  7 active torsions:
REMARK  status: ('A' for Active; 'I' for Inactive)
REMARK    1  A    between atoms: C_1  and  C_2
REMARK    2  A    between atoms: C_4  and  C_11
REMARK    3  A    between atoms: C_7  and  N_8
REMARK    4  A    between atoms: N_13  and  C_14
REMARK    5  A    between atoms: C_19  and  O_20
REMARK    6  A    between atoms: O_20  and  C_21
REMARK    7  A    between atoms: C_21  and  C_22
REMARK                            x       y       z     vdW  Elec       q    Type
REMARK                         _______ _______ _______ _____ _____    ______ ____
ROOT
ATOM      1  C   UNL     1      -0.750  -3.017  -2.367  0.00  0.00    +0.248 C 
ATOM      2  O   UNL     1      -1.347  -2.694  -3.376  0.00  0.00    -0.270 OA
ATOM      3  N   UNL     1      -0.113  -4.203  -2.311  0.00  0.00    -0.279 N 
ATOM      4  H   UNL     1       0.293  -4.497  -1.481  0.00  0.00    +0.155 HD
ENDROOT
BRANCH   1   8
ATOM      5  C   UNL     1      -2.060   1.294  -0.222  0.00  0.00    +0.046 C 
ATOM      6  C   UNL     1      -1.350  -0.034  -0.165  0.00  0.00    -0.020 A 
ATOM      7  C   UNL     1      -1.380  -0.878  -1.257  0.00  0.00    +0.018 A 
ATOM      8  C   UNL     1      -0.722  -2.107  -1.202  0.00  0.00    +0.037 A 
ATOM      9  C   UNL     1      -0.037  -2.475  -0.042  0.00  0.00    +0.015 A 
ATOM     10  C   UNL     1      -0.015  -1.622   1.042  0.00  0.00    +0.034 A 
ATOM     11  C   UNL     1      -0.665  -0.402   0.979  0.00  0.00    +0.129 A 
BRANCH  11  12
ATOM     12  N   UNL     1      -0.632   0.511   2.143  0.00  0.00    +0.057 N 
ATOM     13  O   UNL     1      -0.768   1.702   1.982  0.00  0.00    -0.126 OA
ATOM     14  O   UNL     1      -0.470   0.067   3.256  0.00  0.00    -0.126 OA
ENDBRANCH  11  12
ENDBRANCH   1   8
BRANCH   3  15
ATOM     15  C   UNL     1      -0.038  -5.012  -3.452  0.00  0.00    +0.077 A 
ATOM     16  C   UNL     1      -0.130  -4.443  -4.715  0.00  0.00    +0.047 A 
ATOM     17  C   UNL     1      -0.055  -5.244  -5.840  0.00  0.00    +0.043 A 
ATOM     18  C   UNL     1       0.113  -6.611  -5.710  0.00  0.00    +0.024 A 
ATOM     19  C   UNL     1       0.205  -7.184  -4.455  0.00  0.00    +0.049 A 
ATOM     20  C   UNL     1       0.137  -6.388  -3.323  0.00  0.00    +0.142 A 
ATOM     21 CL   UNL     1      -0.172  -4.532  -7.419  0.00  0.00    -0.083 Cl
BRANCH  20  22
ATOM     22  O   UNL     1       0.234  -6.949  -2.088  0.00  0.00    -0.488 OA
BRANCH  22  23
ATOM     23  C   UNL     1       0.411  -8.366  -2.032  0.00  0.00    +0.260 C 
BRANCH  23  24
ATOM     24  C   UNL     1       0.499  -8.811  -0.571  0.00  0.00    +0.156 C 
ATOM     25  C   UNL     1       0.637 -10.352  -0.485  0.00  0.00    +0.037 C 
ATOM     26  C   UNL     1       1.336 -10.509   0.893  0.00  0.00    +0.031 C 
ATOM     27  C   UNL     1       2.234  -9.255   0.951  0.00  0.00    +0.160 C 
ATOM     28  O   UNL     1       1.693  -8.293   0.038  0.00  0.00    -0.373 OA
ENDBRANCH  23  24
ENDBRANCH  22  23
ENDBRANCH  20  22
ENDBRANCH   3  15
TORSDOF 6
