REMARK  Name = ZINC06226172
REMARK  5 active torsions:
REMARK  status: ('A' for Active; 'I' for Inactive)
REMARK    1  A    between atoms: C_1  and  C_2
REMARK    2  A    between atoms: C_2  and  N_3
REMARK    3  A    between atoms: C_10  and  N_13
REMARK    4  A    between atoms: C_11  and  O_12
REMARK    5  A    between atoms: N_14  and  C_15
REMARK                            x       y       z     vdW  Elec       q    Type
REMARK                         _______ _______ _______ _____ _____    ______ ____
ROOT
ATOM      1  N   UNL     1       0.688  -0.476  -1.203  0.00  0.00    -0.310 N 
ATOM      2  C   UNL     1       0.068  -0.736  -2.413  0.00  0.00    +0.054 A 
ATOM      3  C   UNL     1      -1.254  -0.645  -2.836  0.00  0.00    +0.026 A 
ATOM      4  C   UNL     1      -1.587  -0.976  -4.132  0.00  0.00    +0.002 A 
ATOM      5  C   UNL     1      -0.615  -1.403  -5.024  0.00  0.00    +0.001 A 
ATOM      6  C   UNL     1       0.700  -1.500  -4.624  0.00  0.00    +0.012 A 
ATOM      7  C   UNL     1       1.050  -1.167  -3.318  0.00  0.00    +0.031 A 
ATOM      8  C   UNL     1       2.325  -1.155  -2.575  0.00  0.00    +0.155 A 
ATOM      9  C   UNL     1       2.022  -0.716  -1.291  0.00  0.00    +0.222 A 
ENDROOT
BRANCH   1  11
ATOM     10  C   UNL     1      -0.019   1.526   0.010  0.00  0.00    +0.027 C 
ATOM     11  C   UNL     1       0.002  -0.004   0.002  0.00  0.00    +0.122 C 
ENDBRANCH   1  11
BRANCH   9  12
ATOM     12  O   UNL     1       2.914  -0.555  -0.288  0.00  0.00    -0.492 OA
ATOM     13  H   UNL     1       3.040  -1.344   0.256  0.00  0.00    +0.294 HD
ENDBRANCH   9  12
BRANCH   8  14
ATOM     14  N   UNL     1       3.538  -1.495  -3.047  0.00  0.00    -0.142 NA
ATOM     15  N   UNL     1       4.571  -1.434  -2.276  0.00  0.00    -0.129 NA
BRANCH  15  16
ATOM     16  C   UNL     1       5.801  -1.779  -2.755  0.00  0.00    +0.175 A 
ATOM     17  C   UNL     1       6.917  -1.712  -1.899  0.00  0.00    +0.050 A 
ATOM     18  C   UNL     1       8.149  -2.054  -2.365  0.00  0.00    +0.014 A 
ATOM     19  C   UNL     1       8.266  -2.469  -3.708  0.00  0.00    +0.001 A 
ATOM     20  C   UNL     1       9.507  -2.836  -4.251  0.00  0.00    +0.010 A 
ATOM     21  C   UNL     1       9.583  -3.232  -5.552  0.00  0.00    +0.001 A 
ATOM     22  C   UNL     1       8.444  -3.278  -6.353  0.00  0.00    +0.002 A 
ATOM     23  C   UNL     1       7.225  -2.929  -5.860  0.00  0.00    +0.028 A 
ATOM     24  C   UNL     1       7.105  -2.515  -4.521  0.00  0.00    +0.073 A 
ATOM     25  N   UNL     1       5.919  -2.174  -4.011  0.00  0.00    -0.226 NA
ENDBRANCH  15  16
ENDBRANCH   8  14
TORSDOF 4
