REMARK  Name = ZINC63491590
REMARK  5 active torsions:
REMARK  status: ('A' for Active; 'I' for Inactive)
REMARK    1  A    between atoms: C_1  and  C_2
REMARK    2  A    between atoms: C_6  and  C_8
REMARK    3  A    between atoms: C_15  and  C_19
REMARK    4  A    between atoms: C_19  and  S_20
REMARK    5  A    between atoms: S_20  and  C_21
REMARK                            x       y       z     vdW  Elec       q    Type
REMARK                         _______ _______ _______ _____ _____    ______ ____
ROOT
ATOM      1  C   UNL     1       0.054  -2.845   2.489  0.00  0.00    +0.183 C 
ATOM      2  N   UNL     1       0.548  -4.234   2.304  0.00  0.00    -0.262 N 
ATOM      3  N   UNL     1      -0.054  -5.171   3.095  0.00  0.00    -0.205 N 
ATOM      4  C   UNL     1       0.493  -6.378   3.437  0.00  0.00    +0.272 A 
ATOM      5  O   UNL     1       1.623  -6.661   3.073  0.00  0.00    -0.266 OA
ATOM      6  C   UNL     1      -0.242  -7.288   4.204  0.00  0.00    +0.096 A 
ATOM      7  C   UNL     1      -1.500  -6.962   4.620  0.00  0.00    +0.059 A 
ATOM      8  N   UNL     1      -1.996  -5.768   4.299  0.00  0.00    -0.226 NA
ATOM      9  C   UNL     1      -1.305  -4.911   3.592  0.00  0.00    +0.191 A 
ATOM     10  S   UNL     1      -1.653  -3.241   3.066  0.00  0.00    -0.058 S 
ATOM     11  H   UNL     1       0.513  -4.504   1.333  0.00  0.00    +0.168 HD
ENDROOT
BRANCH   1  17
ATOM     12  C   UNL     1       1.035   1.318  -0.111  0.00  0.00    +0.044 C 
ATOM     13  C   UNL     1       0.506  -0.092  -0.056  0.00  0.00    -0.050 A 
ATOM     14  C   UNL     1       0.006  -0.688  -1.199  0.00  0.00    +0.003 A 
ATOM     15  C   UNL     1      -0.479  -1.982  -1.148  0.00  0.00    +0.001 A 
ATOM     16  C   UNL     1      -0.464  -2.679   0.045  0.00  0.00    +0.006 A 
ATOM     17  C   UNL     1       0.037  -2.084   1.188  0.00  0.00    -0.015 A 
ATOM     18  C   UNL     1       0.526  -0.792   1.136  0.00  0.00    +0.009 A 
ENDBRANCH   1  17
BRANCH   7  19
ATOM     19  C   UNL     1      -2.316  -7.937   5.430  0.00  0.00    +0.128 C 
BRANCH  19  20
ATOM     20  S   UNL     1      -2.351  -7.404   7.163  0.00  0.00    -0.109 S 
BRANCH  20  21
ATOM     21  C   UNL     1      -3.357  -8.666   7.990  0.00  0.00    +0.236 C 
ATOM     22  N   UNL     1      -2.775  -9.996   7.776  0.00  0.00    -0.355 N 
ATOM     23  C   UNL     1      -3.660 -10.714   7.146  0.00  0.00    +0.061 A 
ATOM     24  C   UNL     1      -3.661 -12.101   6.662  0.00  0.00    +0.027 A 
ATOM     25  C   UNL     1      -4.748 -12.584   6.028  0.00  0.00    +0.002 A 
ATOM     26  C   UNL     1      -5.902 -11.810   5.806  0.00  0.00    +0.002 A 
ATOM     27  C   UNL     1      -6.006 -10.528   6.209  0.00  0.00    +0.027 A 
ATOM     28  C   UNL     1      -4.881  -9.895   6.910  0.00  0.00    +0.061 A 
ATOM     29  N   UNL     1      -4.702  -8.703   7.402  0.00  0.00    -0.355 N 
ATOM     30  H   UNL     1      -1.891 -10.287   8.051  0.00  0.00    +0.162 HD
ATOM     31  H   UNL     1      -5.341  -7.973   7.384  0.00  0.00    +0.162 HD
ENDBRANCH  20  21
ENDBRANCH  19  20
ENDBRANCH   7  19
TORSDOF 4
