REMARK  Name = ZINC66664693
REMARK  11 active torsions:
REMARK  status: ('A' for Active; 'I' for Inactive)
REMARK    1  A    between atoms: C_1  and  C_2
REMARK    2  A    between atoms: C_2  and  C_3
REMARK    3  A    between atoms: C_2  and  C_4
REMARK    4  A    between atoms: C_2  and  C_5
REMARK    5  A    between atoms: C_7  and  N_14
REMARK    6  A    between atoms: N_8  and  C_10
REMARK    7  A    between atoms: C_10  and  C_11
REMARK    8  A    between atoms: C_10  and  C_12
REMARK    9  A    between atoms: C_10  and  C_13
REMARK   10  A    between atoms: C_15  and  C_17
REMARK   11  A    between atoms: C_17  and  N_18
REMARK                            x       y       z     vdW  Elec       q    Type
REMARK                         _______ _______ _______ _____ _____    ______ ____
ROOT
ATOM      1  N   UNL     1       3.571  -1.156  -3.291  0.00  0.00    -0.269 N 
ATOM      2  C   UNL     1       4.688  -0.778  -2.639  0.00  0.00    +0.240 C 
ATOM      3  O   UNL     1       4.609  -0.297  -1.528  0.00  0.00    -0.273 OA
ATOM      4  H   UNL     1       3.635  -1.541  -4.179  0.00  0.00    +0.156 HD
ENDROOT
BRANCH   1   7
ATOM      5  C   UNL     1       0.707  -0.490  -1.238  0.00  0.00    +0.070 A 
ATOM      6  C   UNL     1       2.088  -0.472  -1.454  0.00  0.00    +0.069 A 
ATOM      7  C   UNL     1       2.323  -0.995  -2.689  0.00  0.00    +0.124 A 
ATOM      8  N   UNL     1       1.128  -1.329  -3.225  0.00  0.00    -0.245 N 
ATOM      9  N   UNL     1       0.133  -1.007  -2.294  0.00  0.00    -0.174 NA
BRANCH   5  11
ATOM     10  C   UNL     1      -0.019   1.526   0.010  0.00  0.00    +0.017 C 
ATOM     11  C   UNL     1       0.002  -0.004   0.002  0.00  0.00    +0.006 C 
ATOM     12  C   UNL     1       0.742  -0.511   1.242  0.00  0.00    +0.017 C 
ATOM     13  C   UNL     1      -1.433  -0.534   0.013  0.00  0.00    +0.017 C 
ENDBRANCH   5  11
BRANCH   8  14
ATOM     14  C   UNL     1       0.912  -1.927  -4.545  0.00  0.00    +0.057 C 
ATOM     15  C   UNL     1       1.642  -3.269  -4.622  0.00  0.00    +0.036 C 
ATOM     16  C   UNL     1      -0.586  -2.147  -4.766  0.00  0.00    +0.036 C 
ATOM     17  C   UNL     1       1.454  -0.988  -5.625  0.00  0.00    +0.036 C 
ENDBRANCH   8  14
ENDBRANCH   1   7
BRANCH   2  18
ATOM     18  C   UNL     1       6.036  -0.952  -3.290  0.00  0.00    +0.245 C 
BRANCH  18  19
ATOM     19  N   UNL     1       7.082  -0.469  -2.385  0.00  0.00    -0.203 N 
ATOM     20  C   UNL     1       7.736  -1.201  -1.460  0.00  0.00    +0.351 A 
ATOM     21  O   UNL     1       7.563  -2.385  -1.227  0.00  0.00    -0.244 OA
ATOM     22  N   UNL     1       8.616  -0.391  -0.838  0.00  0.00    -0.251 N 
ATOM     23  C   UNL     1       9.521  -0.623   0.171  0.00  0.00    +0.098 A 
ATOM     24  C   UNL     1      10.304   0.368   0.632  0.00  0.00    +0.018 A 
ATOM     25  C   UNL     1      10.213   1.666   0.089  0.00  0.00    +0.005 A 
ATOM     26  C   UNL     1       9.330   1.921  -0.907  0.00  0.00    +0.049 A 
ATOM     27  C   UNL     1       8.506   0.872  -1.389  0.00  0.00    +0.162 A 
ATOM     28  N   UNL     1       7.588   0.837  -2.327  0.00  0.00    -0.148 NA
ENDBRANCH  18  19
ENDBRANCH   2  18
TORSDOF 5
