REMARK  Name = ZINC33033778
REMARK  8 active torsions:
REMARK  status: ('A' for Active; 'I' for Inactive)
REMARK    1  A    between atoms: C_1  and  C_2
REMARK    2  A    between atoms: C_2  and  C_3
REMARK    3  A    between atoms: C_2  and  N_4
REMARK    4  A    between atoms: C_5  and  C_7
REMARK    5  A    between atoms: C_10  and  N_23
REMARK    6  A    between atoms: C_11  and  N_13
REMARK    7  A    between atoms: N_13  and  S_14
REMARK    8  A    between atoms: S_14  and  C_17
REMARK                            x       y       z     vdW  Elec       q    Type
REMARK                         _______ _______ _______ _____ _____    ______ ____
ROOT
ATOM      1  C   UNL     1      -3.027  -2.245  -0.474  0.00  0.00    +0.039 A 
ATOM      2  C   UNL     1      -4.059  -1.459   0.046  0.00  0.00    +0.015 A 
ATOM      3  C   UNL     1      -5.351  -1.936   0.056  0.00  0.00    +0.026 A 
ATOM      4  C   UNL     1      -5.633  -3.199  -0.451  0.00  0.00    +0.054 A 
ATOM      5  C   UNL     1      -4.606  -3.990  -0.972  0.00  0.00    +0.096 A 
ATOM      6  C   UNL     1      -3.309  -3.513  -0.990  0.00  0.00    +0.041 A 
ENDROOT
BRANCH   4   7
ATOM      7  N   UNL     1      -6.942  -3.677  -0.438  0.00  0.00    -0.332 N 
ATOM      8  C   UNL     1      -7.460  -4.432   0.713  0.00  0.00    +0.086 C 
ATOM      9  C   UNL     1      -8.794  -3.812   1.140  0.00  0.00    -0.063 C 
ATOM     10  N   UNL     1      -9.703  -3.764  -0.013  0.00  0.00    +0.381 N 
ATOM     11  C   UNL     1      -9.161  -2.867  -1.040  0.00  0.00    -0.063 C 
ATOM     12  C   UNL     1      -7.846  -3.436  -1.573  0.00  0.00    +0.086 C 
ATOM     13  H   UNL     1      -9.805  -4.691  -0.397  0.00  0.00    -0.086 HD
ATOM     14  H   UNL     1     -10.605  -3.426   0.286  0.00  0.00    -0.086 HD
ENDBRANCH   4   7
BRANCH   1  16
ATOM     15  N   UNL     1      -1.372  -0.511   0.012  0.00  0.00    -0.309 N 
ATOM     16  C   UNL     1      -1.643  -1.734  -0.485  0.00  0.00    +0.244 C 
ATOM     17  O   UNL     1      -0.747  -2.417  -0.942  0.00  0.00    -0.270 OA
ATOM     18  H   UNL     1      -2.087   0.033   0.377  0.00  0.00    +0.149 HD
BRANCH  15  20
ATOM     19  C   UNL     1      -0.019   1.526   0.010  0.00  0.00    +0.027 C 
ATOM     20  C   UNL     1       0.002  -0.004   0.002  0.00  0.00    +0.067 C 
ATOM     21  C   UNL     1       0.742  -0.511   1.242  0.00  0.00    +0.027 C 
ENDBRANCH  15  20
ENDBRANCH   1  16
BRANCH   5  22
ATOM     22  N   UNL     1      -4.892  -5.263  -1.481  0.00  0.00    -0.095 NA
BRANCH  22  23
ATOM     23  S   UNL     1      -3.674  -6.200  -2.099  0.00  0.00    +0.098 S 
ATOM     24  O   UNL     1      -3.203  -5.538  -3.264  0.00  0.00    -0.148 OA
ATOM     25  O   UNL     1      -2.821  -6.526  -1.010  0.00  0.00    -0.148 OA
BRANCH  23  26
ATOM     26  C   UNL     1      -4.402  -7.712  -2.638  0.00  0.00    +0.149 A 
ATOM     27  C   UNL     1      -4.912  -8.028  -3.853  0.00  0.00    +0.038 A 
ATOM     28  C   UNL     1      -5.438  -9.290  -4.052  0.00  0.00    +0.025 A 
ATOM     29  C   UNL     1      -5.430 -10.175  -3.024  0.00  0.00    +0.057 A 
ATOM     30  S   UNL     1      -4.653  -9.226  -1.726  0.00  0.00    -0.061 S 
ATOM     31 BR   UNL     1      -6.067 -11.955  -2.979  0.00  0.00    -0.043 Br
ENDBRANCH  23  26
ENDBRANCH  22  23
ENDBRANCH   5  22
TORSDOF 6
