REMARK  Name = ZINC66557813
REMARK  10 active torsions:
REMARK  status: ('A' for Active; 'I' for Inactive)
REMARK    1  A    between atoms: C_1  and  C_2
REMARK    2  A    between atoms: C_2  and  C_3
REMARK    3  A    between atoms: C_4  and  C_22
REMARK    4  A    between atoms: C_5  and  C_21
REMARK    5  A    between atoms: C_6  and  C_9
REMARK    6  A    between atoms: N_11  and  N_12
REMARK    7  A    between atoms: C_13  and  C_15
REMARK    8  A    between atoms: C_16  and  C_20
REMARK    9  A    between atoms: C_22  and  O_24
REMARK   10  A    between atoms: O_24  and  C_25
REMARK                            x       y       z     vdW  Elec       q    Type
REMARK                         _______ _______ _______ _____ _____    ______ ____
ROOT
ATOM      1  C   UNL     1       0.837  -1.684  -4.670  0.00  0.00    +0.277 C 
ATOM      2  O   UNL     1       1.772  -2.007  -5.379  0.00  0.00    -0.267 OA
ATOM      3  N   UNL     1      -0.422  -1.744  -5.146  0.00  0.00    -0.229 N 
ATOM      4  H   UNL     1      -1.167  -1.486  -4.581  0.00  0.00    +0.173 HD
ENDROOT
BRANCH   1   8
ATOM      5  C   UNL     1       0.707  -0.490  -1.238  0.00  0.00    +0.031 A 
ATOM      6  C   UNL     1       2.073  -0.653  -1.380  0.00  0.00    +0.083 A 
ATOM      7  C   UNL     1       2.300  -1.125  -2.693  0.00  0.00    -0.006 A 
ATOM      8  C   UNL     1       1.081  -1.231  -3.295  0.00  0.00    +0.107 A 
ATOM      9  N   UNL     1       0.117  -0.843  -2.390  0.00  0.00    -0.353 N 
ATOM     10  H   UNL     1      -0.839  -0.827  -2.560  0.00  0.00    +0.166 HD
ATOM     11  C   UNL     1       3.635  -1.450  -3.311  0.00  0.00    +0.047 C 
BRANCH   5  13
ATOM     12  C   UNL     1      -0.019   1.526   0.010  0.00  0.00    +0.010 C 
ATOM     13  C   UNL     1       0.002  -0.004   0.002  0.00  0.00    +0.050 C 
ENDBRANCH   5  13
BRANCH   6  14
ATOM     14  C   UNL     1       3.098  -0.386  -0.357  0.00  0.00    +0.341 C 
ATOM     15  O   UNL     1       3.438  -1.268   0.407  0.00  0.00    -0.245 OA
BRANCH  14  16
ATOM     16  O   UNL     1       3.659   0.836  -0.268  0.00  0.00    -0.464 OA
ATOM     17  C   UNL     1       4.646   1.024   0.747  0.00  0.00    +0.280 C 
ENDBRANCH  14  16
ENDBRANCH   6  14
ENDBRANCH   1   8
BRANCH   3  18
ATOM     18  N   UNL     1      -0.655  -2.176  -6.458  0.00  0.00    -0.230 N 
ATOM     19  C   UNL     1      -1.914  -2.235  -6.935  0.00  0.00    +0.267 C 
ATOM     20  O   UNL     1      -2.849  -1.913  -6.226  0.00  0.00    -0.268 OA
ATOM     21  H   UNL     1       0.090  -2.433  -7.024  0.00  0.00    +0.173 HD
BRANCH  19  22
ATOM     22  C   UNL     1      -2.157  -2.688  -8.308  0.00  0.00    +0.078 A 
ATOM     23  C   UNL     1      -3.360  -2.815  -8.986  0.00  0.00    -0.031 A 
ATOM     24  C   UNL     1      -3.271  -3.270 -10.280  0.00  0.00    +0.011 A 
ATOM     25  C   UNL     1      -2.050  -3.557 -10.795  0.00  0.00    +0.046 A 
ATOM     26  S   UNL     1      -0.983  -3.211  -9.544  0.00  0.00    -0.092 S 
ATOM     27  C   UNL     1      -4.681  -2.477  -8.345  0.00  0.00    +0.045 C 
ENDBRANCH  19  22
ENDBRANCH   3  18
TORSDOF 6
