REMARK  Name = ZINC35424658
REMARK  6 active torsions:
REMARK  status: ('A' for Active; 'I' for Inactive)
REMARK    1  A    between atoms: C_3  and  C_34
REMARK    2  A    between atoms: C_6  and  C_7
REMARK    3  A    between atoms: C_7  and  N_8
REMARK    4  A    between atoms: C_12  and  C_14
REMARK    5  A    between atoms: C_16  and  C_19
REMARK    6  A    between atoms: C_28  and  C_31
REMARK                            x       y       z     vdW  Elec       q    Type
REMARK                         _______ _______ _______ _____ _____    ______ ____
ROOT
ATOM      1  C   UNL     1      -2.584  -3.151  -2.082  0.00  0.00    +0.214 A 
ATOM      2  N   UNL     1      -2.942  -4.347  -1.709  0.00  0.00    -0.193 NA
ATOM      3  C   UNL     1      -2.543  -5.252  -2.620  0.00  0.00    +0.202 A 
ATOM      4  N   UNL     1      -1.923  -4.626  -3.588  0.00  0.00    -0.056 NA
ATOM      5  O   UNL     1      -1.945  -3.246  -3.255  0.00  0.00    -0.339 OA
ENDROOT
BRANCH   3   6
ATOM      6  C   UNL     1      -2.769  -6.718  -2.541  0.00  0.00    +0.027 A 
ATOM      7  C   UNL     1      -3.452  -7.281  -1.457  0.00  0.00    +0.029 A 
ATOM      8  C   UNL     1      -3.642  -8.646  -1.419  0.00  0.00    +0.085 A 
ATOM      9  N   UNL     1      -3.190  -9.422  -2.386  0.00  0.00    -0.350 N 
ATOM     10  C   UNL     1      -2.538  -8.933  -3.429  0.00  0.00    +0.099 A 
ATOM     11  C   UNL     1      -2.310  -7.567  -3.546  0.00  0.00    +0.053 A 
ATOM     12  N   UNL     1      -2.082  -9.794  -4.421  0.00  0.00    -0.317 N 
ATOM     13  C   UNL     1      -2.200 -11.250  -4.261  0.00  0.00    +0.107 C 
ATOM     14  C   UNL     1      -2.921 -11.824  -5.484  0.00  0.00    +0.031 C 
ATOM     15  C   UNL     1      -2.187 -11.389  -6.755  0.00  0.00    +0.078 C 
ATOM     16  C   UNL     1      -2.202  -9.862  -6.857  0.00  0.00    +0.031 C 
ATOM     17  C   UNL     1      -1.479  -9.265  -5.652  0.00  0.00    +0.107 C 
ATOM     18  H   UNL     1      -3.340 -10.379  -2.330  0.00  0.00    +0.166 HD
BRANCH  15  19
ATOM     19  C   UNL     1      -2.873 -11.980  -7.959  0.00  0.00    +0.214 C 
ATOM     20  O   UNL     1      -3.853 -12.680  -7.815  0.00  0.00    -0.276 OA
ATOM     21  N   UNL     1      -2.399 -11.730  -9.195  0.00  0.00    -0.329 N 
ATOM     22  H   UNL     1      -1.615 -11.170  -9.310  0.00  0.00    +0.145 HD
ATOM     23  H   UNL     1      -2.841 -12.111  -9.970  0.00  0.00    +0.145 HD
ENDBRANCH  15  19
ENDBRANCH   3   6
BRANCH   1  28
ATOM     24  N   UNL     1      -1.635  -1.042  -1.303  0.00  0.00    +0.390 N 
ATOM     25  C   UNL     1      -1.940   0.253  -1.946  0.00  0.00    -0.077 C 
ATOM     26  C   UNL     1      -3.139  -0.043  -2.882  0.00  0.00    -0.020 C 
ATOM     27  C   UNL     1      -3.950  -1.061  -2.038  0.00  0.00    -0.008 C 
ATOM     28  C   UNL     1      -2.851  -1.876  -1.325  0.00  0.00    +0.022 C 
ATOM     29  H   UNL     1      -0.896  -1.506  -1.811  0.00  0.00    -0.080 HD
BRANCH  24  30
ATOM     30  C   UNL     1      -1.215  -0.817   0.087  0.00  0.00    -0.042 C 
BRANCH  30  36
ATOM     31  C   UNL     1       0.097   1.314   0.119  0.00  0.00    +0.002 A 
ATOM     32  C   UNL     1       1.290   2.005   0.132  0.00  0.00    +0.015 A 
ATOM     33  C   UNL     1       2.499   1.304   0.129  0.00  0.00    +0.063 A 
ATOM     34  C   UNL     1       2.489  -0.093   0.111  0.00  0.00    +0.015 A 
ATOM     35  C   UNL     1       1.287  -0.771   0.097  0.00  0.00    +0.002 A 
ATOM     36  C   UNL     1       0.094  -0.070   0.101  0.00  0.00    -0.064 A 
BRANCH  33  37
ATOM     37  C   UNL     1       3.780   2.035   0.143  0.00  0.00    +0.387 C 
ATOM     38  O   UNL     1       3.786   3.258   0.158  0.00  0.00    -0.241 OA
ATOM     39  O   UNL     1       4.837   1.419   0.139  0.00  0.00    -0.241 OA
ENDBRANCH  33  37
ENDBRANCH  30  36
ENDBRANCH  24  30
ENDBRANCH   1  28
TORSDOF 6
