REMARK  Name = ZINC14244402
REMARK  10 active torsions:
REMARK  status: ('A' for Active; 'I' for Inactive)
REMARK    1  A    between atoms: C_1  and  C_2
REMARK    2  A    between atoms: C_2  and  C_3
REMARK    3  A    between atoms: C_3  and  C_4
REMARK    4  A    between atoms: C_4  and  N_5
REMARK    5  A    between atoms: C_11  and  C_16
REMARK    6  A    between atoms: N_18  and  N_19
REMARK    7  A    between atoms: C_20  and  C_22
REMARK    8  A    between atoms: C_25  and  C_27
REMARK    9  A    between atoms: C_27  and  O_28
REMARK   10  A    between atoms: O_28  and  C_29
REMARK                            x       y       z     vdW  Elec       q    Type
REMARK                         _______ _______ _______ _____ _____    ______ ____
ROOT
ATOM      1  C   UNL     1       1.328   7.353   0.029  0.00  0.00    +0.260 C 
ATOM      2  O   UNL     1       2.543   7.375   0.018  0.00  0.00    -0.269 OA
ATOM      3  N   UNL     1       0.633   8.507   0.043  0.00  0.00    -0.230 N 
ATOM      4  H   UNL     1      -0.337   8.489   0.052  0.00  0.00    +0.173 HD
ENDROOT
BRANCH   1  11
ATOM      5  N   UNL     1      -0.018   1.461   0.010  0.00  0.00    -0.234 N 
ATOM      6  C   UNL     1      -1.137   2.206   0.019  0.00  0.00    +0.254 C 
ATOM      7  O   UNL     1      -2.274   1.779   0.021  0.00  0.00    -0.270 OA
ATOM      8  C   UNL     1      -0.751   3.636   0.029  0.00  0.00    +0.049 A 
ATOM      9  C   UNL     1      -1.460   4.826   0.042  0.00  0.00    +0.014 A 
ATOM     10  C   UNL     1      -0.782   6.033   0.042  0.00  0.00    +0.014 A 
ATOM     11  C   UNL     1       0.612   6.057   0.029  0.00  0.00    +0.039 A 
ATOM     12  C   UNL     1       1.335   4.861   0.016  0.00  0.00    +0.027 A 
ATOM     13  C   UNL     1       0.659   3.653   0.015  0.00  0.00    +0.050 A 
ATOM     14  C   UNL     1       1.081   2.237   0.004  0.00  0.00    +0.254 C 
ATOM     15  O   UNL     1       2.229   1.839  -0.009  0.00  0.00    -0.270 OA
BRANCH   5  16
ATOM     16  C   UNL     1       0.002  -0.004   0.002  0.00  0.00    +0.117 C 
BRANCH  16  17
ATOM     17  C   UNL     1       0.023  -0.522   1.442  0.00  0.00    +0.019 C 
BRANCH  17  19
ATOM     18  C   UNL     1       0.064  -2.569   2.873  0.00  0.00    +0.004 C 
ATOM     19  C   UNL     1       0.043  -2.052   1.433  0.00  0.00    -0.002 C 
ENDBRANCH  17  19
ENDBRANCH  16  17
ENDBRANCH   5  16
ENDBRANCH   1  11
BRANCH   3  20
ATOM     20  N   UNL     1       1.311   9.733   0.043  0.00  0.00    -0.228 N 
ATOM     21  C   UNL     1       0.616  10.888   0.057  0.00  0.00    +0.295 C 
ATOM     22  O   UNL     1      -0.601  10.865   0.068  0.00  0.00    -0.265 OA
ATOM     23  H   UNL     1       2.281   9.751   0.034  0.00  0.00    +0.173 HD
BRANCH  21  24
ATOM     24  C   UNL     1       1.325  12.171   0.057  0.00  0.00    +0.191 A 
ATOM     25  C   UNL     1       0.747  13.408   0.070  0.00  0.00    +0.055 A 
ATOM     26  C   UNL     1       1.793  14.343   0.066  0.00  0.00    +0.049 A 
ATOM     27  C   UNL     1       2.950  13.645   0.051  0.00  0.00    +0.143 A 
ATOM     28  O   UNL     1       2.664  12.337   0.051  0.00  0.00    -0.452 OA
BRANCH  27  29
ATOM     29  C   UNL     1       4.335  14.241   0.041  0.00  0.00    +0.303 C 
BRANCH  29  30
ATOM     30  O   UNL     1       4.785  14.422   1.385  0.00  0.00    -0.484 OA
BRANCH  30  31
ATOM     31  C   UNL     1       6.024  14.953   1.554  0.00  0.00    +0.121 A 
ATOM     32  C   UNL     1       6.793  15.288   0.449  0.00  0.00    +0.045 A 
ATOM     33  C   UNL     1       8.050  15.834   0.624  0.00  0.00    +0.004 A 
ATOM     34  C   UNL     1       8.547  16.035   1.899  0.00  0.00    +0.000 A 
ATOM     35  C   UNL     1       7.785  15.697   3.001  0.00  0.00    +0.004 A 
ATOM     36  C   UNL     1       6.525  15.156   2.832  0.00  0.00    +0.045 A 
ENDBRANCH  30  31
ENDBRANCH  29  30
ENDBRANCH  27  29
ENDBRANCH  21  24
ENDBRANCH   3  20
TORSDOF 9
