REMARK  Name = ZINC31827539
REMARK  10 active torsions:
REMARK  status: ('A' for Active; 'I' for Inactive)
REMARK    1  A    between atoms: C_1  and  C_2
REMARK    2  A    between atoms: C_2  and  C_3
REMARK    3  A    between atoms: N_5  and  C_6
REMARK    4  A    between atoms: C_9  and  C_12
REMARK    5  A    between atoms: C_12  and  C_14
REMARK    6  A    between atoms: C_12  and  N_15
REMARK    7  A    between atoms: C_16  and  C_18
REMARK    8  A    between atoms: C_20  and  S_25
REMARK    9  A    between atoms: C_23  and  C_24
REMARK   10  A    between atoms: S_25  and  N_28
REMARK                            x       y       z     vdW  Elec       q    Type
REMARK                         _______ _______ _______ _____ _____    ______ ____
ROOT
ATOM      1  N   UNL     1      -5.781  -2.361  -0.536  0.00  0.00    -0.305 N 
ATOM      2  C   UNL     1      -6.881  -2.989  -0.996  0.00  0.00    +0.245 C 
ATOM      3  O   UNL     1      -7.983  -2.529  -0.769  0.00  0.00    -0.270 OA
ATOM      4  H   UNL     1      -4.784  -2.777  -0.741  0.00  0.00    +0.150 HD
ENDROOT
BRANCH   2   5
ATOM      5  C   UNL     1      -6.747  -4.239  -1.775  0.00  0.00    +0.041 A 
ATOM      6  C   UNL     1      -5.490  -4.812  -1.970  0.00  0.00    +0.041 A 
ATOM      7  C   UNL     1      -5.372  -5.978  -2.697  0.00  0.00    +0.106 A 
ATOM      8  C   UNL     1      -6.497  -6.578  -3.235  0.00  0.00    +0.029 A 
ATOM      9  C   UNL     1      -7.746  -6.014  -3.047  0.00  0.00    +0.006 A 
ATOM     10  C   UNL     1      -7.879  -4.852  -2.316  0.00  0.00    -0.038 A 
ATOM     11  C   UNL     1      -9.241  -4.242  -2.106  0.00  0.00    +0.044 C 
BRANCH   7  12
ATOM     12  S   UNL     1      -3.786  -6.705  -2.943  0.00  0.00    +0.056 S 
ATOM     13  O   UNL     1      -3.880  -7.497  -4.120  0.00  0.00    -0.153 OA
ATOM     14  O   UNL     1      -2.834  -5.659  -2.803  0.00  0.00    -0.153 OA
BRANCH  12  15
ATOM     15  N   UNL     1      -3.527  -7.752  -1.687  0.00  0.00    -0.204 NA
ATOM     16  H   UNL     1      -2.542  -8.228  -1.804  0.00  0.00    +0.144 HD
ATOM     17  H   UNL     1      -4.310  -8.524  -1.686  0.00  0.00    +0.144 HD
ENDBRANCH  12  15
ENDBRANCH   7  12
ENDBRANCH   2   5
BRANCH   1  18
ATOM     18  C   UNL     1      -5.913  -1.123   0.236  0.00  0.00    +0.100 C 
ATOM     19  C   UNL     1      -6.155  -1.464   1.708  0.00  0.00    +0.033 C 
BRANCH  18  23
ATOM     20  C   UNL     1      -2.326   1.172  -0.125  0.00  0.00    +0.033 A 
ATOM     21  C   UNL     1      -2.259  -0.209   0.007  0.00  0.00    +0.023 A 
ATOM     22  C   UNL     1      -3.419  -0.947   0.129  0.00  0.00    +0.007 A 
ATOM     23  C   UNL     1      -4.649  -0.314   0.109  0.00  0.00    -0.027 A 
ATOM     24  C   UNL     1      -4.720   1.060  -0.027  0.00  0.00    +0.007 A 
ATOM     25  C   UNL     1      -3.562   1.805  -0.145  0.00  0.00    +0.023 A 
BRANCH  20  28
ATOM     26  C   UNL     1      -1.079   3.151   0.307  0.00  0.00    +0.217 C 
ATOM     27  O   UNL     1      -2.059   3.642   0.827  0.00  0.00    -0.275 OA
ATOM     28  N   UNL     1      -1.152   1.923  -0.244  0.00  0.00    -0.286 N 
ATOM     29  H   UNL     1      -0.288   1.512  -0.786  0.00  0.00    +0.155 HD
BRANCH  26  31
ATOM     30  C   UNL     1       0.035   5.264   0.974  0.00  0.00    +0.013 C 
ATOM     31  C   UNL     1       0.222   3.912   0.282  0.00  0.00    +0.093 C 
ENDBRANCH  26  31
ENDBRANCH  20  28
ENDBRANCH  18  23
ENDBRANCH   1  18
TORSDOF 7
