REMARK  Name = ZINC39188309
REMARK  7 active torsions:
REMARK  status: ('A' for Active; 'I' for Inactive)
REMARK    1  A    between atoms: C_4  and  C_7
REMARK    2  A    between atoms: N_9  and  C_10
REMARK    3  A    between atoms: C_10  and  C_19
REMARK    4  A    between atoms: C_11  and  C_12
REMARK    5  A    between atoms: C_17  and  O_18
REMARK    6  A    between atoms: N_21  and  N_22
REMARK    7  A    between atoms: C_23  and  C_24
REMARK                            x       y       z     vdW  Elec       q    Type
REMARK                         _______ _______ _______ _____ _____    ______ ____
ROOT
ATOM      1  C   UNL     1       5.015  -2.567  -0.211  0.00  0.00    +0.098 C 
ATOM      2  C   UNL     1       6.135  -1.804  -0.175  0.00  0.00    +0.040 C 
ENDROOT
BRANCH   2   3
ATOM      3  C   UNL     1       6.028  -0.340  -0.185  0.00  0.00    +0.018 A 
ATOM      4  C   UNL     1       4.891   0.279  -0.718  0.00  0.00    +0.011 A 
ATOM      5  C   UNL     1       4.798   1.654  -0.723  0.00  0.00    +0.001 A 
ATOM      6  C   UNL     1       5.823   2.427  -0.204  0.00  0.00    +0.004 A 
ATOM      7  C   UNL     1       6.951   1.829   0.326  0.00  0.00    +0.046 A 
ATOM      8  C   UNL     1       7.062   0.449   0.346  0.00  0.00    +0.124 A 
BRANCH   8   9
ATOM      9  O   UNL     1       8.167  -0.139   0.871  0.00  0.00    -0.506 OA
ATOM     10  H   UNL     1       8.876  -0.287   0.230  0.00  0.00    +0.292 HD
ENDBRANCH   8   9
ENDBRANCH   2   3
BRANCH   1  13
ATOM     11  C   UNL     1       2.837  -2.160  -1.079  0.00  0.00    +0.248 C 
ATOM     12  O   UNL     1       3.068  -2.933  -1.989  0.00  0.00    -0.270 OA
ATOM     13  N   UNL     1       3.756  -1.965  -0.112  0.00  0.00    -0.277 N 
ATOM     14  H   UNL     1       3.544  -1.407   0.652  0.00  0.00    +0.155 HD
BRANCH  11  18
ATOM     15  C   UNL     1      -0.862  -0.077  -0.947  0.00  0.00    +0.000 A 
ATOM     16  C   UNL     1      -0.557  -0.872  -2.038  0.00  0.00    +0.001 A 
ATOM     17  C   UNL     1       0.642  -1.551  -2.087  0.00  0.00    +0.013 A 
ATOM     18  C   UNL     1       1.550  -1.435  -1.033  0.00  0.00    +0.037 A 
ATOM     19  C   UNL     1       1.237  -0.632   0.064  0.00  0.00    +0.013 A 
ATOM     20  C   UNL     1       0.034   0.042   0.101  0.00  0.00    +0.001 A 
ENDBRANCH  11  18
ENDBRANCH   1  13
BRANCH   1  21
ATOM     21  C   UNL     1       5.122  -4.022  -0.355  0.00  0.00    +0.277 C 
ATOM     22  O   UNL     1       4.117  -4.706  -0.387  0.00  0.00    -0.267 OA
ATOM     23  N   UNL     1       6.335  -4.602  -0.450  0.00  0.00    -0.202 N 
ATOM     24  H   UNL     1       7.137  -4.057  -0.424  0.00  0.00    +0.178 HD
BRANCH  23  25
ATOM     25  N   UNL     1       6.438  -5.992  -0.587  0.00  0.00    -0.188 NA
ATOM     26  C   UNL     1       7.617  -6.556  -0.680  0.00  0.00    +0.136 C 
BRANCH  26  27
ATOM     27  C   UNL     1       7.720  -7.946  -0.817  0.00  0.00    +0.000 C 
ATOM     28  C   UNL     1       8.889  -8.699  -0.921  0.00  0.00    +0.004 A 
ATOM     29  C   UNL     1      10.255  -8.343  -0.926  0.00  0.00    +0.010 A 
ATOM     30  C   UNL     1      11.202  -9.309  -1.045  0.00  0.00    +0.001 A 
ATOM     31  C   UNL     1      10.860 -10.658  -1.166  0.00  0.00    +0.002 A 
ATOM     32  C   UNL     1       9.570 -11.072  -1.170  0.00  0.00    +0.026 A 
ATOM     33  C   UNL     1       8.523 -10.120  -1.048  0.00  0.00    +0.043 A 
ATOM     34  N   UNL     1       7.214 -10.262  -1.025  0.00  0.00    -0.380 N 
ATOM     35  C   UNL     1       6.586  -8.946  -0.875  0.00  0.00    +0.150 C 
ATOM     36  H   UNL     1       6.740 -11.106  -1.093  0.00  0.00    +0.160 HD
ENDBRANCH  26  27
ENDBRANCH  23  25
ENDBRANCH   1  21
TORSDOF 7
