REMARK  Name = ZINC65008942
REMARK  3 active torsions:
REMARK  status: ('A' for Active; 'I' for Inactive)
REMARK    1  A    between atoms: C_4  and  C_7
REMARK    2  A    between atoms: C_8  and  C_15
REMARK    3  A    between atoms: N_16  and  N_17
REMARK                            x       y       z     vdW  Elec       q    Type
REMARK                         _______ _______ _______ _____ _____    ______ ____
ROOT
ATOM      1  C   UNL     1       3.069  -2.663   1.367  0.00  0.00    +0.158 C 
ATOM      2  N   UNL     1       3.465  -3.784   1.903  0.00  0.00    -0.187 NA
ENDROOT
BRANCH   2   3
ATOM      3  N   UNL     1       2.574  -4.547   2.670  0.00  0.00    -0.217 N 
ATOM      4  C   UNL     1       2.992  -5.732   3.237  0.00  0.00    +0.204 A 
ATOM      5  C   UNL     1       2.053  -6.537   4.039  0.00  0.00    +0.291 A 
ATOM      6  N   UNL     1       2.481  -7.696   4.586  0.00  0.00    -0.318 N 
ATOM      7  C   UNL     1       3.789  -8.095   4.377  0.00  0.00    +0.068 A 
ATOM      8  C   UNL     1       4.255  -9.285   4.928  0.00  0.00    +0.028 A 
ATOM      9  C   UNL     1       5.559  -9.676   4.716  0.00  0.00    +0.002 A 
ATOM     10  C   UNL     1       6.414  -8.891   3.955  0.00  0.00    +0.002 A 
ATOM     11  C   UNL     1       5.979  -7.720   3.405  0.00  0.00    +0.030 A 
ATOM     12  C   UNL     1       4.655  -7.300   3.606  0.00  0.00    +0.090 A 
ATOM     13  N   UNL     1       4.224  -6.146   3.057  0.00  0.00    -0.224 NA
ATOM     14  O   UNL     1       0.907  -6.162   4.207  0.00  0.00    -0.264 OA
ATOM     15  H   UNL     1       1.663  -4.240   2.803  0.00  0.00    +0.176 HD
ATOM     16  H   UNL     1       1.879  -8.241   5.117  0.00  0.00    +0.169 HD
ENDBRANCH   2   3
BRANCH   1  18
ATOM     17  C   UNL     1       3.697  -0.686  -0.038  0.00  0.00    +0.099 A 
ATOM     18  C   UNL     1       3.971  -1.892   0.591  0.00  0.00    +0.094 A 
ATOM     19  N   UNL     1       5.309  -2.202   0.312  0.00  0.00    -0.292 N 
ATOM     20  C   UNL     1       6.208  -3.204   0.600  0.00  0.00    +0.101 A 
ATOM     21  C   UNL     1       7.457  -3.154   0.137  0.00  0.00    +0.067 A 
ATOM     22  S   UNL     1       7.449  -1.622  -0.781  0.00  0.00    -0.058 S 
ATOM     23  C   UNL     1       5.759  -1.167  -0.466  0.00  0.00    +0.178 A 
ATOM     24  N   UNL     1       4.815  -0.292  -0.670  0.00  0.00    -0.221 NA
BRANCH  17  28
ATOM     25  C   UNL     1      -0.017   1.379   0.010  0.00  0.00    +0.000 A 
ATOM     26  C   UNL     1       1.169   2.093   0.002  0.00  0.00    +0.001 A 
ATOM     27  C   UNL     1       2.377   1.429  -0.013  0.00  0.00    +0.010 A 
ATOM     28  C   UNL     1       2.403   0.034  -0.021  0.00  0.00    +0.003 A 
ATOM     29  C   UNL     1       1.204  -0.680  -0.013  0.00  0.00    +0.010 A 
ATOM     30  C   UNL     1       0.002  -0.004   0.002  0.00  0.00    +0.001 A 
ENDBRANCH  17  28
ENDBRANCH   1  18
TORSDOF 3
