REMARK  Name = ZINC40527290
REMARK  8 active torsions:
REMARK  status: ('A' for Active; 'I' for Inactive)
REMARK    1  A    between atoms: C_1  and  C_2
REMARK    2  A    between atoms: C_6  and  C_9
REMARK    3  A    between atoms: C_7  and  O_8
REMARK    4  A    between atoms: C_11  and  C_15
REMARK    5  A    between atoms: N_17  and  C_18
REMARK    6  A    between atoms: C_19  and  C_27
REMARK    7  A    between atoms: N_29  and  C_30
REMARK    8  A    between atoms: C_30  and  C_31
REMARK                            x       y       z     vdW  Elec       q    Type
REMARK                         _______ _______ _______ _____ _____    ______ ____
ROOT
ATOM      1  C   UNL     1       0.107  -5.801   4.629  0.00  0.00    +0.266 C 
ATOM      2  O   UNL     1       0.123  -6.822   3.967  0.00  0.00    -0.268 OA
ATOM      3  N   UNL     1       0.111  -5.871   5.975  0.00  0.00    -0.274 N 
ATOM      4  H   UNL     1       0.098  -5.057   6.503  0.00  0.00    +0.156 HD
ENDROOT
BRANCH   3   5
ATOM      5  C   UNL     1       0.133  -7.105   6.605  0.00  0.00    +0.085 A 
ATOM      6  C   UNL     1       0.135  -7.367   7.966  0.00  0.00    +0.069 A 
ATOM      7  C   UNL     1       0.161  -8.761   8.374  0.00  0.00    -0.023 A 
ATOM      8  C   UNL     1       0.181  -9.637   7.346  0.00  0.00    -0.004 A 
ATOM      9  S   UNL     1       0.157  -8.626   5.894  0.00  0.00    -0.077 S 
ATOM     10  C   UNL     1       0.211 -11.131   7.438  0.00  0.00    +0.043 C 
ATOM     11  C   UNL     1       0.597 -11.518   8.873  0.00  0.00    +0.005 C 
ATOM     12  C   UNL     1      -0.258 -10.708   9.852  0.00  0.00    +0.005 C 
ATOM     13  C   UNL     1       0.165  -9.238   9.819  0.00  0.00    +0.037 C 
BRANCH   6  14
ATOM     14  C   UNL     1       0.112  -6.283   8.953  0.00  0.00    +0.247 C 
ATOM     15  O   UNL     1      -0.952  -5.854   9.360  0.00  0.00    -0.270 OA
ATOM     16  N   UNL     1       1.268  -5.762   9.409  0.00  0.00    -0.309 N 
ATOM     17  H   UNL     1       2.115  -6.105   9.084  0.00  0.00    +0.149 HD
BRANCH  16  18
ATOM     18  C   UNL     1       1.245  -4.679  10.395  0.00  0.00    +0.136 C 
BRANCH  18  19
ATOM     19  C   UNL     1       2.679  -4.274  10.742  0.00  0.00    +0.135 C 
ATOM     20  C   UNL     1       2.668  -3.218  11.868  0.00  0.00    +0.035 C 
ATOM     21  C   UNL     1       3.803  -2.254  11.427  0.00  0.00    +0.031 C 
ATOM     22  C   UNL     1       3.662  -2.319   9.885  0.00  0.00    +0.160 C 
ATOM     23  O   UNL     1       3.307  -3.683   9.598  0.00  0.00    -0.375 OA
ENDBRANCH  18  19
ENDBRANCH  16  18
ENDBRANCH   6  14
ENDBRANCH   3   5
BRANCH   1  26
ATOM     24  C   UNL     1       0.051  -2.857   2.462  0.00  0.00    +0.097 A 
ATOM     25  C   UNL     1       0.076  -4.257   2.598  0.00  0.00    +0.062 A 
ATOM     26  C   UNL     1       0.083  -4.491   3.961  0.00  0.00    +0.121 A 
ATOM     27  N   UNL     1       0.063  -3.265   4.564  0.00  0.00    -0.272 N 
ATOM     28  H   UNL     1       0.062  -3.115   5.522  0.00  0.00    +0.189 HD
ATOM     29  N   UNL     1       0.051  -2.340   3.673  0.00  0.00    -0.173 NA
BRANCH  24  35
ATOM     30  C   UNL     1      -0.018   1.503   0.010  0.00  0.00    +0.047 C 
ATOM     31  C   UNL     1       0.002  -0.004   0.002  0.00  0.00    -0.008 A 
ATOM     32  C   UNL     1       0.006  -0.688  -1.199  0.00  0.00    +0.007 A 
ATOM     33  C   UNL     1       0.024  -2.071  -1.215  0.00  0.00    +0.001 A 
ATOM     34  C   UNL     1       0.039  -2.779  -0.030  0.00  0.00    +0.014 A 
ATOM     35  C   UNL     1       0.036  -2.100   1.186  0.00  0.00    +0.044 A 
ATOM     36  C   UNL     1       0.023  -0.703   1.198  0.00  0.00    +0.129 A 
BRANCH  36  37
ATOM     37  O   UNL     1       0.025  -0.031   2.380  0.00  0.00    -0.506 OA
ATOM     38  H   UNL     1      -0.857   0.151   2.730  0.00  0.00    +0.292 HD
ENDBRANCH  36  37
ENDBRANCH  24  35
ENDBRANCH   1  26
TORSDOF 7
