REMARK  Name = ZINC13138824
REMARK  7 active torsions:
REMARK  status: ('A' for Active; 'I' for Inactive)
REMARK    1  A    between atoms: C_3  and  N_16
REMARK    2  A    between atoms: C_5  and  S_7
REMARK    3  A    between atoms: S_7  and  N_10
REMARK    4  A    between atoms: C_17  and  C_19
REMARK    5  A    between atoms: C_19  and  O_20
REMARK    6  A    between atoms: O_20  and  C_21
REMARK    7  A    between atoms: C_26  and  N_27
REMARK                            x       y       z     vdW  Elec       q    Type
REMARK                         _______ _______ _______ _____ _____    ______ ____
ROOT
ATOM      1  C   UNL     1      -0.013   1.375  -0.179  0.00  0.00    +0.004 A 
ATOM      2  C   UNL     1       1.175   2.081  -0.182  0.00  0.00    +0.023 A 
ATOM      3  C   UNL     1       2.380   1.411  -0.018  0.00  0.00    +0.035 A 
ATOM      4  C   UNL     1       2.387   0.032   0.148  0.00  0.00    +0.052 A 
ATOM      5  C   UNL     1       1.197  -0.668   0.150  0.00  0.00    +0.114 A 
ATOM      6  C   UNL     1      -0.002   0.002  -0.014  0.00  0.00    +0.029 A 
ENDROOT
BRANCH   3   7
ATOM      7  N   UNL     1       3.584   2.123  -0.021  0.00  0.00    -0.283 N 
ATOM      8  C   UNL     1       3.628   3.375   0.478  0.00  0.00    +0.255 C 
ATOM      9  O   UNL     1       2.649   3.848   1.016  0.00  0.00    -0.272 OA
ATOM     10  H   UNL     1       4.387   1.717  -0.382  0.00  0.00    +0.155 HD
BRANCH   8  11
ATOM     11  C   UNL     1       4.893   4.186   0.368  0.00  0.00    +0.325 C 
BRANCH  11  12
ATOM     12  O   UNL     1       4.691   5.468   0.966  0.00  0.00    -0.480 OA
BRANCH  12  13
ATOM     13  C   UNL     1       5.742   6.328   0.951  0.00  0.00    +0.154 A 
ATOM     14  C   UNL     1       6.942   5.949   0.367  0.00  0.00    +0.086 A 
ATOM     15  C   UNL     1       8.011   6.827   0.354  0.00  0.00    +0.127 A 
ATOM     16  C   UNL     1       7.883   8.084   0.922  0.00  0.00    +0.041 A 
ATOM     17  C   UNL     1       6.687   8.462   1.504  0.00  0.00    +0.039 A 
ATOM     18  C   UNL     1       5.615   7.590   1.514  0.00  0.00    +0.168 A 
ATOM     19  F   UNL     1       9.181   6.459  -0.214  0.00  0.00    -0.205 F 
BRANCH  18  20
ATOM     20  N   UNL     1       4.334   7.999   2.132  0.00  0.00    +0.060 N 
ATOM     21  O   UNL     1       4.224   9.098   2.623  0.00  0.00    -0.126 OA
ATOM     22  O   UNL     1       3.398   7.234   2.146  0.00  0.00    -0.126 OA
ENDBRANCH  18  20
ENDBRANCH  12  13
ENDBRANCH  11  12
ENDBRANCH   8  11
ENDBRANCH   3   7
BRANCH   5  23
ATOM     23  S   UNL     1       1.206  -2.417   0.360  0.00  0.00    +0.100 S 
ATOM     24  O   UNL     1       0.003  -2.902  -0.221  0.00  0.00    -0.146 OA
ATOM     25  O   UNL     1       2.487  -2.870  -0.054  0.00  0.00    -0.146 OA
BRANCH  23  26
ATOM     26  N   UNL     1       1.100  -2.716   1.985  0.00  0.00    -0.118 NA
ATOM     27  C   UNL     1       1.087  -3.934   2.420  0.00  0.00    +0.117 C 
ATOM     28  C   UNL     1       1.167  -5.169   1.550  0.00  0.00    +0.074 C 
ATOM     29  C   UNL     1       1.538  -6.304   2.531  0.00  0.00    +0.026 C 
ATOM     30  C   UNL     1       0.999  -5.761   3.872  0.00  0.00    +0.103 C 
ATOM     31  N   UNL     1       1.003  -4.300   3.735  0.00  0.00    -0.331 N 
ATOM     32  H   UNL     1       0.952  -3.677   4.477  0.00  0.00    +0.147 HD
ENDBRANCH  23  26
ENDBRANCH   5  23
TORSDOF 7
