REMARK  Name = ZINC39699810
REMARK  7 active torsions:
REMARK  status: ('A' for Active; 'I' for Inactive)
REMARK    1  A    between atoms: C_1  and  C_2
REMARK    2  A    between atoms: C_4  and  C_8
REMARK    3  A    between atoms: N_10  and  N_11
REMARK    4  A    between atoms: C_12  and  C_13
REMARK    5  A    between atoms: C_16  and  O_19
REMARK    6  A    between atoms: O_19  and  C_20
REMARK    7  A    between atoms: C_20  and  C_22
REMARK                            x       y       z     vdW  Elec       q    Type
REMARK                         _______ _______ _______ _____ _____    ______ ____
ROOT
ATOM      1  C   UNL     1      -4.197  -5.358  -3.766  0.00  0.00    -0.005 A 
ATOM      2  C   UNL     1      -3.369  -5.418  -4.891  0.00  0.00    +0.013 A 
ATOM      3  C   UNL     1      -3.785  -6.100  -6.014  0.00  0.00    +0.047 A 
ATOM      4  C   UNL     1      -5.024  -6.727  -6.029  0.00  0.00    +0.132 A 
ATOM      5  C   UNL     1      -5.850  -6.671  -4.914  0.00  0.00    +0.047 A 
ATOM      6  C   UNL     1      -5.440  -5.997  -3.784  0.00  0.00    +0.013 A 
ENDROOT
BRANCH   1   8
ATOM      7  N   UNL     1      -2.602  -4.038  -2.547  0.00  0.00    -0.188 NA
ATOM      8  C   UNL     1      -3.757  -4.630  -2.562  0.00  0.00    +0.138 C 
BRANCH   7  11
ATOM      9  C   UNL     1      -0.985  -2.731  -1.388  0.00  0.00    +0.262 C 
ATOM     10  O   UNL     1      -0.268  -2.777  -2.365  0.00  0.00    -0.271 OA
ATOM     11  N   UNL     1      -2.184  -3.346  -1.403  0.00  0.00    -0.205 N 
ATOM     12  H   UNL     1      -2.758  -3.309  -0.622  0.00  0.00    +0.177 HD
BRANCH   9  16
ATOM     13  C   UNL     1      -0.260   1.732  -0.100  0.00  0.00    +0.067 C 
ATOM     14  C   UNL     1      -0.144   0.230  -0.136  0.00  0.00    +0.059 C 
ATOM     15  C   UNL     1      -1.179  -0.612  -0.097  0.00  0.00    +0.035 C 
ATOM     16  C   UNL     1      -0.536  -1.986  -0.158  0.00  0.00    +0.240 C 
ATOM     17  N   UNL     1       0.902  -1.675  -0.229  0.00  0.00    -0.170 NA
ATOM     18  N   UNL     1       1.023  -0.448  -0.217  0.00  0.00    -0.159 NA
ENDBRANCH   9  16
ENDBRANCH   7  11
ENDBRANCH   1   8
BRANCH   4  19
ATOM     19  O   UNL     1      -5.429  -7.398  -7.139  0.00  0.00    -0.422 OA
BRANCH  19  20
ATOM     20  C   UNL     1      -4.791  -8.542  -7.455  0.00  0.00    +0.344 C 
ATOM     21  O   UNL     1      -3.954  -8.999  -6.702  0.00  0.00    -0.245 OA
BRANCH  20  22
ATOM     22  C   UNL     1      -5.108  -9.240  -8.718  0.00  0.00    +0.060 A 
ATOM     23  C   UNL     1      -6.065  -8.714  -9.588  0.00  0.00    +0.015 A 
ATOM     24  C   UNL     1      -6.356  -9.370 -10.766  0.00  0.00    +0.002 A 
ATOM     25  C   UNL     1      -5.704 -10.548 -11.085  0.00  0.00    +0.015 A 
ATOM     26  C   UNL     1      -4.754 -11.075 -10.227  0.00  0.00    +0.019 A 
ATOM     27  C   UNL     1      -4.448 -10.425  -9.048  0.00  0.00    +0.030 A 
ATOM     28 BR   UNL     1      -3.869 -12.685 -10.674  0.00  0.00    -0.050 Br
ENDBRANCH  20  22
ENDBRANCH  19  20
ENDBRANCH   4  19
TORSDOF 6
