REMARK  Name = ZINC15683320
REMARK  9 active torsions:
REMARK  status: ('A' for Active; 'I' for Inactive)
REMARK    1  A    between atoms: C_1  and  C_2
REMARK    2  A    between atoms: C_2  and  C_4
REMARK    3  A    between atoms: C_2  and  O_15
REMARK    4  A    between atoms: N_6  and  C_7
REMARK    5  A    between atoms: C_7  and  C_8
REMARK    6  A    between atoms: O_15  and  C_16
REMARK    7  A    between atoms: C_16  and  C_18
REMARK    8  A    between atoms: C_21  and  N_27
REMARK    9  A    between atoms: C_22  and  N_24
REMARK                            x       y       z     vdW  Elec       q    Type
REMARK                         _______ _______ _______ _____ _____    ______ ____
ROOT
ATOM      1  C   UNL     1      -1.924  -0.704  -1.184  0.00  0.00    +0.340 C 
ATOM      2  O   UNL     1      -1.313  -0.469  -2.208  0.00  0.00    -0.245 OA
ENDROOT
BRANCH   1   3
ATOM      3  C   UNL     1      -3.305  -1.213  -1.251  0.00  0.00    +0.061 A 
ATOM      4  C   UNL     1      -4.012  -1.478  -0.073  0.00  0.00    +0.017 A 
ATOM      5  C   UNL     1      -5.293  -1.949  -0.136  0.00  0.00    +0.026 A 
ATOM      6  C   UNL     1      -5.899  -2.168  -1.370  0.00  0.00    +0.060 A 
ATOM      7  C   UNL     1      -5.203  -1.907  -2.547  0.00  0.00    +0.148 A 
ATOM      8  C   UNL     1      -3.915  -1.427  -2.492  0.00  0.00    +0.049 A 
BRANCH   6   9
ATOM      9  N   UNL     1      -7.203  -2.647  -1.427  0.00  0.00    -0.328 N 
ATOM     10  C   UNL     1      -7.594  -4.064  -1.460  0.00  0.00    +0.105 C 
ATOM     11  C   UNL     1      -9.134  -4.113  -1.547  0.00  0.00    +0.020 C 
ATOM     12  C   UNL     1      -9.493  -2.720  -2.128  0.00  0.00    +0.020 C 
ATOM     13  C   UNL     1      -8.422  -1.820  -1.457  0.00  0.00    +0.105 C 
ENDBRANCH   6   9
BRANCH   7  14
ATOM     14  N   UNL     1      -5.851  -2.141  -3.858  0.00  0.00    +0.058 N 
ATOM     15  O   UNL     1      -5.246  -1.914  -4.880  0.00  0.00    -0.126 OA
ATOM     16  O   UNL     1      -6.984  -2.558  -3.906  0.00  0.00    -0.126 OA
ENDBRANCH   7  14
ENDBRANCH   1   3
BRANCH   1  17
ATOM     17  O   UNL     1      -1.339  -0.499   0.012  0.00  0.00    -0.449 OA
BRANCH  17  19
ATOM     18  C   UNL     1      -0.019   1.526   0.010  0.00  0.00    +0.062 C 
ATOM     19  C   UNL     1       0.002  -0.004   0.002  0.00  0.00    +0.259 C 
BRANCH  19  20
ATOM     20  C   UNL     1       0.731  -0.503   1.223  0.00  0.00    +0.254 C 
ATOM     21  O   UNL     1       0.135  -1.137   2.068  0.00  0.00    -0.272 OA
ATOM     22  N   UNL     1       2.045  -0.246   1.375  0.00  0.00    -0.308 N 
ATOM     23  H   UNL     1       2.522   0.261   0.699  0.00  0.00    +0.149 HD
BRANCH  22  24
ATOM     24  C   UNL     1       2.754  -0.731   2.562  0.00  0.00    +0.139 C 
BRANCH  24  25
ATOM     25  C   UNL     1       4.199  -0.312   2.490  0.00  0.00    -0.030 A 
ATOM     26  C   UNL     1       5.127  -1.135   1.878  0.00  0.00    +0.008 A 
ATOM     27  C   UNL     1       6.453  -0.751   1.811  0.00  0.00    +0.038 A 
ATOM     28  C   UNL     1       6.853   0.456   2.358  0.00  0.00    +0.123 A 
ATOM     29  C   UNL     1       5.923   1.279   2.971  0.00  0.00    +0.038 A 
ATOM     30  C   UNL     1       4.596   0.896   3.032  0.00  0.00    +0.008 A 
ATOM     31  F   UNL     1       8.149   0.832   2.293  0.00  0.00    -0.205 F 
ENDBRANCH  24  25
ENDBRANCH  22  24
ENDBRANCH  19  20
ENDBRANCH  17  19
ENDBRANCH   1  17
TORSDOF 8
