REMARK  Name = ZINC05392737
REMARK  6 active torsions:
REMARK  status: ('A' for Active; 'I' for Inactive)
REMARK    1  A    between atoms: C_1  and  C_2
REMARK    2  A    between atoms: C_5  and  N_9
REMARK    3  A    between atoms: C_7  and  C_8
REMARK    4  A    between atoms: N_9  and  S_10
REMARK    5  A    between atoms: S_10  and  C_13
REMARK    6  A    between atoms: C_17  and  N_19
REMARK                            x       y       z     vdW  Elec       q    Type
REMARK                         _______ _______ _______ _____ _____    ______ ____
ROOT
ATOM      1  S   UNL     1      -1.602  -1.017   0.043  0.00  0.00    +0.072 S 
ATOM      2  O   UNL     1      -1.550  -2.374   0.459  0.00  0.00    -0.150 OA
ATOM      3  O   UNL     1      -2.440  -0.058   0.672  0.00  0.00    -0.150 OA
ENDROOT
BRANCH   1   4
ATOM      4  C   UNL     1       0.043  -0.395   0.148  0.00  0.00    +0.111 A 
ATOM      5  C   UNL     1       1.112  -1.271   0.198  0.00  0.00    +0.030 A 
ATOM      6  C   UNL     1       2.402  -0.784   0.281  0.00  0.00    +0.024 A 
ATOM      7  C   UNL     1       2.625   0.582   0.315  0.00  0.00    +0.071 A 
ATOM      8  C   UNL     1       1.556   1.458   0.265  0.00  0.00    +0.146 A 
ATOM      9  C   UNL     1       0.266   0.969   0.182  0.00  0.00    +0.063 A 
ATOM     10 CL   UNL     1       4.246   1.194   0.420  0.00  0.00    -0.081 Cl
BRANCH   8  11
ATOM     11  N   UNL     1       1.794   2.918   0.300  0.00  0.00    +0.058 N 
ATOM     12  O   UNL     1       0.852   3.690   0.256  0.00  0.00    -0.126 OA
ATOM     13  O   UNL     1       2.931   3.349   0.373  0.00  0.00    -0.126 OA
ENDBRANCH   8  11
ENDBRANCH   1   4
BRANCH   1  14
ATOM     14  N   UNL     1      -2.018  -1.029  -1.560  0.00  0.00    -0.216 N 
ATOM     15  H   UNL     1      -2.747  -0.472  -1.876  0.00  0.00    +0.174 HD
BRANCH  14  20
ATOM     16  C   UNL     1       0.814  -4.328  -5.201  0.00  0.00    +0.044 C 
ATOM     17  C   UNL     1       0.061  -3.451  -4.233  0.00  0.00    -0.047 A 
ATOM     18  C   UNL     1       0.271  -2.084  -4.235  0.00  0.00    +0.005 A 
ATOM     19  C   UNL     1      -0.421  -1.277  -3.353  0.00  0.00    +0.025 A 
ATOM     20  C   UNL     1      -1.321  -1.841  -2.457  0.00  0.00    +0.048 A 
ATOM     21  C   UNL     1      -1.528  -3.215  -2.458  0.00  0.00    +0.028 A 
ATOM     22  C   UNL     1      -0.837  -4.015  -3.347  0.00  0.00    -0.046 A 
ATOM     23  C   UNL     1      -1.062  -5.505  -3.349  0.00  0.00    +0.044 C 
ENDBRANCH  14  20
ENDBRANCH   1  14
TORSDOF 4
