REMARK  Name = ZINC39654227
REMARK  11 active torsions:
REMARK  status: ('A' for Active; 'I' for Inactive)
REMARK    1  A    between atoms: C_1  and  C_2
REMARK    2  A    between atoms: C_2  and  C_3
REMARK    3  A    between atoms: C_2  and  C_4
REMARK    4  A    between atoms: C_4  and  C_6
REMARK    5  A    between atoms: C_4  and  N_23
REMARK    6  A    between atoms: C_6  and  O_8
REMARK    7  A    between atoms: O_8  and  C_9
REMARK    8  A    between atoms: C_9  and  C_10
REMARK    9  A    between atoms: N_12  and  C_13
REMARK   10  A    between atoms: C_18  and  N_19
REMARK   11  A    between atoms: C_24  and  C_26
REMARK                            x       y       z     vdW  Elec       q    Type
REMARK                         _______ _______ _______ _____ _____    ______ ____
ROOT
ATOM      1  C   UNL     1       2.178   0.002   1.281  0.00  0.00    +0.328 C 
ATOM      2  O   UNL     1       3.109  -0.767   1.283  0.00  0.00    -0.249 OA
ENDROOT
BRANCH   1   3
ATOM      3  C   UNL     1       0.765  -0.524   1.292  0.00  0.00    +0.185 C 
BRANCH   3   4
ATOM      4  N   UNL     1       0.790  -1.989   1.303  0.00  0.00    -0.298 N 
ATOM      5  C   UNL     1      -0.254  -2.676   1.807  0.00  0.00    +0.247 C 
ATOM      6  O   UNL     1      -1.216  -2.081   2.251  0.00  0.00    -0.270 OA
ATOM      7  H   UNL     1       1.558  -2.463   0.948  0.00  0.00    +0.150 HD
BRANCH   5   8
ATOM      8  C   UNL     1      -0.229  -4.153   1.818  0.00  0.00    +0.072 A 
ATOM      9  C   UNL     1       0.877  -4.840   1.313  0.00  0.00    +0.016 A 
ATOM     10  C   UNL     1       0.894  -6.219   1.327  0.00  0.00    +0.001 A 
ATOM     11  C   UNL     1      -0.181  -6.924   1.840  0.00  0.00    +0.003 A 
ATOM     12  C   UNL     1      -1.281  -6.253   2.341  0.00  0.00    +0.039 A 
ATOM     13  C   UNL     1      -1.310  -4.870   2.339  0.00  0.00    +0.135 A 
ATOM     14  F   UNL     1      -2.383  -4.214   2.835  0.00  0.00    -0.205 F 
ENDBRANCH   5   8
ENDBRANCH   3   4
BRANCH   3  16
ATOM     15  C   UNL     1       0.004   1.494   0.030  0.00  0.00    +0.009 C 
ATOM     16  C   UNL     1       0.030  -0.036   0.042  0.00  0.00    +0.014 C 
ATOM     17  C   UNL     1       0.754  -0.543  -1.206  0.00  0.00    +0.009 C 
ENDBRANCH   3  16
ENDBRANCH   1   3
BRANCH   1  18
ATOM     18  O   UNL     1       2.401   1.326   1.270  0.00  0.00    -0.454 OA
BRANCH  18  19
ATOM     19  C   UNL     1       3.764   1.754   1.261  0.00  0.00    +0.328 C 
BRANCH  19  20
ATOM     20  C   UNL     1       3.817   3.260   1.249  0.00  0.00    +0.255 C 
ATOM     21  O   UNL     1       2.789   3.903   1.248  0.00  0.00    -0.272 OA
ATOM     22  N   UNL     1       5.008   3.892   1.238  0.00  0.00    -0.281 N 
ATOM     23  H   UNL     1       5.829   3.380   1.304  0.00  0.00    +0.155 HD
BRANCH  22  24
ATOM     24  C   UNL     1       5.059   5.287   1.133  0.00  0.00    +0.064 A 
ATOM     25  C   UNL     1       4.081   6.066   1.738  0.00  0.00    +0.027 A 
ATOM     26  C   UNL     1       4.134   7.442   1.632  0.00  0.00    +0.022 A 
ATOM     27  C   UNL     1       5.160   8.044   0.924  0.00  0.00    +0.043 A 
ATOM     28  C   UNL     1       6.135   7.270   0.321  0.00  0.00    +0.054 A 
ATOM     29  C   UNL     1       6.090   5.894   0.428  0.00  0.00    +0.149 A 
ATOM     30 CL   UNL     1       5.223   9.774   0.793  0.00  0.00    -0.083 Cl
BRANCH  29  31
ATOM     31  N   UNL     1       7.136   5.066  -0.213  0.00  0.00    +0.058 N 
ATOM     32  O   UNL     1       8.085   5.596  -0.743  0.00  0.00    -0.126 OA
ATOM     33  O   UNL     1       7.042   3.861  -0.207  0.00  0.00    -0.126 OA
ENDBRANCH  29  31
ENDBRANCH  22  24
ENDBRANCH  19  20
ENDBRANCH  18  19
ENDBRANCH   1  18
TORSDOF 9
