REMARK  Name = ZINC65248103
REMARK  6 active torsions:
REMARK  status: ('A' for Active; 'I' for Inactive)
REMARK    1  A    between atoms: C_1  and  C_2
REMARK    2  A    between atoms: C_6  and  N_9
REMARK    3  A    between atoms: C_7  and  C_8
REMARK    4  A    between atoms: C_10  and  C_12
REMARK    5  A    between atoms: C_12  and  C_13
REMARK    6  A    between atoms: C_23  and  C_26
REMARK                            x       y       z     vdW  Elec       q    Type
REMARK                         _______ _______ _______ _____ _____    ______ ____
ROOT
ATOM      1  C   UNL     1      -0.211  -6.399   3.398  0.00  0.00    +0.218 C 
ATOM      2  N   UNL     1       1.052  -6.865   2.801  0.00  0.00    -0.174 NA
ATOM      3  N   UNL     1       1.538  -7.975   3.023  0.00  0.00    -0.082 NA
ATOM      4  C   UNL     1       0.957  -8.909   3.815  0.00  0.00    +0.272 C 
ATOM      5  O   UNL     1       1.514  -9.946   4.088  0.00  0.00    -0.270 OA
ATOM      6  C   UNL     1      -0.414  -8.591   4.337  0.00  0.00    +0.166 C 
ATOM      7  N   UNL     1      -0.398  -7.128   4.636  0.00  0.00    -0.204 NA
ATOM      8  N   UNL     1      -1.550  -6.893   5.463  0.00  0.00    -0.243 NA
ATOM      9  C   UNL     1      -1.763  -8.131   6.262  0.00  0.00    +0.108 C 
ATOM     10  C   UNL     1      -0.727  -9.179   5.723  0.00  0.00    +0.055 C 
ATOM     11  H   UNL     1      -1.407  -6.095   6.064  0.00  0.00    +0.142 HD
ENDROOT
BRANCH   9  12
ATOM     12  C   UNL     1      -1.528  -7.854   7.724  0.00  0.00    +0.008 A 
ATOM     13  C   UNL     1      -2.198  -8.331   8.802  0.00  0.00    +0.013 A 
ATOM     14  C   UNL     1      -1.801  -7.936  10.066  0.00  0.00    +0.008 A 
ATOM     15  C   UNL     1      -0.755  -7.083  10.191  0.00  0.00    +0.045 A 
ATOM     16  S   UNL     1      -0.291  -6.817   8.488  0.00  0.00    -0.100 S 
ENDBRANCH   9  12
BRANCH   1  17
ATOM     17  C   UNL     1      -0.129  -4.898   3.686  0.00  0.00    +0.141 C 
BRANCH  17  19
ATOM     18  N   UNL     1       0.052  -2.797   2.393  0.00  0.00    -0.285 N 
ATOM     19  C   UNL     1      -0.031  -4.143   2.385  0.00  0.00    +0.221 C 
ATOM     20  O   UNL     1      -0.028  -4.745   1.333  0.00  0.00    -0.275 OA
ATOM     21  H   UNL     1       0.130  -2.321   3.234  0.00  0.00    +0.155 HD
BRANCH  18  27
ATOM     22  C   UNL     1       1.206   1.236  -0.172  0.00  0.00    +0.044 C 
ATOM     23  C   UNL     1       0.577  -0.131  -0.084  0.00  0.00    -0.046 A 
ATOM     24  C   UNL     1      -0.027  -0.686  -1.198  0.00  0.00    +0.004 A 
ATOM     25  C   UNL     1      -0.605  -1.940  -1.122  0.00  0.00    +0.002 A 
ATOM     26  C   UNL     1      -0.580  -2.642   0.067  0.00  0.00    +0.023 A 
ATOM     27  C   UNL     1       0.026  -2.088   1.187  0.00  0.00    +0.037 A 
ATOM     28  C   UNL     1       0.610  -0.831   1.106  0.00  0.00    -0.026 A 
ATOM     29  C   UNL     1       1.274  -0.228   2.317  0.00  0.00    +0.046 C 
ENDBRANCH  18  27
ENDBRANCH  17  19
ENDBRANCH   1  17
TORSDOF 4
