REMARK  Name = ZINC22504854
REMARK  3 active torsions:
REMARK  status: ('A' for Active; 'I' for Inactive)
REMARK    1  A    between atoms: C_4  and  C_7
REMARK    2  A    between atoms: C_9  and  C_13
REMARK    3  A    between atoms: C_16  and  C_21
REMARK                            x       y       z     vdW  Elec       q    Type
REMARK                         _______ _______ _______ _____ _____    ______ ____
ROOT
ATOM      1  C   UNL     1       1.744   2.035  -0.004  0.00  0.00    +0.150 A 
ATOM      2  N   UNL     1       2.206   0.809  -0.015  0.00  0.00    -0.154 NA
ATOM      3  N   UNL     1       1.347  -0.282  -0.012  0.00  0.00    -0.185 N 
ATOM      4  C   UNL     1       1.396  -1.669  -0.020  0.00  0.00    +0.186 A 
ATOM      5  N   UNL     1       0.160  -2.113  -0.011  0.00  0.00    -0.126 NA
ATOM      6  N   UNL     1      -0.662  -1.122   0.002  0.00  0.00    -0.120 NA
ATOM      7  C   UNL     1       0.002  -0.004   0.002  0.00  0.00    +0.219 A 
ATOM      8  S   UNL     1      -0.022   1.771   0.012  0.00  0.00    -0.025 S 
ENDROOT
BRANCH   4   9
ATOM      9  C   UNL     1       2.619  -2.497  -0.037  0.00  0.00    +0.022 A 
ATOM     10  C   UNL     1       2.549  -3.858   0.269  0.00  0.00    +0.013 A 
ATOM     11  C   UNL     1       3.694  -4.626   0.251  0.00  0.00    +0.022 A 
ATOM     12  C   UNL     1       4.912  -4.052  -0.069  0.00  0.00    +0.059 A 
ATOM     13  C   UNL     1       4.989  -2.702  -0.373  0.00  0.00    +0.060 A 
ATOM     14  C   UNL     1       3.849  -1.924  -0.365  0.00  0.00    +0.033 A 
ATOM     15 CL   UNL     1       6.521  -1.991  -0.774  0.00  0.00    -0.082 Cl
ATOM     16 CL   UNL     1       6.349  -5.026  -0.089  0.00  0.00    -0.082 Cl
ENDBRANCH   4   9
BRANCH   1  19
ATOM     17  C   UNL     1       3.009   5.484   0.004  0.00  0.00    +0.093 A 
ATOM     18  C   UNL     1       1.951   4.561   0.008  0.00  0.00    +0.060 A 
ATOM     19  C   UNL     1       2.492   3.307  -0.004  0.00  0.00    +0.093 A 
ATOM     20  N   UNL     1       3.850   3.446  -0.011  0.00  0.00    -0.274 N 
ATOM     21  H   UNL     1       4.494   2.554  -0.015  0.00  0.00    +0.189 HD
ATOM     22  N   UNL     1       4.143   4.815  -0.011  0.00  0.00    -0.173 NA
BRANCH  17  26
ATOM     23  C   UNL     1       2.619   9.719   0.028  0.00  0.00    +0.000 A 
ATOM     24  C   UNL     1       3.876   9.143   0.015  0.00  0.00    +0.001 A 
ATOM     25  C   UNL     1       4.009   7.769   0.007  0.00  0.00    +0.010 A 
ATOM     26  C   UNL     1       2.873   6.963   0.013  0.00  0.00    +0.002 A 
ATOM     27  C   UNL     1       1.609   7.548   0.021  0.00  0.00    +0.010 A 
ATOM     28  C   UNL     1       1.488   8.923   0.035  0.00  0.00    +0.001 A 
ENDBRANCH  17  26
ENDBRANCH   1  19
TORSDOF 3
