REMARK  Name = ZINC16607659
REMARK  13 active torsions:
REMARK  status: ('A' for Active; 'I' for Inactive)
REMARK    1  A    between atoms: C_1  and  C_2
REMARK    2  A    between atoms: C_2  and  C_3
REMARK    3  A    between atoms: C_3  and  C_5
REMARK    4  A    between atoms: C_3  and  C_6
REMARK    5  A    between atoms: C_6  and  C_8
REMARK    6  A    between atoms: C_6  and  N_25
REMARK    7  A    between atoms: C_14  and  C_16
REMARK    8  A    between atoms: C_19  and  N_22
REMARK    9  A    between atoms: N_22  and  C_23
REMARK   10  A    between atoms: N_22  and  C_24
REMARK   11  A    between atoms: N_25  and  S_26
REMARK   12  A    between atoms: S_26  and  C_29
REMARK   13  A    between atoms: C_32  and  C_35
REMARK                            x       y       z     vdW  Elec       q    Type
REMARK                         _______ _______ _______ _____ _____    ______ ____
ROOT
ATOM      1  C   UNL     1       1.446   0.662   0.382  0.00  0.00    +0.238 C 
ATOM      2  O   UNL     1       2.374   0.052   0.869  0.00  0.00    -0.274 OA
ATOM      3  N   UNL     1       1.587   1.964   0.065  0.00  0.00    -0.262 N 
ATOM      4  C   UNL     1       2.825   2.582   0.201  0.00  0.00    +0.188 A 
ATOM      5  N   UNL     1       3.982   2.088   0.622  0.00  0.00    -0.125 NA
ATOM      6  N   UNL     1       5.026   2.793   0.681  0.00  0.00    -0.140 NA
ATOM      7  C   UNL     1       5.027   4.075   0.335  0.00  0.00    +0.134 A 
ATOM      8  S   UNL     1       3.311   4.272  -0.137  0.00  0.00    -0.030 S 
ATOM      9  H   UNL     1       0.826   2.471  -0.258  0.00  0.00    +0.157 HD
ENDROOT
BRANCH   7  10
ATOM     10  C   UNL     1       6.129   5.059   0.339  0.00  0.00    +0.009 A 
ATOM     11  C   UNL     1       5.897   6.372  -0.078  0.00  0.00    +0.012 A 
ATOM     12  C   UNL     1       6.926   7.288  -0.068  0.00  0.00    +0.024 A 
ATOM     13  C   UNL     1       8.197   6.905   0.346  0.00  0.00    +0.029 A 
ATOM     14  C   UNL     1       8.432   5.597   0.756  0.00  0.00    +0.024 A 
ATOM     15  C   UNL     1       7.407   4.677   0.753  0.00  0.00    +0.012 A 
BRANCH  13  16
ATOM     16  N   UNL     1       9.238   7.834   0.349  0.00  0.00    -0.336 N 
ATOM     17  C   UNL     1      10.601   7.406   0.673  0.00  0.00    +0.129 C 
ATOM     18  C   UNL     1       8.968   9.238   0.030  0.00  0.00    +0.129 C 
ENDBRANCH  13  16
ENDBRANCH   7  10
BRANCH   1  19
ATOM     19  C   UNL     1       0.134  -0.036   0.131  0.00  0.00    +0.165 C 
BRANCH  19  20
ATOM     20  C   UNL     1      -0.202   0.029  -1.360  0.00  0.00    +0.013 C 
ATOM     21  C   UNL     1      -1.602  -0.542  -1.593  0.00  0.00    +0.009 C 
BRANCH  20  23
ATOM     22  C   UNL     1       2.189  -0.110  -2.071  0.00  0.00    +0.004 C 
ATOM     23  C   UNL     1       0.821  -0.790  -2.150  0.00  0.00    +0.002 C 
ENDBRANCH  20  23
ENDBRANCH  19  20
BRANCH  19  24
ATOM     24  N   UNL     1       0.238  -1.437   0.547  0.00  0.00    -0.178 NA
ATOM     25  H   UNL     1       0.618  -2.095  -0.056  0.00  0.00    +0.149 HD
BRANCH  24  26
ATOM     26  S   UNL     1      -0.290  -1.897   2.048  0.00  0.00    +0.059 S 
ATOM     27  O   UNL     1      -0.144  -3.308   2.115  0.00  0.00    -0.153 OA
ATOM     28  O   UNL     1       0.327  -1.022   2.982  0.00  0.00    -0.153 OA
BRANCH  26  29
ATOM     29  C   UNL     1      -2.019  -1.566   2.115  0.00  0.00    +0.105 A 
ATOM     30  C   UNL     1      -2.469  -0.310   2.479  0.00  0.00    +0.029 A 
ATOM     31  C   UNL     1      -3.826  -0.050   2.528  0.00  0.00    +0.005 A 
ATOM     32  C   UNL     1      -4.733  -1.047   2.221  0.00  0.00    -0.050 A 
ATOM     33  C   UNL     1      -4.283  -2.304   1.861  0.00  0.00    +0.005 A 
ATOM     34  C   UNL     1      -2.926  -2.563   1.809  0.00  0.00    +0.029 A 
ATOM     35  C   UNL     1      -6.212  -0.764   2.279  0.00  0.00    +0.044 C 
ENDBRANCH  26  29
ENDBRANCH  24  26
ENDBRANCH  19  24
ENDBRANCH   1  19
TORSDOF 8
