REMARK  Name = ZINC16579929
REMARK  6 active torsions:
REMARK  status: ('A' for Active; 'I' for Inactive)
REMARK    1  A    between atoms: C_1  and  C_2
REMARK    2  A    between atoms: C_2  and  C_22
REMARK    3  A    between atoms: N_5  and  C_9
REMARK    4  A    between atoms: C_9  and  C_10
REMARK    5  A    between atoms: N_15  and  C_16
REMARK    6  A    between atoms: C_16  and  C_17
REMARK                            x       y       z     vdW  Elec       q    Type
REMARK                         _______ _______ _______ _____ _____    ______ ____
ROOT
ATOM      1  C   UNL     1      -0.019   1.526   0.010  0.00  0.00    +0.047 C 
ATOM      2  C   UNL     1       0.002  -0.004   0.002  0.00  0.00    +0.135 C 
ATOM      3  C   UNL     1      -1.403  -0.557   0.139  0.00  0.00    +0.251 C 
ATOM      4  O   UNL     1      -2.332  -0.392  -0.621  0.00  0.00    -0.272 OA
ATOM      5  N   UNL     1      -1.403  -1.272   1.282  0.00  0.00    -0.215 N 
ATOM      6  C   UNL     1      -0.206  -1.247   1.879  0.00  0.00    +0.310 C 
ATOM      7  O   UNL     1       0.040  -1.819   2.924  0.00  0.00    -0.252 OA
ATOM      8  N   UNL     1       0.695  -0.520   1.195  0.00  0.00    -0.281 N 
ATOM      9  H   UNL     1       1.621  -0.365   1.440  0.00  0.00    +0.152 HD
ENDROOT
BRANCH   2  10
ATOM     10  C   UNL     1       0.657  -0.517  -1.255  0.00  0.00    -0.014 A 
ATOM     11  C   UNL     1      -0.108  -0.772  -2.378  0.00  0.00    +0.008 A 
ATOM     12  C   UNL     1       0.491  -1.243  -3.531  0.00  0.00    +0.022 A 
ATOM     13  C   UNL     1       1.857  -1.459  -3.562  0.00  0.00    +0.059 A 
ATOM     14  C   UNL     1       2.623  -1.203  -2.437  0.00  0.00    +0.060 A 
ATOM     15  C   UNL     1       2.023  -0.727  -1.285  0.00  0.00    +0.027 A 
ATOM     16 CL   UNL     1       4.338  -1.474  -2.474  0.00  0.00    -0.082 Cl
ATOM     17 CL   UNL     1       2.611  -2.051  -5.009  0.00  0.00    -0.082 Cl
ENDBRANCH   2  10
BRANCH   5  18
ATOM     18  C   UNL     1      -2.569  -1.986   1.805  0.00  0.00    +0.214 C 
BRANCH  18  19
ATOM     19  C   UNL     1      -2.585  -3.391   1.260  0.00  0.00    +0.238 C 
ATOM     20  O   UNL     1      -1.708  -3.759   0.508  0.00  0.00    -0.274 OA
ATOM     21  N   UNL     1      -3.573  -4.239   1.608  0.00  0.00    -0.239 N 
ATOM     22  C   UNL     1      -3.587  -5.495   1.120  0.00  0.00    +0.306 C 
ATOM     23  O   UNL     1      -2.708  -5.864   0.366  0.00  0.00    -0.252 OA
ATOM     24  N   UNL     1      -4.575  -6.342   1.468  0.00  0.00    -0.294 N 
ATOM     25  H   UNL     1      -4.275  -3.944   2.209  0.00  0.00    +0.159 HD
ATOM     26  H   UNL     1      -5.277  -6.048   2.069  0.00  0.00    +0.151 HD
BRANCH  24  27
ATOM     27  C   UNL     1      -4.590  -7.708   0.937  0.00  0.00    +0.148 C 
BRANCH  27  28
ATOM     28  C   UNL     1      -5.790  -8.443   1.476  0.00  0.00    +0.007 A 
ATOM     29  C   UNL     1      -7.038  -8.538   0.954  0.00  0.00    +0.013 A 
ATOM     30  C   UNL     1      -7.992  -9.276   1.629  0.00  0.00    +0.008 A 
ATOM     31  C   UNL     1      -7.652  -9.883   2.792  0.00  0.00    +0.045 A 
ATOM     32  S   UNL     1      -5.936  -9.421   2.962  0.00  0.00    -0.100 S 
ENDBRANCH  27  28
ENDBRANCH  24  27
ENDBRANCH  18  19
ENDBRANCH   5  18
TORSDOF 5
