REMARK  Name = ZINC64540801
REMARK  8 active torsions:
REMARK  status: ('A' for Active; 'I' for Inactive)
REMARK    1  A    between atoms: C_1  and  C_2
REMARK    2  A    between atoms: C_2  and  C_3
REMARK    3  A    between atoms: C_3  and  N_4
REMARK    4  A    between atoms: C_10  and  C_12
REMARK    5  A    between atoms: C_12  and  C_13
REMARK    6  A    between atoms: C_19  and  C_21
REMARK    7  A    between atoms: C_27  and  O_31
REMARK    8  A    between atoms: O_31  and  C_32
REMARK                            x       y       z     vdW  Elec       q    Type
REMARK                         _______ _______ _______ _____ _____    ______ ____
ROOT
ATOM      1  C   UNL     1      -4.250  -7.218  -2.353  0.00  0.00    +0.001 C 
ATOM      2  C   UNL     1      -4.396  -6.599  -3.744  0.00  0.00    +0.023 C 
ATOM      3  C   UNL     1      -4.716  -7.702  -4.758  0.00  0.00    +0.108 C 
ATOM      4  N   UNL     1      -5.901  -8.438  -4.298  0.00  0.00    -0.300 N 
ATOM      5  C   UNL     1      -5.901  -8.998  -2.939  0.00  0.00    +0.108 C 
ATOM      6  C   UNL     1      -5.568  -7.880  -1.946  0.00  0.00    +0.023 C 
ATOM      7  C   UNL     1      -6.968  -8.597  -5.106  0.00  0.00    +0.242 C 
ATOM      8  O   UNL     1      -6.956  -8.130  -6.225  0.00  0.00    -0.273 OA
ENDROOT
BRANCH   7   9
ATOM      9  C   UNL     1      -8.176  -9.355  -4.619  0.00  0.00    +0.190 C 
ATOM     10  C   UNL     1      -8.791  -8.649  -3.432  0.00  0.00    +0.016 C 
ATOM     11  C   UNL     1     -10.048  -8.318  -3.800  0.00  0.00    -0.003 A 
ATOM     12  C   UNL     1     -11.138  -7.626  -3.100  0.00  0.00    +0.013 A 
ATOM     13  C   UNL     1     -12.312  -7.436  -3.739  0.00  0.00    +0.046 A 
ATOM     14  C   UNL     1     -12.516  -7.884  -5.058  0.00  0.00    +0.122 A 
ATOM     15  C   UNL     1     -11.554  -8.531  -5.766  0.00  0.00    +0.071 A 
ATOM     16  C   UNL     1     -10.285  -8.781  -5.187  0.00  0.00    +0.047 A 
ATOM     17  N   UNL     1      -9.212  -9.377  -5.658  0.00  0.00    -0.370 N 
ATOM     18  H   UNL     1      -9.120  -9.765  -6.542  0.00  0.00    +0.161 HD
BRANCH  14  19
ATOM     19  O   UNL     1     -13.718  -7.662  -5.644  0.00  0.00    -0.495 OA
ATOM     20  C   UNL     1     -14.703  -6.979  -4.866  0.00  0.00    +0.277 C 
ENDBRANCH  14  19
ENDBRANCH   7   9
BRANCH   1  21
ATOM     21  C   UNL     1      -3.896  -6.124  -1.343  0.00  0.00    +0.099 C 
BRANCH  21  28
ATOM     22  N   UNL     1      -1.413  -2.002   0.005  0.00  0.00    +0.382 N 
ATOM     23  C   UNL     1      -0.824  -2.475  -1.254  0.00  0.00    -0.060 C 
ATOM     24  C   UNL     1      -0.697  -4.002  -1.216  0.00  0.00    +0.089 C 
ATOM     25  N   UNL     1      -2.019  -4.572  -0.913  0.00  0.00    -0.305 N 
ATOM     26  C   UNL     1      -2.756  -4.038   0.243  0.00  0.00    +0.089 C 
ATOM     27  C   UNL     1      -2.785  -2.510   0.136  0.00  0.00    -0.060 C 
ATOM     28  C   UNL     1      -2.540  -5.556  -1.673  0.00  0.00    +0.216 C 
ATOM     29  O   UNL     1      -1.918  -5.983  -2.622  0.00  0.00    -0.276 OA
ATOM     30  H   UNL     1      -0.858  -2.334   0.779  0.00  0.00    -0.082 HD
BRANCH  22  31
ATOM     31  C   UNL     1      -1.433  -0.534   0.013  0.00  0.00    -0.079 C 
BRANCH  31  33
ATOM     32  C   UNL     1      -0.019   1.526   0.010  0.00  0.00    +0.002 C 
ATOM     33  C   UNL     1       0.002  -0.004   0.002  0.00  0.00    -0.022 C 
ENDBRANCH  31  33
ENDBRANCH  22  31
ENDBRANCH  21  28
ENDBRANCH   1  21
TORSDOF 6
