REMARK  Name = ZINC23401618
REMARK  9 active torsions:
REMARK  status: ('A' for Active; 'I' for Inactive)
REMARK    1  A    between atoms: C_1  and  C_2
REMARK    2  A    between atoms: C_2  and  C_3
REMARK    3  A    between atoms: C_2  and  C_4
REMARK    4  A    between atoms: C_7  and  C_10
REMARK    5  A    between atoms: C_12  and  C_15
REMARK    6  A    between atoms: C_15  and  C_16
REMARK    7  A    between atoms: C_16  and  C_17
REMARK    8  A    between atoms: N_19  and  N_20
REMARK    9  A    between atoms: C_21  and  C_23
REMARK                            x       y       z     vdW  Elec       q    Type
REMARK                         _______ _______ _______ _____ _____    ______ ____
ROOT
ATOM      1  C   UNL     1      -5.915   6.933   7.426  0.00  0.00    +0.230 C 
ATOM      2  O   UNL     1      -5.190   7.417   8.269  0.00  0.00    -0.274 OA
ATOM      3  N   UNL     1      -7.142   7.450   7.215  0.00  0.00    -0.234 N 
ATOM      4  H   UNL     1      -7.800   7.012   6.450  0.00  0.00    +0.173 HD
ENDROOT
BRANCH   3   5
ATOM      5  N   UNL     1      -7.579   8.547   7.969  0.00  0.00    -0.231 N 
ATOM      6  C   UNL     1      -8.805   9.065   7.758  0.00  0.00    +0.273 C 
ATOM      7  O   UNL     1      -9.531   8.581   6.915  0.00  0.00    -0.270 OA
ATOM      8  H   UNL     1      -6.920   8.986   8.733  0.00  0.00    +0.173 HD
BRANCH   6   9
ATOM      9  C   UNL     1      -9.274  10.245   8.569  0.00  0.00    +0.297 C 
ATOM     10  C   UNL     1      -8.415  11.474   8.241  0.00  0.00    +0.283 C 
ATOM     11  O   UNL     1      -8.897  12.577   9.016  0.00  0.00    -0.484 OA
ATOM     12  C   UNL     1     -10.244  12.767   9.040  0.00  0.00    +0.162 A 
ATOM     13  C   UNL     1     -10.753  13.988   9.458  0.00  0.00    +0.049 A 
ATOM     14  C   UNL     1     -12.119  14.193   9.493  0.00  0.00    +0.004 A 
ATOM     15  C   UNL     1     -12.982  13.183   9.114  0.00  0.00    +0.004 A 
ATOM     16  C   UNL     1     -12.482  11.964   8.696  0.00  0.00    +0.049 A 
ATOM     17  C   UNL     1     -11.112  11.752   8.656  0.00  0.00    +0.163 A 
ATOM     18  O   UNL     1     -10.635  10.547   8.240  0.00  0.00    -0.472 OA
ENDBRANCH   6   9
ENDBRANCH   3   5
BRANCH   1  19
ATOM     19  C   UNL     1      -5.446   5.753   6.615  0.00  0.00    +0.107 C 
BRANCH  19  20
ATOM     20  C   UNL     1      -4.031   5.366   7.049  0.00  0.00    +0.108 C 
BRANCH  20  23
ATOM     21  C   UNL     1      -2.708   2.943   4.747  0.00  0.00    +0.202 A 
ATOM     22  N   UNL     1      -2.914   4.232   5.100  0.00  0.00    -0.191 NA
ATOM     23  C   UNL     1      -3.561   4.186   6.238  0.00  0.00    +0.228 A 
ATOM     24  O   UNL     1      -3.722   2.896   6.547  0.00  0.00    -0.338 OA
ATOM     25  N   UNL     1      -3.230   2.198   5.686  0.00  0.00    -0.056 NA
BRANCH  21  29
ATOM     26  C   UNL     1      -0.718   1.572   1.248  0.00  0.00    -0.045 A 
ATOM     27  C   UNL     1      -0.854   2.929   1.476  0.00  0.00    +0.004 A 
ATOM     28  C   UNL     1      -1.504   3.380   2.607  0.00  0.00    +0.012 A 
ATOM     29  C   UNL     1      -2.014   2.465   3.526  0.00  0.00    +0.022 A 
ATOM     30  C   UNL     1      -1.869   1.099   3.294  0.00  0.00    +0.012 A 
ATOM     31  C   UNL     1      -1.222   0.659   2.157  0.00  0.00    +0.004 A 
BRANCH  26  33
ATOM     32  C   UNL     1       1.423   1.615  -0.003  0.00  0.00    +0.012 C 
ATOM     33  C   UNL     1      -0.013   1.086   0.008  0.00  0.00    +0.013 C 
ATOM     34  C   UNL     1      -0.753   1.593  -1.232  0.00  0.00    +0.012 C 
ENDBRANCH  26  33
ENDBRANCH  21  29
ENDBRANCH  20  23
ENDBRANCH  19  20
ENDBRANCH   1  19
TORSDOF 7
