REMARK  Name = ZINC38679253
REMARK  15 active torsions:
REMARK  status: ('A' for Active; 'I' for Inactive)
REMARK    1  A    between atoms: C_1  and  C_2
REMARK    2  A    between atoms: C_2  and  O_3
REMARK    3  A    between atoms: O_3  and  C_4
REMARK    4  A    between atoms: C_7  and  C_13
REMARK    5  A    between atoms: C_9  and  O_10
REMARK    6  A    between atoms: O_10  and  C_11
REMARK    7  A    between atoms: C_11  and  C_12
REMARK    8  A    between atoms: C_18  and  O_27
REMARK    9  A    between atoms: C_22  and  N_26
REMARK   10  A    between atoms: C_23  and  C_24
REMARK   11  A    between atoms: O_27  and  C_28
REMARK   12  A    between atoms: C_28  and  C_30
REMARK   13  A    between atoms: C_30  and  C_32
REMARK   14  A    between atoms: C_30  and  O_33
REMARK   15  A    between atoms: O_33  and  C_34
REMARK                            x       y       z     vdW  Elec       q    Type
REMARK                         _______ _______ _______ _____ _____    ______ ____
ROOT
ATOM      1  C   UNL     1      -1.800  -6.214  -0.192  0.00  0.00    +0.098 C 
ATOM      2  C   UNL     1      -1.200  -6.762   1.076  0.00  0.00    +0.008 A 
ATOM      3  C   UNL     1      -1.838  -6.535   2.283  0.00  0.00    +0.012 A 
ATOM      4  C   UNL     1      -1.302  -7.029   3.456  0.00  0.00    +0.047 A 
ATOM      5  C   UNL     1      -0.121  -7.757   3.427  0.00  0.00    +0.135 A 
ATOM      6  C   UNL     1       0.519  -7.986   2.220  0.00  0.00    +0.093 A 
ATOM      7  C   UNL     1      -0.020  -7.487   1.041  0.00  0.00    +0.138 A 
ATOM      8  O   UNL     1       0.619  -7.720  -0.132  0.00  0.00    -0.441 OA
ATOM      9  C   UNL     1      -0.047  -7.601  -1.293  0.00  0.00    +0.199 C 
ATOM     10  C   UNL     1      -1.198  -6.900  -1.386  0.00  0.00    +0.098 C 
ENDROOT
BRANCH   1  14
ATOM     11  C   UNL     1      -1.016  -2.017  -0.430  0.00  0.00    +0.162 A 
ATOM     12  C   UNL     1       0.035  -2.919  -0.377  0.00  0.00    +0.050 A 
ATOM     13  C   UNL     1      -0.222  -4.275  -0.300  0.00  0.00    +0.008 A 
ATOM     14  C   UNL     1      -1.526  -4.735  -0.276  0.00  0.00    -0.031 A 
ATOM     15  C   UNL     1      -2.578  -3.840  -0.329  0.00  0.00    +0.054 A 
ATOM     16  C   UNL     1      -2.328  -2.479  -0.400  0.00  0.00    +0.162 A 
BRANCH  11  17
ATOM     17  O   UNL     1      -0.765  -0.682  -0.506  0.00  0.00    -0.489 OA
BRANCH  17  19
ATOM     18  C   UNL     1       0.689   1.245  -0.618  0.00  0.00    +0.048 C 
ATOM     19  C   UNL     1       0.606  -0.280  -0.532  0.00  0.00    +0.226 C 
ENDBRANCH  17  19
ENDBRANCH  11  17
BRANCH  16  20
ATOM     20  O   UNL     1      -3.362  -1.598  -0.446  0.00  0.00    -0.489 OA
BRANCH  20  21
ATOM     21  C   UNL     1      -4.683  -2.144  -0.411  0.00  0.00    +0.226 C 
ATOM     22  C   UNL     1      -5.706  -1.008  -0.472  0.00  0.00    +0.048 C 
ENDBRANCH  20  21
ENDBRANCH  16  20
ENDBRANCH   1  14
BRANCH   9  23
ATOM     23  N   UNL     1       0.458  -8.209  -2.415  0.00  0.00    -0.328 N 
ATOM     24  H   UNL     1       1.284  -8.715  -2.363  0.00  0.00    +0.145 HD
ATOM     25  H   UNL     1      -0.011  -8.132  -3.261  0.00  0.00    +0.145 HD
ENDBRANCH   9  23
BRANCH  10  26
ATOM     26  C   UNL     1      -1.858  -6.811  -2.654  0.00  0.00    +0.101 C 
ATOM     27  N   UNL     1      -2.382  -6.741  -3.659  0.00  0.00    -0.191 NA
ENDBRANCH  10  26
BRANCH   5  28
ATOM     28  O   UNL     1       0.407  -8.244   4.581  0.00  0.00    -0.423 OA
BRANCH  28  29
ATOM     29  C   UNL     1       1.571  -7.727   5.009  0.00  0.00    +0.353 C 
ATOM     30  O   UNL     1       2.066  -6.791   4.427  0.00  0.00    -0.246 OA
BRANCH  29  31
ATOM     31  C   UNL     1       2.258  -8.316   6.214  0.00  0.00    +0.279 C 
ATOM     32  C   UNL     1       2.693  -9.749   5.903  0.00  0.00    +0.064 C 
BRANCH  31  33
ATOM     33  O   UNL     1       3.406  -7.529   6.538  0.00  0.00    -0.475 OA
BRANCH  33  34
ATOM     34  C   UNL     1       3.862  -7.601   7.817  0.00  0.00    +0.157 A 
ATOM     35  C   UNL     1       3.174  -8.352   8.759  0.00  0.00    +0.048 A 
ATOM     36  C   UNL     1       3.640  -8.424  10.058  0.00  0.00    +0.004 A 
ATOM     37  C   UNL     1       4.790  -7.748  10.421  0.00  0.00    +0.003 A 
ATOM     38  C   UNL     1       5.479  -6.998   9.485  0.00  0.00    +0.042 A 
ATOM     39  C   UNL     1       5.021  -6.928   8.182  0.00  0.00    +0.165 A 
ATOM     40  F   UNL     1       5.697  -6.200   7.266  0.00  0.00    -0.202 F 
ENDBRANCH  33  34
ENDBRANCH  31  33
ENDBRANCH  29  31
ENDBRANCH  28  29
ENDBRANCH   5  28
TORSDOF 12
