REMARK  Name = ZINC31167769
REMARK  15 active torsions:
REMARK  status: ('A' for Active; 'I' for Inactive)
REMARK    1  A    between atoms: C_1  and  C_2
REMARK    2  A    between atoms: C_2  and  C_39
REMARK    3  A    between atoms: C_11  and  C_16
REMARK    4  A    between atoms: C_19  and  C_38
REMARK    5  A    between atoms: C_20  and  C_37
REMARK    6  A    between atoms: C_22  and  O_36
REMARK    7  A    between atoms: C_24  and  C_26
REMARK    8  A    between atoms: C_26  and  C_27
REMARK    9  A    between atoms: C_26  and  C_28
REMARK   10  A    between atoms: C_26  and  O_35
REMARK   11  A    between atoms: C_28  and  C_29
REMARK   12  A    between atoms: C_30  and  C_31
REMARK   13  A    between atoms: C_31  and  C_32
REMARK   14  A    between atoms: C_31  and  C_33
REMARK   15  A    between atoms: C_31  and  O_34
REMARK                            x       y       z     vdW  Elec       q    Type
REMARK                         _______ _______ _______ _____ _____    ______ ____
ROOT
ATOM      1  C   UNL     1       2.909  -0.846   0.539  0.00  0.00    +0.019 C 
ATOM      2  C   UNL     1       1.522  -0.550   1.109  0.00  0.00    +0.027 C 
ATOM      3  C   UNL     1       1.319   0.933   1.292  0.00  0.00    +0.008 C 
ATOM      4  C   UNL     1       2.623   1.714   1.369  0.00  0.00    +0.005 C 
ATOM      5  C   UNL     1       2.350   3.143   1.833  0.00  0.00    +0.005 C 
ATOM      6  C   UNL     1       1.304   3.858   0.988  0.00  0.00    -0.001 C 
ATOM      7  C   UNL     1       0.112   3.012   0.656  0.00  0.00    -0.001 C 
ATOM      8  C   UNL     1       0.372   1.562   0.273  0.00  0.00    -0.025 C 
ATOM      9  C   UNL     1      -0.962   0.797   0.363  0.00  0.00    +0.015 C 
ATOM     10  C   UNL     1      -0.789  -0.616  -0.183  0.00  0.00    +0.075 C 
ATOM     11  C   UNL     1       0.515  -1.214   0.233  0.00  0.00    +0.139 C 
ATOM     12  O   UNL     1       0.780  -2.320  -0.174  0.00  0.00    -0.297 OA
ATOM     13  C   UNL     1       0.923   1.438  -1.142  0.00  0.00    +0.012 C 
ATOM     14  C   UNL     1      -0.885   3.699  -0.260  0.00  0.00    +0.005 C 
ATOM     15  C   UNL     1      -0.242   4.425  -1.421  0.00  0.00    +0.008 C 
ATOM     16  C   UNL     1       0.933   5.303  -1.085  0.00  0.00    -0.019 C 
ATOM     17  C   UNL     1       1.944   4.671  -0.123  0.00  0.00    -0.021 C 
ATOM     18  C   UNL     1       2.627   5.885   0.578  0.00  0.00    +0.039 C 
ATOM     19  C   UNL     1       1.700   7.094   0.410  0.00  0.00    +0.121 C 
ATOM     20  C   UNL     1       0.590   6.698  -0.579  0.00  0.00    +0.056 C 
ATOM     21  C   UNL     1       3.011   3.891  -0.919  0.00  0.00    +0.012 C 
ATOM     22  C   UNL     1       1.694   5.508  -2.425  0.00  0.00    +0.012 C 
ATOM     23  C   UNL     1       1.436  -1.216   2.490  0.00  0.00    +0.019 C 
ENDROOT
BRANCH  20  24
ATOM     24  C   UNL     1      -0.773   6.793   0.096  0.00  0.00    +0.072 C 
ATOM     25  C   UNL     1      -1.057   8.249   0.470  0.00  0.00    +0.042 C 
BRANCH  24  26
ATOM     26  O   UNL     1      -1.782   6.326  -0.802  0.00  0.00    -0.388 OA
ATOM     27  H   UNL     1      -2.837   6.319  -0.488  0.00  0.00    +0.210 HD
ENDBRANCH  24  26
BRANCH  24  28
ATOM     28  C   UNL     1      -0.777   5.931   1.361  0.00  0.00    +0.061 C 
BRANCH  28  29
ATOM     29  C   UNL     1      -2.173   5.876   1.926  0.00  0.00    -0.026 C 
ATOM     30  C   UNL     1      -2.747   4.719   2.142  0.00  0.00    +0.002 C 
BRANCH  30  31
ATOM     31  C   UNL     1      -4.143   4.663   2.708  0.00  0.00    +0.079 C 
ATOM     32  C   UNL     1      -5.064   3.941   1.723  0.00  0.00    +0.045 C 
ATOM     33  C   UNL     1      -4.125   3.907   4.038  0.00  0.00    +0.045 C 
BRANCH  31  34
ATOM     34  O   UNL     1      -4.623   5.992   2.921  0.00  0.00    -0.385 OA
ATOM     35  H   UNL     1      -5.631   6.153   3.333  0.00  0.00    +0.211 HD
ENDBRANCH  31  34
ENDBRANCH  30  31
ENDBRANCH  28  29
ENDBRANCH  24  28
ENDBRANCH  20  24
BRANCH  19  36
ATOM     36  O   UNL     1       1.126   7.465   1.668  0.00  0.00    -0.391 OA
ATOM     37  H   UNL     1       0.434   8.318   1.726  0.00  0.00    +0.210 HD
ENDBRANCH  19  36
TORSDOF 7
