REMARK  Name = ZINC13465251
REMARK  6 active torsions:
REMARK  status: ('A' for Active; 'I' for Inactive)
REMARK    1  A    between atoms: C_3  and  N_9
REMARK    2  A    between atoms: C_6  and  C_7
REMARK    3  A    between atoms: N_9  and  S_10
REMARK    4  A    between atoms: S_10  and  C_13
REMARK    5  A    between atoms: C_16  and  N_22
REMARK    6  A    between atoms: C_17  and  N_19
REMARK                            x       y       z     vdW  Elec       q    Type
REMARK                         _______ _______ _______ _____ _____    ______ ____
ROOT
ATOM      1  C   UNL     1       1.042  -0.404   1.503  0.00  0.00    +0.111 A 
ATOM      2  C   UNL     1       2.422  -0.433   1.417  0.00  0.00    +0.031 A 
ATOM      3  C   UNL     1       3.178  -0.744   2.530  0.00  0.00    +0.027 A 
ATOM      4  C   UNL     1       2.551  -1.039   3.734  0.00  0.00    +0.060 A 
ATOM      5  C   UNL     1       1.164  -1.014   3.815  0.00  0.00    +0.149 A 
ATOM      6  C   UNL     1       0.414  -0.697   2.699  0.00  0.00    +0.063 A 
ENDROOT
BRANCH   4   7
ATOM      7  N   UNL     1       3.312  -1.359   4.860  0.00  0.00    -0.325 N 
ATOM      8  C   UNL     1       4.146  -0.221   5.272  0.00  0.00    +0.124 C 
ATOM      9  C   UNL     1       4.903  -0.584   6.552  0.00  0.00    +0.126 C 
ATOM     10  N   UNL     1       5.726  -1.776   6.310  0.00  0.00    -0.307 N 
ATOM     11  C   UNL     1       4.892  -2.914   5.898  0.00  0.00    +0.126 C 
ATOM     12  C   UNL     1       4.136  -2.551   4.618  0.00  0.00    +0.124 C 
ATOM     13  C   UNL     1       6.482  -2.094   7.428  0.00  0.00    +0.161 A 
ATOM     14  N   UNL     1       6.521  -3.223   8.109  0.00  0.00    -0.233 NA
ATOM     15  C   UNL     1       7.309  -3.360   9.159  0.00  0.00    +0.120 A 
ATOM     16  C   UNL     1       8.075  -2.308   9.534  0.00  0.00    +0.068 A 
ATOM     17  S   UNL     1       7.615  -1.105   8.295  0.00  0.00    -0.061 S 
ENDBRANCH   4   7
BRANCH   1  18
ATOM     18  S   UNL     1       0.081  -0.000   0.082  0.00  0.00    +0.072 S 
ATOM     19  O   UNL     1      -1.237  -0.465   0.337  0.00  0.00    -0.150 OA
ATOM     20  O   UNL     1       0.832  -0.421  -1.049  0.00  0.00    -0.150 OA
BRANCH  18  21
ATOM     21  N   UNL     1      -0.006   1.652   0.004  0.00  0.00    -0.216 N 
ATOM     22  H   UNL     1       0.380   2.123  -0.751  0.00  0.00    +0.174 HD
BRANCH  21  25
ATOM     23  C   UNL     1      -0.635   4.210   2.546  0.00  0.00    +0.017 A 
ATOM     24  C   UNL     1      -0.024   3.505   1.542  0.00  0.00    +0.025 A 
ATOM     25  C   UNL     1      -0.629   2.364   1.022  0.00  0.00    +0.048 A 
ATOM     26  C   UNL     1      -1.858   1.937   1.517  0.00  0.00    +0.025 A 
ATOM     27  C   UNL     1      -2.473   2.634   2.526  0.00  0.00    +0.017 A 
ATOM     28  C   UNL     1      -1.868   3.781   3.049  0.00  0.00    +0.063 A 
BRANCH  28  29
ATOM     29  C   UNL     1      -2.528   4.536   4.130  0.00  0.00    +0.387 C 
ATOM     30  O   UNL     1      -2.001   5.533   4.584  0.00  0.00    -0.241 OA
ATOM     31  O   UNL     1      -3.715   4.122   4.613  0.00  0.00    -0.241 OA
ENDBRANCH  28  29
ENDBRANCH  21  25
ENDBRANCH  18  21
ENDBRANCH   1  18
BRANCH   5  32
ATOM     32  N   UNL     1       0.491  -1.326   5.096  0.00  0.00    +0.058 N 
ATOM     33  O   UNL     1      -0.724  -1.304   5.166  0.00  0.00    -0.126 OA
ATOM     34  O   UNL     1       1.153  -1.606   6.079  0.00  0.00    -0.126 OA
ENDBRANCH   5  32
TORSDOF 6
