REMARK  Name = ZINC04289711
REMARK  7 active torsions:
REMARK  status: ('A' for Active; 'I' for Inactive)
REMARK    1  A    between atoms: C_1  and  C_2
REMARK    2  A    between atoms: C_5  and  S_11
REMARK    3  A    between atoms: C_7  and  N_8
REMARK    4  A    between atoms: S_11  and  N_14
REMARK    5  A    between atoms: N_14  and  C_15
REMARK    6  A    between atoms: C_17  and  C_22
REMARK    7  A    between atoms: C_19  and  C_21
REMARK                            x       y       z     vdW  Elec       q    Type
REMARK                         _______ _______ _______ _____ _____    ______ ____
ROOT
ATOM      1  S   UNL     1      -1.588  -0.817  -0.063  0.00  0.00    +0.072 S 
ATOM      2  O   UNL     1      -1.771  -2.073   0.575  0.00  0.00    -0.150 OA
ATOM      3  O   UNL     1      -2.258   0.360   0.367  0.00  0.00    -0.150 OA
ENDROOT
BRANCH   1   8
ATOM      4  C   UNL     1       4.321   0.384   0.152  0.00  0.00    +0.046 C 
ATOM      5  C   UNL     1       2.845   0.084   0.099  0.00  0.00    -0.020 A 
ATOM      6  C   UNL     1       2.395  -1.211   0.281  0.00  0.00    +0.007 A 
ATOM      7  C   UNL     1       1.042  -1.486   0.232  0.00  0.00    +0.029 A 
ATOM      8  C   UNL     1       0.137  -0.466   0.000  0.00  0.00    +0.111 A 
ATOM      9  C   UNL     1       0.587   0.828  -0.182  0.00  0.00    +0.061 A 
ATOM     10  C   UNL     1       1.941   1.103  -0.132  0.00  0.00    +0.131 A 
BRANCH  10  11
ATOM     11  N   UNL     1       2.422   2.489  -0.328  0.00  0.00    +0.057 N 
ATOM     12  O   UNL     1       1.624   3.408  -0.392  0.00  0.00    -0.126 OA
ATOM     13  O   UNL     1       3.615   2.712  -0.425  0.00  0.00    -0.126 OA
ENDBRANCH  10  11
ENDBRANCH   1   8
BRANCH   1  14
ATOM     14  N   UNL     1      -1.986  -1.032  -1.656  0.00  0.00    -0.216 N 
ATOM     15  H   UNL     1      -2.638  -0.450  -2.076  0.00  0.00    +0.174 HD
BRANCH  14  16
ATOM     16  C   UNL     1      -1.383  -2.053  -2.394  0.00  0.00    +0.049 A 
ATOM     17  C   UNL     1      -0.420  -1.747  -3.348  0.00  0.00    +0.028 A 
ATOM     18  C   UNL     1       0.177  -2.759  -4.073  0.00  0.00    -0.048 A 
ATOM     19  C   UNL     1      -0.190  -4.075  -3.858  0.00  0.00    +0.006 A 
ATOM     20  C   UNL     1      -1.151  -4.383  -2.913  0.00  0.00    -0.048 A 
ATOM     21  C   UNL     1      -1.749  -3.376  -2.181  0.00  0.00    +0.028 A 
ATOM     22  C   UNL     1      -1.547  -5.818  -2.682  0.00  0.00    +0.044 C 
ATOM     23  C   UNL     1       1.226  -2.429  -5.103  0.00  0.00    +0.044 C 
ENDBRANCH  14  16
ENDBRANCH   1  14
TORSDOF 4
