REMARK  Name = ZINC09467529
REMARK  8 active torsions:
REMARK  status: ('A' for Active; 'I' for Inactive)
REMARK    1  A    between atoms: C_1  and  C_2
REMARK    2  A    between atoms: C_3  and  N_15
REMARK    3  A    between atoms: N_6  and  C_9
REMARK    4  A    between atoms: N_7  and  C_8
REMARK    5  A    between atoms: N_15  and  S_16
REMARK    6  A    between atoms: S_16  and  C_19
REMARK    7  A    between atoms: C_23  and  N_25
REMARK    8  A    between atoms: N_28  and  C_29
REMARK                            x       y       z     vdW  Elec       q    Type
REMARK                         _______ _______ _______ _____ _____    ______ ____
ROOT
ATOM      1  S   UNL     1       5.520   1.550  -0.226  0.00  0.00    +0.073 S 
ATOM      2  O   UNL     1       5.454   2.883   0.262  0.00  0.00    -0.150 OA
ATOM      3  O   UNL     1       6.158   0.506   0.496  0.00  0.00    -0.150 OA
ENDROOT
BRANCH   1   4
ATOM      4  C   UNL     1       3.859   1.031  -0.500  0.00  0.00    +0.110 A 
ATOM      5  C   UNL     1       3.591  -0.289  -0.816  0.00  0.00    +0.029 A 
ATOM      6  C   UNL     1       2.288  -0.701  -1.031  0.00  0.00    +0.004 A 
ATOM      7  C   UNL     1       1.251   0.206  -0.932  0.00  0.00    +0.023 A 
ATOM      8  C   UNL     1       1.516   1.531  -0.615  0.00  0.00    +0.037 A 
ATOM      9  C   UNL     1       2.826   1.943  -0.405  0.00  0.00    +0.052 A 
BRANCH   8  10
ATOM     10  N   UNL     1       0.468   2.452  -0.514  0.00  0.00    -0.269 N 
ATOM     11  C   UNL     1      -0.633   2.305  -1.278  0.00  0.00    +0.308 C 
ATOM     12  O   UNL     1      -0.683   1.421  -2.110  0.00  0.00    -0.252 OA
ATOM     13  N   UNL     1      -1.678   3.143  -1.122  0.00  0.00    -0.267 N 
ATOM     14  H   UNL     1       0.533   3.196   0.105  0.00  0.00    +0.156 HD
ATOM     15  H   UNL     1      -1.610   3.894  -0.512  0.00  0.00    +0.156 HD
BRANCH  13  16
ATOM     16  C   UNL     1      -2.860   2.929  -1.841  0.00  0.00    +0.070 A 
ATOM     17  C   UNL     1      -2.822   2.275  -3.065  0.00  0.00    +0.026 A 
ATOM     18  C   UNL     1      -3.990   2.061  -3.770  0.00  0.00    +0.002 A 
ATOM     19  C   UNL     1      -5.197   2.507  -3.264  0.00  0.00    +0.003 A 
ATOM     20  C   UNL     1      -5.240   3.164  -2.048  0.00  0.00    +0.040 A 
ATOM     21  C   UNL     1      -4.075   3.377  -1.334  0.00  0.00    +0.145 A 
ATOM     22  F   UNL     1      -4.117   4.020  -0.147  0.00  0.00    -0.204 F 
ENDBRANCH  13  16
ENDBRANCH   8  10
ENDBRANCH   1   4
BRANCH   1  23
ATOM     23  N   UNL     1       6.260   1.624  -1.705  0.00  0.00    -0.209 N 
ATOM     24  H   UNL     1       6.980   1.009  -1.919  0.00  0.00    +0.174 HD
BRANCH  23  27
ATOM     25  C   UNL     1       7.307   1.782  -4.579  0.00  0.00    +0.067 C 
ATOM     26  C   UNL     1       6.285   2.679  -3.928  0.00  0.00    +0.061 A 
ATOM     27  C   UNL     1       5.845   2.581  -2.655  0.00  0.00    +0.135 A 
ATOM     28  C   UNL     1       4.886   3.605  -2.442  0.00  0.00    +0.295 A 
ATOM     29  O   UNL     1       4.276   3.814  -1.409  0.00  0.00    -0.264 OA
ATOM     30  N   UNL     1       4.774   4.307  -3.588  0.00  0.00    -0.216 N 
ATOM     31  N   UNL     1       5.642   3.734  -4.527  0.00  0.00    -0.282 N 
ATOM     32  C   UNL     1       5.831   4.184  -5.909  0.00  0.00    +0.171 C 
BRANCH  30  33
ATOM     33  C   UNL     1       3.936   5.405  -3.803  0.00  0.00    +0.067 A 
ATOM     34  C   UNL     1       3.836   6.403  -2.842  0.00  0.00    +0.028 A 
ATOM     35  C   UNL     1       3.012   7.490  -3.059  0.00  0.00    +0.002 A 
ATOM     36  C   UNL     1       2.278   7.579  -4.228  0.00  0.00    +0.000 A 
ATOM     37  C   UNL     1       2.370   6.585  -5.184  0.00  0.00    +0.002 A 
ATOM     38  C   UNL     1       3.196   5.498  -4.975  0.00  0.00    +0.028 A 
ENDBRANCH  30  33
ENDBRANCH  23  27
ENDBRANCH   1  23
TORSDOF 6
