REMARK  Name = ZINC38688988
REMARK  6 active torsions:
REMARK  status: ('A' for Active; 'I' for Inactive)
REMARK    1  A    between atoms: C_7  and  C_10
REMARK    2  A    between atoms: N_11  and  N_12
REMARK    3  A    between atoms: C_13  and  C_15
REMARK    4  A    between atoms: C_17  and  C_28
REMARK    5  A    between atoms: C_28  and  S_29
REMARK    6  A    between atoms: S_29  and  C_30
REMARK                            x       y       z     vdW  Elec       q    Type
REMARK                         _______ _______ _______ _____ _____    ______ ____
ROOT
ATOM      1  C   UNL     1      -0.220  -7.864  -0.038  0.00  0.00    +0.239 C 
ATOM      2  C   UNL     1      -0.705  -8.163   1.396  0.00  0.00    +0.147 C 
ATOM      3  N   UNL     1      -0.218  -9.539   1.614  0.00  0.00    -0.177 N 
ATOM      4  N   UNL     1       0.445  -9.935   0.452  0.00  0.00    -0.077 NA
ATOM      5  N   UNL     1       0.471  -9.095  -0.446  0.00  0.00    -0.156 NA
ATOM      6  C   UNL     1      -0.387 -10.301   2.768  0.00  0.00    +0.228 A 
ATOM      7  C   UNL     1       0.107 -11.666   2.975  0.00  0.00    +0.204 A 
ATOM      8  N   UNL     1      -0.242 -12.050   4.172  0.00  0.00    -0.032 NA
ATOM      9  O   UNL     1      -0.957 -10.988   4.779  0.00  0.00    -0.239 OA
ATOM     10  N   UNL     1      -1.008  -9.920   3.849  0.00  0.00    -0.030 NA
ATOM     11  N   UNL     1       0.825 -12.421   2.055  0.00  0.00    -0.338 N 
ATOM     12  H   UNL     1       1.040 -12.049   1.185  0.00  0.00    +0.144 HD
ATOM     13  H   UNL     1       1.112 -13.319   2.282  0.00  0.00    +0.144 HD
ENDROOT
BRANCH   1  15
ATOM     14  N   UNL     1       0.255  -5.437  -0.030  0.00  0.00    -0.205 N 
ATOM     15  C   UNL     1       0.733  -6.697  -0.041  0.00  0.00    +0.261 C 
ATOM     16  O   UNL     1       1.930  -6.892  -0.054  0.00  0.00    -0.272 OA
ATOM     17  H   UNL     1      -0.702  -5.281  -0.020  0.00  0.00    +0.177 HD
BRANCH  14  19
ATOM     18  C   UNL     1       0.677  -3.128  -0.022  0.00  0.00    +0.136 C 
ATOM     19  N   UNL     1       1.141  -4.352  -0.033  0.00  0.00    -0.188 NA
BRANCH  18  26
ATOM     20  C   UNL     1      -0.016   1.353   0.009  0.00  0.00    +0.001 A 
ATOM     21  C   UNL     1       1.164   2.102   0.002  0.00  0.00    +0.002 A 
ATOM     22  C   UNL     1       2.384   1.514  -0.013  0.00  0.00    +0.026 A 
ATOM     23  C   UNL     1       2.485   0.097  -0.022  0.00  0.00    +0.043 A 
ATOM     24  N   UNL     1       3.531  -0.702  -0.037  0.00  0.00    -0.380 N 
ATOM     25  C   UNL     1       3.076  -2.096  -0.040  0.00  0.00    +0.150 C 
ATOM     26  C   UNL     1       1.565  -2.042  -0.024  0.00  0.00    +0.000 C 
ATOM     27  C   UNL     1       1.238  -0.688  -0.013  0.00  0.00    +0.004 A 
ATOM     28  C   UNL     1       0.002  -0.004   0.002  0.00  0.00    +0.010 A 
ATOM     29  H   UNL     1       4.458  -0.414  -0.045  0.00  0.00    +0.160 HD
ENDBRANCH  18  26
ENDBRANCH  14  19
ENDBRANCH   1  15
BRANCH   2  30
ATOM     30  C   UNL     1      -2.232  -8.104   1.477  0.00  0.00    +0.101 C 
BRANCH  30  31
ATOM     31  S   UNL     1      -2.754  -8.313   3.202  0.00  0.00    -0.123 S 
BRANCH  31  32
ATOM     32  C   UNL     1      -4.512  -8.222   3.129  0.00  0.00    +0.008 A 
ATOM     33  C   UNL     1      -5.150  -8.032   1.909  0.00  0.00    +0.016 A 
ATOM     34  C   UNL     1      -6.527  -7.961   1.855  0.00  0.00    +0.021 A 
ATOM     35  C   UNL     1      -7.274  -8.078   3.015  0.00  0.00    +0.041 A 
ATOM     36  C   UNL     1      -6.642  -8.266   4.232  0.00  0.00    +0.021 A 
ATOM     37  C   UNL     1      -5.264  -8.344   4.291  0.00  0.00    +0.016 A 
ATOM     38 CL   UNL     1      -9.006  -7.987   2.943  0.00  0.00    -0.084 Cl
ENDBRANCH  31  32
ENDBRANCH  30  31
ENDBRANCH   2  30
TORSDOF 6
