REMARK  Name = ZINC39693315
REMARK  7 active torsions:
REMARK  status: ('A' for Active; 'I' for Inactive)
REMARK    1  A    between atoms: C_10  and  C_11
REMARK    2  A    between atoms: C_11  and  C_12
REMARK    3  A    between atoms: N_14  and  C_15
REMARK    4  A    between atoms: C_15  and  C_16
REMARK    5  A    between atoms: C_16  and  N_17
REMARK    6  A    between atoms: C_18  and  C_20
REMARK    7  A    between atoms: C_31  and  C_33
REMARK                            x       y       z     vdW  Elec       q    Type
REMARK                         _______ _______ _______ _____ _____    ______ ____
ROOT
ATOM      1  N   UNL     1       8.937   4.881   4.789  0.00  0.00    -0.314 N 
ATOM      2  C   UNL     1       9.580   3.815   5.305  0.00  0.00    +0.218 C 
ATOM      3  O   UNL     1       9.849   2.868   4.597  0.00  0.00    -0.275 OA
ATOM      4  H   UNL     1       8.722   5.638   5.356  0.00  0.00    +0.149 HD
ENDROOT
BRANCH   2   5
ATOM      5  C   UNL     1       9.965   3.800   6.762  0.00  0.00    +0.100 C 
ATOM      6  C   UNL     1      10.135   2.346   7.259  0.00  0.00    +0.121 C 
ATOM      7  N   UNL     1      11.586   2.075   7.129  0.00  0.00    -0.296 N 
ATOM      8  C   UNL     1      12.237   3.339   7.549  0.00  0.00    +0.115 C 
ATOM      9  C   UNL     1      11.346   4.449   6.958  0.00  0.00    -0.004 C 
ATOM     10  C   UNL     1      11.246   5.620   7.930  0.00  0.00    -0.010 C 
ATOM     11  C   UNL     1      12.619   6.285   8.064  0.00  0.00    -0.082 C 
ATOM     12  N   UNL     1      13.068   6.753   6.747  0.00  0.00    +0.379 N 
ATOM     13  C   UNL     1      13.251   5.609   5.845  0.00  0.00    -0.082 C 
ATOM     14  C   UNL     1      11.905   4.916   5.618  0.00  0.00    -0.010 C 
ATOM     15  C   UNL     1      12.180   0.935   6.723  0.00  0.00    +0.247 C 
ATOM     16  O   UNL     1      11.508   0.021   6.288  0.00  0.00    -0.270 OA
ATOM     17  H   UNL     1      12.377   7.378   6.360  0.00  0.00    -0.086 HD
ATOM     18  H   UNL     1      13.944   7.244   6.847  0.00  0.00    -0.086 HD
BRANCH  15  19
ATOM     19  C   UNL     1      13.653   0.797   6.805  0.00  0.00    +0.040 A 
ATOM     20  C   UNL     1      14.407   1.627   7.640  0.00  0.00    +0.033 A 
ATOM     21  C   UNL     1      15.778   1.463   7.687  0.00  0.00    +0.111 A 
ATOM     22  N   UNL     1      16.374   0.541   6.958  0.00  0.00    -0.263 NA
ATOM     23  C   UNL     1      15.701  -0.262   6.159  0.00  0.00    +0.111 A 
ATOM     24  C   UNL     1      14.327  -0.172   6.055  0.00  0.00    +0.033 A 
ENDBRANCH  15  19
ENDBRANCH   2   5
BRANCH   1  25
ATOM     25  C   UNL     1       8.563   4.896   3.373  0.00  0.00    +0.123 C 
BRANCH  25  26
ATOM     26  C   UNL     1       7.850   6.210   3.047  0.00  0.00    +0.123 C 
BRANCH  26  29
ATOM     27  C   UNL     1       6.833   7.290   1.115  0.00  0.00    +0.217 C 
ATOM     28  O   UNL     1       6.564   8.238   1.823  0.00  0.00    -0.275 OA
ATOM     29  N   UNL     1       7.476   6.224   1.631  0.00  0.00    -0.314 N 
ATOM     30  H   UNL     1       7.692   5.467   1.064  0.00  0.00    +0.149 HD
BRANCH  27  31
ATOM     31  C   UNL     1       6.448   7.306  -0.342  0.00  0.00    +0.131 C 
BRANCH  31  41
ATOM     32  C   UNL     1       7.919  12.035  -1.636  0.00  0.00    +0.001 A 
ATOM     33  C   UNL     1       8.586  10.847  -1.341  0.00  0.00    +0.001 A 
ATOM     34  C   UNL     1       7.897   9.717  -1.022  0.00  0.00    +0.009 A 
ATOM     35  C   UNL     1       6.492   9.746  -0.989  0.00  0.00    -0.014 A 
ATOM     36  C   UNL     1       5.814  10.954  -1.288  0.00  0.00    -0.018 A 
ATOM     37  C   UNL     1       6.560  12.100  -1.613  0.00  0.00    +0.008 A 
ATOM     38  C   UNL     1       4.410  10.983  -1.253  0.00  0.00    +0.008 A 
ATOM     39  C   UNL     1       3.721   9.853  -0.934  0.00  0.00    +0.001 A 
ATOM     40  C   UNL     1       4.387   8.665  -0.639  0.00  0.00    +0.005 A 
ATOM     41  C   UNL     1       5.747   8.600  -0.663  0.00  0.00    -0.031 A 
ENDBRANCH  31  41
ENDBRANCH  27  31
ENDBRANCH  26  29
ENDBRANCH  25  26
ENDBRANCH   1  25
TORSDOF 7
