REMARK  Name = ZINC16606268
REMARK  5 active torsions:
REMARK  status: ('A' for Active; 'I' for Inactive)
REMARK    1  A    between atoms: C_1  and  C_2
REMARK    2  A    between atoms: C_9  and  C_11
REMARK    3  A    between atoms: N_13  and  N_14
REMARK    4  A    between atoms: C_15  and  C_16
REMARK    5  A    between atoms: C_19  and  N_22
REMARK                            x       y       z     vdW  Elec       q    Type
REMARK                         _______ _______ _______ _____ _____    ______ ____
ROOT
ATOM      1  C   UNL     1       1.928   4.889  -2.129  0.00  0.00    +0.236 C 
ATOM      2  O   UNL     1       1.249   5.890  -2.032  0.00  0.00    -0.274 OA
ATOM      3  N   UNL     1       2.122   4.321  -3.335  0.00  0.00    -0.207 N 
ATOM      4  H   UNL     1       2.665   3.521  -3.412  0.00  0.00    +0.177 HD
ENDROOT
BRANCH   1  12
ATOM      5  C   UNL     1       0.273   3.125  -0.578  0.00  0.00    +0.012 C 
ATOM      6  C   UNL     1       1.698   3.338  -0.066  0.00  0.00    -0.017 C 
ATOM      7  C   UNL     1       2.330   2.115   0.580  0.00  0.00    +0.008 C 
ATOM      8  C   UNL     1       3.599   2.505   1.338  0.00  0.00    +0.001 C 
ATOM      9  C   UNL     1       3.253   3.614   2.339  0.00  0.00    +0.000 C 
ATOM     10  C   UNL     1       3.069   4.921   1.553  0.00  0.00    +0.005 C 
ATOM     11  C   UNL     1       2.012   4.728   0.468  0.00  0.00    +0.008 C 
ATOM     12  C   UNL     1       2.554   4.283  -0.900  0.00  0.00    +0.086 C 
ENDBRANCH   1  12
BRANCH   3  13
ATOM     13  N   UNL     1       1.540   4.885  -4.477  0.00  0.00    -0.188 NA
ATOM     14  C   UNL     1       1.612   4.265  -5.615  0.00  0.00    +0.138 C 
BRANCH  14  15
ATOM     15  C   UNL     1       1.939   2.828  -5.653  0.00  0.00    -0.005 A 
ATOM     16  C   UNL     1       1.749   2.035  -4.519  0.00  0.00    +0.012 A 
ATOM     17  C   UNL     1       2.052   0.690  -4.563  0.00  0.00    +0.033 A 
ATOM     18  C   UNL     1       2.554   0.128  -5.724  0.00  0.00    +0.126 A 
ATOM     19  C   UNL     1       2.750   0.909  -6.849  0.00  0.00    +0.033 A 
ATOM     20  C   UNL     1       2.446   2.254  -6.821  0.00  0.00    +0.012 A 
BRANCH  18  21
ATOM     21  N   UNL     1       2.882  -1.315  -5.762  0.00  0.00    +0.056 N 
ATOM     22  O   UNL     1       3.323  -1.812  -6.783  0.00  0.00    -0.126 OA
ATOM     23  O   UNL     1       2.710  -2.005  -4.774  0.00  0.00    -0.126 OA
ENDBRANCH  18  21
ENDBRANCH  14  15
ENDBRANCH   3  13
TORSDOF 4
