REMARK  Name = ZINC01048201
REMARK  10 active torsions:
REMARK  status: ('A' for Active; 'I' for Inactive)
REMARK    1  A    between atoms: C_1  and  O_2
REMARK    2  A    between atoms: O_2  and  C_3
REMARK    3  A    between atoms: C_5  and  N_12
REMARK    4  A    between atoms: C_6  and  O_10
REMARK    5  A    between atoms: O_10  and  C_11
REMARK    6  A    between atoms: N_12  and  C_13
REMARK    7  A    between atoms: C_13  and  N_15
REMARK    8  A    between atoms: N_15  and  N_16
REMARK    9  A    between atoms: C_17  and  C_18
REMARK   10  A    between atoms: C_23  and  O_24
REMARK                            x       y       z     vdW  Elec       q    Type
REMARK                         _______ _______ _______ _____ _____    ______ ____
ROOT
ATOM      1  C   UNL     1      -4.738   1.543   0.141  0.00  0.00    +0.154 C 
ATOM      2  S   UNL     1      -3.227   2.348   0.131  0.00  0.00    -0.017 S 
ENDROOT
BRANCH   1   3
ATOM      3  N   UNL     1      -4.787   0.200   0.038  0.00  0.00    -0.293 N 
ATOM      4  H   UNL     1      -5.643  -0.250  -0.037  0.00  0.00    +0.154 HD
BRANCH   3   7
ATOM      5  C   UNL     1      -1.425  -0.995   0.948  0.00  0.00    +0.140 A 
ATOM      6  C   UNL     1      -2.597  -0.255   0.949  0.00  0.00    +0.074 A 
ATOM      7  C   UNL     1      -3.601  -0.546   0.038  0.00  0.00    +0.078 A 
ATOM      8  C   UNL     1      -3.428  -1.582  -0.878  0.00  0.00    +0.143 A 
ATOM      9  C   UNL     1      -2.255  -2.318  -0.876  0.00  0.00    +0.071 A 
ATOM     10  C   UNL     1      -1.253  -2.022   0.031  0.00  0.00    +0.086 A 
ATOM     11 CL   UNL     1       0.219  -2.942   0.026  0.00  0.00    -0.080 Cl
BRANCH   5  13
ATOM     12  C   UNL     1      -0.684   0.361   2.756  0.00  0.00    +0.277 C 
ATOM     13  O   UNL     1      -0.440  -0.710   1.841  0.00  0.00    -0.494 OA
ENDBRANCH   5  13
BRANCH   8  14
ATOM     14  O   UNL     1      -4.411  -1.870  -1.773  0.00  0.00    -0.493 OA
ATOM     15  C   UNL     1      -4.166  -2.945  -2.682  0.00  0.00    +0.277 C 
ENDBRANCH   8  14
ENDBRANCH   3   7
ENDBRANCH   1   3
BRANCH   1  16
ATOM     16  N   UNL     1      -5.879   2.252   0.252  0.00  0.00    -0.218 N 
ATOM     17  H   UNL     1      -5.844   3.218   0.327  0.00  0.00    +0.176 HD
BRANCH  16  18
ATOM     18  N   UNL     1      -7.115   1.593   0.260  0.00  0.00    -0.188 NA
ATOM     19  C   UNL     1      -8.214   2.276   0.367  0.00  0.00    +0.142 C 
BRANCH  19  20
ATOM     20  C   UNL     1      -9.515   1.583   0.376  0.00  0.00    +0.038 A 
ATOM     21  C   UNL     1     -10.700   2.314   0.485  0.00  0.00    +0.028 A 
ATOM     22  C   UNL     1     -11.914   1.660   0.492  0.00  0.00    +0.020 A 
ATOM     23  C   UNL     1     -11.963   0.279   0.391  0.00  0.00    +0.034 A 
ATOM     24  C   UNL     1     -10.797  -0.456   0.283  0.00  0.00    +0.061 A 
ATOM     25  C   UNL     1      -9.569   0.187   0.269  0.00  0.00    +0.139 A 
ATOM     26 BR   UNL     1     -10.878  -2.340   0.146  0.00  0.00    -0.046 Br
ATOM     27 BR   UNL     1     -13.518   2.651   0.641  0.00  0.00    -0.050 Br
BRANCH  25  28
ATOM     28  O   UNL     1      -8.424  -0.534   0.156  0.00  0.00    -0.505 OA
ATOM     29  H   UNL     1      -8.049  -0.812   1.004  0.00  0.00    +0.292 HD
ENDBRANCH  25  28
ENDBRANCH  19  20
ENDBRANCH  16  18
ENDBRANCH   1  16
TORSDOF 8
