REMARK  Name = ZINC63208084
REMARK  8 active torsions:
REMARK  status: ('A' for Active; 'I' for Inactive)
REMARK    1  A    between atoms: C_1  and  C_2
REMARK    2  A    between atoms: C_2  and  C_3
REMARK    3  A    between atoms: C_3  and  C_4
REMARK    4  A    between atoms: N_6  and  C_7
REMARK    5  A    between atoms: C_11  and  N_14
REMARK    6  A    between atoms: C_12  and  C_13
REMARK    7  A    between atoms: C_15  and  C_17
REMARK    8  A    between atoms: C_25  and  O_29
REMARK                            x       y       z     vdW  Elec       q    Type
REMARK                         _______ _______ _______ _____ _____    ______ ____
ROOT
ATOM      1  N   UNL     1       2.269  -6.760   4.443  0.00  0.00    -0.277 N 
ATOM      2  C   UNL     1       2.284  -8.108   4.446  0.00  0.00    +0.303 C 
ATOM      3  O   UNL     1       1.763  -8.723   3.538  0.00  0.00    -0.265 OA
ATOM      4  H   UNL     1       2.625  -6.270   5.200  0.00  0.00    +0.155 HD
ENDROOT
BRANCH   2   5
ATOM      5  C   UNL     1       2.942  -8.845   5.566  0.00  0.00    +0.302 C 
ATOM      6  O   UNL     1       3.373  -8.236   6.523  0.00  0.00    -0.265 OA
ATOM      7  N   UNL     1       3.057 -10.187   5.513  0.00  0.00    -0.289 N 
ATOM      8  C   UNL     1       3.595 -10.954   6.649  0.00  0.00    +0.113 C 
ATOM      9  C   UNL     1       2.482 -11.858   7.176  0.00  0.00    +0.054 C 
ATOM     10  C   UNL     1       1.803 -12.587   6.046  0.00  0.00    -0.041 A 
ATOM     11  C   UNL     1       1.086 -13.736   6.360  0.00  0.00    +0.007 A 
ATOM     12  C   UNL     1       0.433 -14.447   5.378  0.00  0.00    +0.045 A 
ATOM     13  C   UNL     1       0.488 -14.014   4.061  0.00  0.00    +0.117 A 
ATOM     14  C   UNL     1       1.205 -12.872   3.746  0.00  0.00    +0.050 A 
ATOM     15  C   UNL     1       1.867 -12.162   4.737  0.00  0.00    -0.023 A 
ATOM     16  C   UNL     1       2.645 -10.943   4.325  0.00  0.00    +0.143 C 
BRANCH  13  17
ATOM     17  O   UNL     1      -0.156 -14.707   3.085  0.00  0.00    -0.507 OA
ATOM     18  H   UNL     1      -1.066 -14.418   2.933  0.00  0.00    +0.292 HD
ENDBRANCH  13  17
ENDBRANCH   2   5
BRANCH   1  23
ATOM     19  C   UNL     1       1.775  -4.180   1.867  0.00  0.00    +0.038 A 
ATOM     20  C   UNL     1       0.689  -4.706   1.178  0.00  0.00    +0.024 A 
ATOM     21  C   UNL     1       0.134  -5.907   1.573  0.00  0.00    +0.004 A 
ATOM     22  C   UNL     1       0.656  -6.590   2.655  0.00  0.00    +0.024 A 
ATOM     23  C   UNL     1       1.742  -6.070   3.348  0.00  0.00    +0.038 A 
ATOM     24  C   UNL     1       2.306  -4.865   2.949  0.00  0.00    -0.008 A 
ATOM     25  C   UNL     1       3.488  -4.301   3.695  0.00  0.00    +0.047 C 
BRANCH  19  28
ATOM     26  C   UNL     1       2.200  -2.546   0.191  0.00  0.00    +0.217 C 
ATOM     27  O   UNL     1       1.683  -3.271  -0.632  0.00  0.00    -0.275 OA
ATOM     28  N   UNL     1       2.336  -2.962   1.466  0.00  0.00    -0.285 N 
ATOM     29  H   UNL     1       2.822  -2.418   2.105  0.00  0.00    +0.155 HD
BRANCH  26  30
ATOM     30  C   UNL     1       2.692  -1.179  -0.211  0.00  0.00    +0.096 C 
BRANCH  30  32
ATOM     31  C   UNL     1       2.918   0.431  -2.108  0.00  0.00    +0.004 C 
ATOM     32  C   UNL     1       2.419  -0.957  -1.700  0.00  0.00    +0.006 C 
ENDBRANCH  30  32
ENDBRANCH  26  30
ENDBRANCH  19  28
ENDBRANCH   1  23
TORSDOF 6
