REMARK  Name = ZINC13199955
REMARK  6 active torsions:
REMARK  status: ('A' for Active; 'I' for Inactive)
REMARK    1  A    between atoms: C_1  and  N_2
REMARK    2  A    between atoms: C_8  and  C_28
REMARK    3  A    between atoms: C_12  and  S_13
REMARK    4  A    between atoms: S_13  and  C_14
REMARK    5  A    between atoms: C_14  and  C_15
REMARK    6  A    between atoms: C_17  and  N_25
REMARK                            x       y       z     vdW  Elec       q    Type
REMARK                         _______ _______ _______ _____ _____    ______ ____
ROOT
ATOM      1  C   UNL     1       1.137   6.196   3.874  0.00  0.00    +0.154 C 
ATOM      2  N   UNL     1       1.123   6.760   2.522  0.00  0.00    -0.290 N 
ATOM      3  C   UNL     1       1.108   8.102   2.355  0.00  0.00    +0.262 A 
ATOM      4  O   UNL     1       1.106   8.856   3.310  0.00  0.00    -0.267 OA
ATOM      5  C   UNL     1       1.087   8.617   0.976  0.00  0.00    +0.065 A 
ATOM      6  C   UNL     1       1.065   9.985   0.706  0.00  0.00    +0.016 A 
ATOM      7  C   UNL     1       1.046  10.422  -0.587  0.00  0.00    +0.016 A 
ATOM      8  C   UNL     1       1.049   9.509  -1.649  0.00  0.00    +0.065 A 
ATOM      9  C   UNL     1       1.071   8.142  -1.403  0.00  0.00    +0.043 A 
ATOM     10  C   UNL     1       1.090   7.682  -0.083  0.00  0.00    +0.080 A 
ATOM     11  N   UNL     1       1.111   6.359   0.204  0.00  0.00    -0.223 NA
ATOM     12  C   UNL     1       1.129   5.926   1.440  0.00  0.00    +0.172 A 
ENDROOT
BRANCH   8  13
ATOM     13  C   UNL     1       1.028  10.004  -3.044  0.00  0.00    +0.387 C 
ATOM     14  O   UNL     1       1.030   9.216  -3.968  0.00  0.00    -0.241 OA
ATOM     15  O   UNL     1       1.006  11.328  -3.288  0.00  0.00    -0.241 OA
ENDBRANCH   8  13
BRANCH  12  16
ATOM     16  S   UNL     1       1.157   4.186   1.720  0.00  0.00    -0.083 S 
BRANCH  16  17
ATOM     17  C   UNL     1       1.149   3.593   0.011  0.00  0.00    +0.116 C 
BRANCH  17  18
ATOM     18  C   UNL     1       1.170   2.086   0.002  0.00  0.00    +0.007 A 
ATOM     19  C   UNL     1      -0.017   1.378   0.010  0.00  0.00    +0.040 A 
ATOM     20  C   UNL     1       0.002  -0.004   0.002  0.00  0.00    +0.127 A 
ATOM     21  C   UNL     1       1.208  -0.681  -0.012  0.00  0.00    +0.042 A 
ATOM     22  C   UNL     1       2.397   0.022  -0.018  0.00  0.00    +0.022 A 
ATOM     23  C   UNL     1       2.381   1.409  -0.013  0.00  0.00    +0.133 A 
ATOM     24  O   UNL     1       3.544   2.113  -0.025  0.00  0.00    -0.466 OA
ATOM     25  C   UNL     1       4.734   1.401   0.326  0.00  0.00    +0.394 C 
ATOM     26  O   UNL     1       4.759   0.167  -0.401  0.00  0.00    -0.339 OA
ATOM     27  C   UNL     1       3.706  -0.726  -0.025  0.00  0.00    +0.202 C 
BRANCH  20  28
ATOM     28  N   UNL     1      -1.270  -0.760   0.009  0.00  0.00    +0.056 N 
ATOM     29  O   UNL     1      -2.333  -0.165   0.021  0.00  0.00    -0.126 OA
ATOM     30  O   UNL     1      -1.254  -1.978   0.002  0.00  0.00    -0.126 OA
ENDBRANCH  20  28
ENDBRANCH  17  18
ENDBRANCH  16  17
ENDBRANCH  12  16
TORSDOF 5
