REMARK  Name = ZINC39912653
REMARK  15 active torsions:
REMARK  status: ('A' for Active; 'I' for Inactive)
REMARK    1  A    between atoms: C_1  and  C_2
REMARK    2  A    between atoms: C_2  and  C_3
REMARK    3  A    between atoms: C_3  and  C_4
REMARK    4  A    between atoms: C_4  and  O_5
REMARK    5  A    between atoms: O_5  and  C_6
REMARK    6  A    between atoms: C_9  and  C_15
REMARK    7  A    between atoms: C_11  and  O_12
REMARK    8  A    between atoms: O_12  and  C_13
REMARK    9  A    between atoms: C_13  and  C_14
REMARK   10  A    between atoms: C_18  and  C_33
REMARK   11  A    between atoms: N_25  and  C_26
REMARK   12  A    between atoms: C_26  and  C_27
REMARK   13  A    between atoms: C_35  and  C_41
REMARK   14  A    between atoms: C_37  and  C_40
REMARK   15  A    between atoms: C_38  and  O_39
REMARK                            x       y       z     vdW  Elec       q    Type
REMARK                         _______ _______ _______ _____ _____    ______ ____
ROOT
ATOM      1  C   UNL     1       2.553  -7.912  -2.565  0.00  0.00    +0.142 C 
ATOM      2  C   UNL     1       3.758  -8.212  -1.716  0.00  0.00    +0.035 A 
ATOM      3  C   UNL     1       5.120  -7.993  -1.482  0.00  0.00    +0.102 A 
ATOM      4  N   UNL     1       5.458  -8.707  -0.426  0.00  0.00    -0.173 NA
ATOM      5  N   UNL     1       4.446  -9.355   0.029  0.00  0.00    -0.272 N 
ATOM      6  H   UNL     1       4.462  -9.944   0.799  0.00  0.00    +0.189 HD
ATOM      7  C   UNL     1       3.344  -9.091  -0.734  0.00  0.00    +0.126 A 
ATOM      8  C   UNL     1       1.915  -9.364  -0.925  0.00  0.00    +0.266 C 
ATOM      9  O   UNL     1       1.249 -10.101  -0.223  0.00  0.00    -0.268 OA
ATOM     10  N   UNL     1       1.445  -8.684  -1.988  0.00  0.00    -0.281 N 
ENDROOT
BRANCH   3  11
ATOM     11  C   UNL     1       6.018  -7.118  -2.275  0.00  0.00    +0.044 A 
ATOM     12  C   UNL     1       5.557  -6.520  -3.446  0.00  0.00    +0.017 A 
ATOM     13  C   UNL     1       6.396  -5.707  -4.180  0.00  0.00    -0.049 A 
ATOM     14  C   UNL     1       7.694  -5.483  -3.758  0.00  0.00    +0.010 A 
ATOM     15  C   UNL     1       8.162  -6.071  -2.598  0.00  0.00    -0.008 A 
ATOM     16  C   UNL     1       7.328  -6.885  -1.848  0.00  0.00    +0.129 A 
ATOM     17  C   UNL     1       9.578  -5.823  -2.146  0.00  0.00    +0.047 C 
ATOM     18  C   UNL     1       5.896  -5.061  -5.447  0.00  0.00    +0.044 C 
BRANCH  16  19
ATOM     19  O   UNL     1       7.784  -7.459  -0.705  0.00  0.00    -0.506 OA
ATOM     20  H   UNL     1       8.191  -8.326  -0.835  0.00  0.00    +0.292 HD
ENDBRANCH  16  19
ENDBRANCH   3  11
BRANCH   1  24
ATOM     21  C   UNL     1       1.663  -3.731  -2.436  0.00  0.00    +0.162 A 
ATOM     22  C   UNL     1       2.142  -4.305  -3.603  0.00  0.00    +0.050 A 
ATOM     23  C   UNL     1       2.429  -5.657  -3.641  0.00  0.00    +0.009 A 
ATOM     24  C   UNL     1       2.239  -6.439  -2.517  0.00  0.00    -0.019 A 
ATOM     25  C   UNL     1       1.761  -5.873  -1.350  0.00  0.00    +0.055 A 
ATOM     26  C   UNL     1       1.477  -4.518  -1.303  0.00  0.00    +0.162 A 
BRANCH  21  27
ATOM     27  O   UNL     1       1.381  -2.401  -2.397  0.00  0.00    -0.488 OA
BRANCH  27  28
ATOM     28  C   UNL     1       1.596  -1.657  -3.597  0.00  0.00    +0.229 C 
BRANCH  28  29
ATOM     29  C   UNL     1       1.226  -0.191  -3.361  0.00  0.00    +0.041 C 
BRANCH  29  31
ATOM     30  C   UNL     1       1.086   2.072  -4.410  0.00  0.00    +0.004 C 
ATOM     31  C   UNL     1       1.456   0.607  -4.646  0.00  0.00    -0.000 C 
ENDBRANCH  29  31
ENDBRANCH  28  29
ENDBRANCH  27  28
ENDBRANCH  21  27
BRANCH  26  32
ATOM     32  O   UNL     1       1.012  -3.958  -0.154  0.00  0.00    -0.489 OA
BRANCH  32  33
ATOM     33  C   UNL     1       0.889  -4.816   0.982  0.00  0.00    +0.226 C 
ATOM     34  C   UNL     1       0.414  -4.002   2.187  0.00  0.00    +0.048 C 
ENDBRANCH  32  33
ENDBRANCH  26  32
ENDBRANCH   1  24
BRANCH  10  35
ATOM     35  C   UNL     1       0.066  -8.708  -2.483  0.00  0.00    +0.145 C 
BRANCH  35  36
ATOM     36  C   UNL     1      -0.084  -9.812  -3.498  0.00  0.00    -0.012 A 
ATOM     37  C   UNL     1       0.152  -9.566  -4.842  0.00  0.00    +0.008 A 
ATOM     38  C   UNL     1       0.002 -10.612  -5.740  0.00  0.00    +0.020 A 
ATOM     39  C   UNL     1      -0.375 -11.855  -5.269  0.00  0.00    +0.111 A 
ATOM     40  N   UNL     1      -0.592 -12.053  -3.983  0.00  0.00    -0.263 NA
ATOM     41  C   UNL     1      -0.452 -11.083  -3.100  0.00  0.00    +0.115 A 
ENDBRANCH  35  36
ENDBRANCH  10  35
TORSDOF 11
