REMARK  Name = ZINC59010303
REMARK  9 active torsions:
REMARK  status: ('A' for Active; 'I' for Inactive)
REMARK    1  A    between atoms: C_1  and  C_2
REMARK    2  A    between atoms: C_3  and  C_11
REMARK    3  A    between atoms: C_7  and  N_8
REMARK    4  A    between atoms: C_11  and  N_12
REMARK    5  A    between atoms: C_15  and  C_19
REMARK    6  A    between atoms: C_15  and  C_20
REMARK    7  A    between atoms: C_23  and  C_26
REMARK    8  A    between atoms: C_26  and  C_27
REMARK    9  A    between atoms: C_26  and  C_28
REMARK                            x       y       z     vdW  Elec       q    Type
REMARK                         _______ _______ _______ _____ _____    ______ ____
ROOT
ATOM      1  N   UNL     1       0.428   0.720  -2.958  0.00  0.00    -0.220 N 
ATOM      2  C   UNL     1       0.773   1.981  -2.628  0.00  0.00    +0.251 C 
ATOM      3  O   UNL     1       0.199   2.719  -1.856  0.00  0.00    -0.272 OA
ATOM      4  C   UNL     1       2.028   2.284  -3.423  0.00  0.00    +0.135 C 
ATOM      5  N   UNL     1       2.267   1.042  -4.179  0.00  0.00    -0.281 N 
ATOM      6  C   UNL     1       1.284   0.188  -3.837  0.00  0.00    +0.310 C 
ATOM      7  O   UNL     1       1.184  -0.939  -4.280  0.00  0.00    -0.252 OA
ATOM      8  C   UNL     1       1.791   3.457  -4.376  0.00  0.00    +0.047 C 
ATOM      9  H   UNL     1       2.992   0.872  -4.800  0.00  0.00    +0.152 HD
ENDROOT
BRANCH   4  10
ATOM     10  C   UNL     1       3.183   2.573  -2.500  0.00  0.00    -0.015 A 
ATOM     11  C   UNL     1       2.952   3.135  -1.259  0.00  0.00    +0.006 A 
ATOM     12  C   UNL     1       4.012   3.401  -0.412  0.00  0.00    +0.004 A 
ATOM     13  C   UNL     1       5.303   3.103  -0.807  0.00  0.00    -0.045 A 
ATOM     14  C   UNL     1       5.534   2.540  -2.048  0.00  0.00    +0.004 A 
ATOM     15  C   UNL     1       4.474   2.271  -2.893  0.00  0.00    +0.006 A 
BRANCH  13  16
ATOM     16  C   UNL     1       6.459   3.394   0.116  0.00  0.00    +0.013 C 
ATOM     17  C   UNL     1       7.197   2.092   0.433  0.00  0.00    +0.012 C 
ATOM     18  C   UNL     1       7.419   4.373  -0.562  0.00  0.00    +0.012 C 
ENDBRANCH  13  16
ENDBRANCH   4  10
BRANCH   1  19
ATOM     19  C   UNL     1      -0.737   0.017  -2.415  0.00  0.00    +0.153 C 
BRANCH  19  22
ATOM     20  C   UNL     1      -0.526   1.449   0.086  0.00  0.00    +0.046 C 
ATOM     21  C   UNL     1      -0.241  -0.030   0.038  0.00  0.00    -0.016 A 
ATOM     22  C   UNL     1      -0.342  -0.715  -1.158  0.00  0.00    -0.025 A 
ATOM     23  C   UNL     1      -0.080  -2.071  -1.202  0.00  0.00    +0.005 A 
ATOM     24  C   UNL     1       0.283  -2.743  -0.050  0.00  0.00    +0.003 A 
ATOM     25  C   UNL     1       0.385  -2.058   1.147  0.00  0.00    +0.033 A 
ATOM     26  C   UNL     1       0.127  -0.700   1.190  0.00  0.00    +0.129 A 
BRANCH  26  27
ATOM     27  N   UNL     1       0.241   0.035   2.470  0.00  0.00    +0.057 N 
ATOM     28  O   UNL     1       0.674   1.163   2.482  0.00  0.00    -0.126 OA
ATOM     29  O   UNL     1      -0.099  -0.494   3.502  0.00  0.00    -0.126 OA
ENDBRANCH  26  27
ENDBRANCH  19  22
ENDBRANCH   1  19
TORSDOF 5
