REMARK  Name = ZINC16326502
REMARK  8 active torsions:
REMARK  status: ('A' for Active; 'I' for Inactive)
REMARK    1  A    between atoms: C_1  and  C_2
REMARK    2  A    between atoms: C_5  and  N_9
REMARK    3  A    between atoms: C_10  and  C_12
REMARK    4  A    between atoms: C_12  and  O_13
REMARK    5  A    between atoms: O_13  and  C_14
REMARK    6  A    between atoms: C_14  and  C_16
REMARK    7  A    between atoms: C_17  and  C_22
REMARK    8  A    between atoms: C_20  and  N_21
REMARK                            x       y       z     vdW  Elec       q    Type
REMARK                         _______ _______ _______ _____ _____    ______ ____
ROOT
ATOM      1  N   UNL     1      -5.669   3.888  -3.141  0.00  0.00    -0.281 N 
ATOM      2  C   UNL     1      -4.592   3.151  -3.479  0.00  0.00    +0.255 C 
ATOM      3  O   UNL     1      -3.898   3.485  -4.415  0.00  0.00    -0.272 OA
ATOM      4  H   UNL     1      -6.265   3.582  -2.439  0.00  0.00    +0.155 HD
ENDROOT
BRANCH   1   9
ATOM      5  C   UNL     1      -6.712   8.780  -5.820  0.00  0.00    +0.044 C 
ATOM      6  C   UNL     1      -6.435   7.481  -5.108  0.00  0.00    -0.048 A 
ATOM      7  C   UNL     1      -6.986   6.305  -5.581  0.00  0.00    +0.020 A 
ATOM      8  C   UNL     1      -6.734   5.111  -4.931  0.00  0.00    +0.040 A 
ATOM      9  C   UNL     1      -5.926   5.095  -3.801  0.00  0.00    +0.062 A 
ATOM     10  C   UNL     1      -5.379   6.280  -3.326  0.00  0.00    +0.040 A 
ATOM     11  C   UNL     1      -5.630   7.468  -3.984  0.00  0.00    +0.020 A 
ATOM     12 BR   UNL     1      -4.285   6.265  -1.783  0.00  0.00    -0.048 Br
ATOM     13 BR   UNL     1      -7.488   3.503  -5.580  0.00  0.00    -0.048 Br
ENDBRANCH   1   9
BRANCH   2  14
ATOM     14  C   UNL     1      -4.251   1.911  -2.692  0.00  0.00    +0.328 C 
BRANCH  14  15
ATOM     15  O   UNL     1      -3.057   1.299  -3.249  0.00  0.00    -0.452 OA
BRANCH  15  16
ATOM     16  C   UNL     1      -2.614   0.172  -2.655  0.00  0.00    +0.346 C 
ATOM     17  O   UNL     1      -3.210  -0.287  -1.699  0.00  0.00    -0.245 OA
BRANCH  16  18
ATOM     18  C   UNL     1      -1.416  -0.501  -3.163  0.00  0.00    +0.142 A 
ATOM     19  C   UNL     1      -1.325  -1.519  -4.158  0.00  0.00    +0.097 A 
ATOM     20  N   UNL     1      -0.063  -1.800  -4.279  0.00  0.00    -0.081 NA
ATOM     21  O   UNL     1       0.635  -1.149  -3.541  0.00  0.00    -0.339 OA
ATOM     22  C   UNL     1      -0.082  -0.302  -2.787  0.00  0.00    +0.230 A 
ATOM     23  C   UNL     1      -2.466  -2.139  -4.922  0.00  0.00    +0.070 C 
BRANCH  22  24
ATOM     24  N   UNL     1       0.392   0.577  -1.850  0.00  0.00    -0.327 N 
ATOM     25  H   UNL     1       1.345   0.632  -1.674  0.00  0.00    +0.145 HD
ATOM     26  H   UNL     1      -0.224   1.145  -1.362  0.00  0.00    +0.145 HD
ENDBRANCH  22  24
ENDBRANCH  16  18
ENDBRANCH  15  16
ENDBRANCH  14  15
ENDBRANCH   2  14
TORSDOF 6
