REMARK  Name = ZINC06244787
REMARK  10 active torsions:
REMARK  status: ('A' for Active; 'I' for Inactive)
REMARK    1  A    between atoms: C_1  and  C_2
REMARK    2  A    between atoms: C_5  and  C_41
REMARK    3  A    between atoms: C_9  and  C_14
REMARK    4  A    between atoms: C_14  and  C_16
REMARK    5  A    between atoms: C_14  and  N_76
REMARK    6  A    between atoms: N_20  and  C_21
REMARK    7  A    between atoms: C_27  and  C_28
REMARK    8  A    between atoms: C_27  and  N_76
REMARK    9  A    between atoms: C_34  and  C_35
REMARK   10  A    between atoms: C_34  and  N_76
REMARK                            x       y       z     vdW  Elec       q    Type
REMARK                         _______ _______ _______ _____ _____    ______ ____
ROOT
ATOM      1  C   UNL     1       1.804   3.136  -1.856  0.00  0.00    +0.039 C 
ENDROOT
BRANCH   1  10
ATOM      2  C   UNL     1       0.044  -1.696  -2.675  0.00  0.00    +0.044 C 
ATOM      3  C   UNL     1       1.504  -1.682  -3.048  0.00  0.00    -0.041 A 
ATOM      4  C   UNL     1       2.107  -2.820  -3.504  0.00  0.00    +0.004 A 
ATOM      5  C   UNL     1       3.451  -2.818  -3.849  0.00  0.00    +0.005 A 
ATOM      6  C   UNL     1       4.204  -1.668  -3.740  0.00  0.00    -0.026 A 
ATOM      7  C   UNL     1       3.612  -0.497  -3.279  0.00  0.00    +0.052 A 
ATOM      8  C   UNL     1       2.248  -0.504  -2.929  0.00  0.00    +0.002 A 
ATOM      9  C   UNL     1       1.634   0.734  -2.445  0.00  0.00    +0.018 A 
ATOM     10  C   UNL     1       2.405   1.846  -2.351  0.00  0.00    +0.011 A 
ATOM     11  C   UNL     1       3.768   1.799  -2.715  0.00  0.00    +0.251 A 
ATOM     12  O   UNL     1       4.442   2.810  -2.623  0.00  0.00    -0.268 OA
ATOM     13  N   UNL     1       4.341   0.667  -3.160  0.00  0.00    -0.322 N 
ATOM     14  H   UNL     1       5.280   0.670  -3.401  0.00  0.00    +0.169 HD
ATOM     15  C   UNL     1       5.663  -1.680  -4.118  0.00  0.00    +0.046 C 
ENDBRANCH   1  10
BRANCH   1  16
ATOM     16  C   UNL     1       2.196   3.354  -0.417  0.00  0.00    +0.143 A 
ATOM     17  N   UNL     1       3.414   3.385   0.065  0.00  0.00    -0.115 NA
ATOM     18  N   UNL     1       3.335   3.596   1.334  0.00  0.00    -0.023 NA
ATOM     19  N   UNL     1       2.097   3.693   1.674  0.00  0.00    -0.044 NA
ATOM     20  N   UNL     1       1.364   3.549   0.622  0.00  0.00    -0.227 N 
BRANCH  20  21
ATOM     21  C   UNL     1      -0.100   3.592   0.569  0.00  0.00    +0.111 C 
ATOM     22  C   UNL     1      -0.584   4.992   0.951  0.00  0.00    +0.027 C 
ATOM     23  C   UNL     1      -2.112   5.036   0.895  0.00  0.00    +0.002 C 
ATOM     24  C   UNL     1      -2.688   4.013   1.876  0.00  0.00    +0.000 C 
ATOM     25  C   UNL     1      -2.204   2.612   1.494  0.00  0.00    +0.002 C 
ATOM     26  C   UNL     1      -0.675   2.568   1.550  0.00  0.00    +0.027 C 
ENDBRANCH  20  21
ENDBRANCH   1  16
BRANCH   1  27
ATOM     27  N   UNL     1       2.326   4.246  -2.680  0.00  0.00    +0.394 N 
ATOM     28  H   UNL     1       3.300   4.044  -2.932  0.00  0.00    -0.080 HD
BRANCH  27  29
ATOM     29  C   UNL     1       2.280   5.509  -1.914  0.00  0.00    -0.040 C 
BRANCH  29  30
ATOM     30  C   UNL     1       3.551   5.632  -1.113  0.00  0.00    -0.046 A 
ATOM     31  C   UNL     1       4.781   5.401  -1.710  0.00  0.00    +0.005 A 
ATOM     32  C   UNL     1       5.924   5.525  -0.934  0.00  0.00    +0.020 A 
ATOM     33  C   UNL     1       5.800   5.872   0.398  0.00  0.00    +0.111 A 
ATOM     34  N   UNL     1       4.613   6.084   0.931  0.00  0.00    -0.263 NA
ATOM     35  C   UNL     1       3.505   5.981   0.223  0.00  0.00    +0.112 A 
ENDBRANCH  29  30
ENDBRANCH  27  29
BRANCH  27  36
ATOM     36  C   UNL     1       1.527   4.376  -3.917  0.00  0.00    -0.045 C 
BRANCH  36  37
ATOM     37  C   UNL     1       2.053   3.374  -4.946  0.00  0.00    +0.102 C 
ATOM     38  C   UNL     1       1.585   3.764  -6.365  0.00  0.00    +0.032 C 
ATOM     39  C   UNL     1       1.298   2.410  -7.052  0.00  0.00    +0.030 C 
ATOM     40  C   UNL     1       1.627   1.362  -5.966  0.00  0.00    +0.160 C 
ATOM     41  O   UNL     1       1.481   2.068  -4.715  0.00  0.00    -0.378 OA
ENDBRANCH  36  37
ENDBRANCH  27  36
ENDBRANCH   1  27
TORSDOF 8
