REMARK  Name = ZINC06796363
REMARK  4 active torsions:
REMARK  status: ('A' for Active; 'I' for Inactive)
REMARK    1  A    between atoms: C_1  and  C_2
REMARK    2  A    between atoms: C_3  and  C_20
REMARK    3  A    between atoms: C_11  and  C_13
REMARK    4  A    between atoms: C_20  and  C_22
REMARK                            x       y       z     vdW  Elec       q    Type
REMARK                         _______ _______ _______ _____ _____    ______ ____
ROOT
ATOM      1  C   UNL     1      -2.877   4.928   0.045  0.00  0.00    +0.067 C 
ATOM      2  C   UNL     1      -2.641   3.439   0.035  0.00  0.00    +0.058 A 
ATOM      3  C   UNL     1      -3.706   2.540   0.035  0.00  0.00    +0.078 A 
ATOM      4  S   UNL     1      -2.823   0.986   0.021  0.00  0.00    -0.049 S 
ATOM      5  C   UNL     1      -1.214   1.639   0.017  0.00  0.00    +0.167 A 
ATOM      6  N   UNL     1      -1.433   2.947   0.031  0.00  0.00    -0.229 NA
ATOM      7  N   UNL     1      -0.011   0.966   0.007  0.00  0.00    -0.247 N 
ATOM      8  C   UNL     1       1.177   1.674  -0.000  0.00  0.00    +0.314 A 
ATOM      9  N   UNL     1       1.303   2.980   0.006  0.00  0.00    -0.092 NA
ATOM     10  N   UNL     1       2.552   3.290  -0.004  0.00  0.00    -0.106 NA
ATOM     11  C   UNL     1       3.272   2.195  -0.018  0.00  0.00    +0.250 A 
ATOM     12  O   UNL     1       2.417   1.149  -0.009  0.00  0.00    -0.405 OA
ATOM     13  H   UNL     1       0.002  -0.004   0.002  0.00  0.00    +0.158 HD
ENDROOT
BRANCH  11  14
ATOM     14  C   UNL     1       4.748   2.118  -0.033  0.00  0.00    +0.039 A 
ATOM     15  C   UNL     1       5.385   0.876  -0.041  0.00  0.00    +0.014 A 
ATOM     16  C   UNL     1       6.763   0.812  -0.060  0.00  0.00    +0.021 A 
ATOM     17  C   UNL     1       7.514   1.975  -0.061  0.00  0.00    +0.041 A 
ATOM     18  C   UNL     1       6.887   3.210  -0.047  0.00  0.00    +0.021 A 
ATOM     19  C   UNL     1       5.510   3.288  -0.033  0.00  0.00    +0.014 A 
ATOM     20 CL   UNL     1       9.247   1.886  -0.079  0.00  0.00    -0.084 Cl
ENDBRANCH  11  14
BRANCH   3  21
ATOM     21  C   UNL     1      -5.092   2.788   0.043  0.00  0.00    +0.168 C 
ATOM     22  O   UNL     1      -5.505   3.930   0.052  0.00  0.00    -0.292 OA
ATOM     23  C   UNL     1      -6.063   1.635   0.040  0.00  0.00    +0.092 C 
ENDBRANCH   3  21
TORSDOF 2
