REMARK  Name = ZINC06015249
REMARK  9 active torsions:
REMARK  status: ('A' for Active; 'I' for Inactive)
REMARK    1  A    between atoms: C_1  and  C_2
REMARK    2  A    between atoms: C_3  and  C_27
REMARK    3  A    between atoms: C_4  and  C_22
REMARK    4  A    between atoms: C_6  and  C_20
REMARK    5  A    between atoms: C_7  and  S_9
REMARK    6  A    between atoms: S_9  and  C_10
REMARK    7  A    between atoms: C_10  and  C_11
REMARK    8  A    between atoms: N_13  and  C_14
REMARK    9  A    between atoms: N_29  and  C_30
REMARK                            x       y       z     vdW  Elec       q    Type
REMARK                         _______ _______ _______ _____ _____    ______ ____
ROOT
ATOM      1  C   UNL     1      -0.285   1.735   0.281  0.00  0.00    +0.061 C 
ATOM      2  C   UNL     1      -0.938   1.764   1.639  0.00  0.00    +0.015 C 
ATOM      3  C   UNL     1      -0.196   1.538   2.735  0.00  0.00    +0.047 C 
ATOM      4  C   UNL     1      -0.797   1.545   4.111  0.00  0.00    +0.134 C 
ATOM      5  C   UNL     1      -2.148   2.203   4.101  0.00  0.00    +0.072 C 
ATOM      6  C   UNL     1      -2.824   2.408   2.939  0.00  0.00    +0.080 C 
ATOM      7  N   UNL     1      -2.278   2.025   1.736  0.00  0.00    -0.312 N 
ATOM      8  H   UNL     1      -2.923   1.930   0.850  0.00  0.00    +0.152 HD
ENDROOT
BRANCH   4   9
ATOM      9  C   UNL     1      -0.941   0.126   4.596  0.00  0.00    +0.118 A 
ATOM     10  C   UNL     1      -0.364  -0.392   5.696  0.00  0.00    +0.045 A 
ATOM     11  C   UNL     1      -0.766  -1.746   5.771  0.00  0.00    +0.041 A 
ATOM     12  C   UNL     1      -1.565  -1.974   4.713  0.00  0.00    +0.195 A 
ATOM     13  O   UNL     1      -1.672  -0.835   4.008  0.00  0.00    -0.467 OA
ENDBRANCH   4   9
BRANCH   3  14
ATOM     14  C   UNL     1       1.189   1.285   2.589  0.00  0.00    +0.247 C 
ATOM     15  O   UNL     1       1.712   1.372   1.492  0.00  0.00    -0.270 OA
ATOM     16  N   UNL     1       1.929   0.949   3.663  0.00  0.00    -0.282 N 
ATOM     17  H   UNL     1       1.445   0.796   4.639  0.00  0.00    +0.155 HD
BRANCH  16  18
ATOM     18  C   UNL     1       3.314   0.794   3.538  0.00  0.00    +0.034 A 
ATOM     19  C   UNL     1       3.850   0.240   2.383  0.00  0.00    +0.023 A 
ATOM     20  C   UNL     1       5.218   0.093   2.260  0.00  0.00    +0.002 A 
ATOM     21  C   UNL     1       6.052   0.487   3.290  0.00  0.00    +0.000 A 
ATOM     22  C   UNL     1       5.521   1.034   4.444  0.00  0.00    +0.002 A 
ATOM     23  C   UNL     1       4.155   1.188   4.571  0.00  0.00    +0.023 A 
ENDBRANCH  16  18
ENDBRANCH   3  14
BRANCH   5  24
ATOM     24  C   UNL     1      -2.733   2.623   5.339  0.00  0.00    +0.098 C 
ATOM     25  N   UNL     1      -3.198   2.956   6.320  0.00  0.00    -0.191 NA
ENDBRANCH   5  24
BRANCH   6  26
ATOM     26  S   UNL     1      -4.410   3.175   2.975  0.00  0.00    -0.100 S 
BRANCH  26  27
ATOM     27  C   UNL     1      -4.797   3.178   1.206  0.00  0.00    +0.171 C 
BRANCH  27  28
ATOM     28  C   UNL     1      -6.150   3.806   0.989  0.00  0.00    +0.227 C 
ATOM     29  O   UNL     1      -6.789   4.212   1.937  0.00  0.00    -0.275 OA
ATOM     30  N   UNL     1      -6.649   3.917  -0.258  0.00  0.00    -0.285 N 
ATOM     31  H   UNL     1      -6.109   3.474  -1.108  0.00  0.00    +0.155 HD
BRANCH  30  32
ATOM     32  C   UNL     1      -7.854   4.595  -0.471  0.00  0.00    +0.033 A 
ATOM     33  C   UNL     1      -8.707   4.194  -1.491  0.00  0.00    +0.023 A 
ATOM     34  C   UNL     1      -9.898   4.862  -1.696  0.00  0.00    +0.002 A 
ATOM     35  C   UNL     1     -10.237   5.936  -0.893  0.00  0.00    +0.000 A 
ATOM     36  C   UNL     1      -9.388   6.341   0.120  0.00  0.00    +0.002 A 
ATOM     37  C   UNL     1      -8.198   5.674   0.333  0.00  0.00    +0.023 A 
ENDBRANCH  30  32
ENDBRANCH  27  28
ENDBRANCH  26  27
ENDBRANCH   6  26
TORSDOF 8
