REMARK  Name = ZINC03053368
REMARK  10 active torsions:
REMARK  status: ('A' for Active; 'I' for Inactive)
REMARK    1  A    between atoms: C_1  and  O_2
REMARK    2  A    between atoms: O_2  and  C_3
REMARK    3  A    between atoms: C_5  and  O_27
REMARK    4  A    between atoms: C_6  and  C_11
REMARK    5  A    between atoms: C_7  and  O_9
REMARK    6  A    between atoms: O_9  and  C_10
REMARK    7  A    between atoms: C_11  and  C_13
REMARK    8  A    between atoms: C_11  and  N_53
REMARK    9  A    between atoms: C_18  and  O_19
REMARK   10  A    between atoms: O_27  and  C_28
REMARK                            x       y       z     vdW  Elec       q    Type
REMARK                         _______ _______ _______ _____ _____    ______ ____
ROOT
ATOM      1  C   UNL     1      -1.119   7.127   1.858  0.00  0.00    +0.004 C 
ENDROOT
BRANCH   1   2
ATOM      2  C   UNL     1      -2.027   7.750   0.829  0.00  0.00    -0.011 A 
ATOM      3  C   UNL     1      -1.488   8.382  -0.276  0.00  0.00    +0.055 A 
ATOM      4  C   UNL     1      -2.320   8.952  -1.225  0.00  0.00    +0.167 A 
ATOM      5  C   UNL     1      -3.702   8.896  -1.061  0.00  0.00    +0.170 A 
ATOM      6  C   UNL     1      -4.240   8.266   0.049  0.00  0.00    +0.095 A 
ATOM      7  C   UNL     1      -3.403   7.693   0.995  0.00  0.00    +0.122 A 
ATOM      8  O   UNL     1      -4.293   9.527  -2.117  0.00  0.00    -0.452 OA
ATOM      9  C   UNL     1      -3.276   9.611  -3.133  0.00  0.00    +0.466 C 
ATOM     10  O   UNL     1      -2.045   9.618  -2.385  0.00  0.00    -0.453 OA
BRANCH   7  11
ATOM     11  O   UNL     1      -3.931   7.075   2.085  0.00  0.00    -0.506 OA
ATOM     12  H   UNL     1      -4.062   7.660   2.844  0.00  0.00    +0.292 HD
ENDBRANCH   7  11
ENDBRANCH   1   2
BRANCH   1  16
ATOM     13  C   UNL     1      -0.524   2.994   0.919  0.00  0.00    +0.127 A 
ATOM     14  C   UNL     1       0.105   3.973   0.165  0.00  0.00    +0.091 A 
ATOM     15  C   UNL     1      -0.092   5.313   0.467  0.00  0.00    +0.129 A 
ATOM     16  C   UNL     1      -0.909   5.672   1.528  0.00  0.00    +0.027 A 
ATOM     17  C   UNL     1      -1.534   4.692   2.284  0.00  0.00    +0.129 A 
ATOM     18  C   UNL     1      -1.341   3.353   1.980  0.00  0.00    +0.091 A 
BRANCH  13  20
ATOM     19  C   UNL     1       0.520   1.384  -0.485  0.00  0.00    +0.277 C 
ATOM     20  O   UNL     1      -0.335   1.681   0.621  0.00  0.00    -0.495 OA
ENDBRANCH  13  20
BRANCH  17  21
ATOM     21  O   UNL     1      -2.336   5.044   3.324  0.00  0.00    -0.495 OA
ATOM     22  C   UNL     1      -2.947   3.983   4.060  0.00  0.00    +0.277 C 
ENDBRANCH  17  21
BRANCH  15  23
ATOM     23  O   UNL     1       0.520   6.273  -0.275  0.00  0.00    -0.495 OA
ATOM     24  C   UNL     1       1.259   5.837  -1.418  0.00  0.00    +0.277 C 
ENDBRANCH  15  23
ENDBRANCH   1  16
BRANCH   1  29
ATOM     25  C   UNL     1       0.013   9.253   2.218  0.00  0.00    -0.078 C 
ATOM     26  C   UNL     1       1.435   9.667   2.671  0.00  0.00    -0.020 C 
ATOM     27  C   UNL     1       1.942   8.408   3.412  0.00  0.00    -0.020 C 
ATOM     28  C   UNL     1       1.088   7.249   2.866  0.00  0.00    -0.078 C 
ATOM     29  N   UNL     1       0.196   7.836   1.865  0.00  0.00    +0.387 N 
ATOM     30  H   UNL     1       0.623   7.762   0.935  0.00  0.00    -0.080 HD
ENDBRANCH   1  29
TORSDOF 7
