REMARK  Name = ZINC08948462
REMARK  11 active torsions:
REMARK  status: ('A' for Active; 'I' for Inactive)
REMARK    1  A    between atoms: C_1  and  C_2
REMARK    2  A    between atoms: C_2  and  C_26
REMARK    3  A    between atoms: N_5  and  C_9
REMARK    4  A    between atoms: C_9  and  C_10
REMARK    5  A    between atoms: N_12  and  C_13
REMARK    6  A    between atoms: C_13  and  C_14
REMARK    7  A    between atoms: N_16  and  C_17
REMARK    8  A    between atoms: C_29  and  C_32
REMARK    9  A    between atoms: C_32  and  C_33
REMARK   10  A    between atoms: C_32  and  C_34
REMARK   11  A    between atoms: C_32  and  C_35
REMARK                            x       y       z     vdW  Elec       q    Type
REMARK                         _______ _______ _______ _____ _____    ______ ____
ROOT
ATOM      1  C   UNL     1       1.296  -4.818  -0.706  0.00  0.00    +0.047 C 
ATOM      2  C   UNL     1       0.069  -4.301   0.047  0.00  0.00    +0.135 C 
ATOM      3  C   UNL     1      -1.206  -4.843  -0.568  0.00  0.00    +0.251 C 
ATOM      4  O   UNL     1      -1.608  -4.663  -1.698  0.00  0.00    -0.272 OA
ATOM      5  N   UNL     1      -1.800  -5.565   0.402  0.00  0.00    -0.215 N 
ATOM      6  C   UNL     1      -1.085  -5.555   1.533  0.00  0.00    +0.310 C 
ATOM      7  O   UNL     1      -1.418  -6.136   2.547  0.00  0.00    -0.252 OA
ATOM      8  N   UNL     1       0.043  -4.831   1.421  0.00  0.00    -0.281 N 
ATOM      9  H   UNL     1       0.709  -4.685   2.111  0.00  0.00    +0.152 HD
ENDROOT
BRANCH   2  10
ATOM     10  C   UNL     1       0.053  -2.794   0.059  0.00  0.00    -0.015 A 
ATOM     11  C   UNL     1       0.647  -2.105   1.101  0.00  0.00    +0.006 A 
ATOM     12  C   UNL     1       0.633  -0.723   1.111  0.00  0.00    +0.004 A 
ATOM     13  C   UNL     1       0.025  -0.029   0.082  0.00  0.00    -0.042 A 
ATOM     14  C   UNL     1      -0.574  -0.719  -0.957  0.00  0.00    +0.004 A 
ATOM     15  C   UNL     1      -0.555  -2.101  -0.970  0.00  0.00    +0.006 A 
BRANCH  13  16
ATOM     16  C   UNL     1       0.009   1.477   0.094  0.00  0.00    -0.013 C 
ATOM     17  C   UNL     1       1.446   2.003   0.095  0.00  0.00    +0.015 C 
ATOM     18  C   UNL     1      -0.721   1.990  -1.149  0.00  0.00    +0.015 C 
ATOM     19  C   UNL     1      -0.715   1.970   1.349  0.00  0.00    +0.015 C 
ENDBRANCH  13  16
ENDBRANCH   2  10
BRANCH   5  20
ATOM     20  C   UNL     1      -3.072  -6.273   0.238  0.00  0.00    +0.213 C 
BRANCH  20  21
ATOM     21  C   UNL     1      -4.208  -5.358   0.616  0.00  0.00    +0.231 C 
ATOM     22  O   UNL     1      -3.978  -4.226   0.984  0.00  0.00    -0.274 OA
ATOM     23  N   UNL     1      -5.480  -5.798   0.543  0.00  0.00    -0.305 N 
ATOM     24  H   UNL     1      -5.664  -6.703   0.248  0.00  0.00    +0.149 HD
BRANCH  23  25
ATOM     25  C   UNL     1      -6.585  -4.908   0.909  0.00  0.00    +0.200 C 
BRANCH  25  26
ATOM     26  C   UNL     1      -7.894  -5.636   0.741  0.00  0.00    +0.234 C 
ATOM     27  O   UNL     1      -7.903  -6.785   0.354  0.00  0.00    -0.274 OA
ATOM     28  N   UNL     1      -9.054  -5.011   1.022  0.00  0.00    -0.282 N 
ATOM     29  H   UNL     1      -9.044  -4.114   1.393  0.00  0.00    +0.155 HD
BRANCH  28  30
ATOM     30  C   UNL     1     -10.274  -5.655   0.777  0.00  0.00    +0.072 A 
ATOM     31  C   UNL     1     -10.382  -7.028   0.950  0.00  0.00    +0.029 A 
ATOM     32  C   UNL     1     -11.586  -7.662   0.709  0.00  0.00    +0.043 A 
ATOM     33  C   UNL     1     -12.686  -6.931   0.296  0.00  0.00    +0.161 A 
ATOM     34  C   UNL     1     -12.583  -5.559   0.122  0.00  0.00    +0.195 A 
ATOM     35  C   UNL     1     -11.380  -4.919   0.367  0.00  0.00    +0.182 A 
ATOM     36  F   UNL     1     -11.279  -3.582   0.204  0.00  0.00    -0.200 F 
ATOM     37  F   UNL     1     -13.658  -4.847  -0.281  0.00  0.00    -0.199 F 
ATOM     38  F   UNL     1     -13.861  -7.554   0.061  0.00  0.00    -0.202 F 
ENDBRANCH  28  30
ENDBRANCH  25  26
ENDBRANCH  23  25
ENDBRANCH  20  21
ENDBRANCH   5  20
TORSDOF 7
