REMARK  Name = ZINC58433566
REMARK  11 active torsions:
REMARK  status: ('A' for Active; 'I' for Inactive)
REMARK    1  A    between atoms: C_1  and  C_2
REMARK    2  A    between atoms: C_3  and  C_11
REMARK    3  A    between atoms: C_4  and  N_8
REMARK    4  A    between atoms: N_5  and  C_7
REMARK    5  A    between atoms: N_8  and  C_9
REMARK    6  A    between atoms: N_8  and  C_10
REMARK    7  A    between atoms: C_11  and  N_12
REMARK    8  A    between atoms: N_12  and  C_13
REMARK    9  A    between atoms: C_13  and  C_14
REMARK   10  A    between atoms: C_14  and  C_16
REMARK   11  A    between atoms: C_14  and  N_21
REMARK                            x       y       z     vdW  Elec       q    Type
REMARK                         _______ _______ _______ _____ _____    ______ ____
ROOT
ATOM      1  N   UNL     1       1.395  -0.077  -2.978  0.00  0.00    -0.313 NA
ATOM      2  H   UNL     1       1.872   0.477  -2.282  0.00  0.00    +0.122 HD
ENDROOT
BRANCH   1   3
ATOM      3  C   UNL     1       0.010  -0.353  -2.573  0.00  0.00    +0.121 C 
BRANCH   3   6
ATOM      4  C   UNL     1       0.102   1.112   0.235  0.00  0.00    +0.065 C 
ATOM      5  C   UNL     1       0.046  -0.378   0.017  0.00  0.00    +0.037 A 
ATOM      6  C   UNL     1       0.006  -1.023  -1.223  0.00  0.00    +0.026 A 
ATOM      7  C   UNL     1      -0.038  -2.364  -0.993  0.00  0.00    +0.121 A 
ATOM      8  N   UNL     1      -0.026  -2.550   0.346  0.00  0.00    -0.276 N 
ATOM      9  N   UNL     1       0.033  -1.290   0.955  0.00  0.00    -0.300 N 
ATOM     10  C   UNL     1      -0.063  -3.840   1.038  0.00  0.00    +0.172 C 
ATOM     11  H   UNL     1       0.057  -1.121   1.910  0.00  0.00    +0.187 HD
BRANCH   7  12
ATOM     12  N   UNL     1      -0.088  -3.363  -1.962  0.00  0.00    -0.321 N 
ATOM     13  C   UNL     1       1.148  -4.006  -2.415  0.00  0.00    +0.130 C 
ATOM     14  C   UNL     1      -1.377  -3.772  -2.527  0.00  0.00    +0.130 C 
ENDBRANCH   7  12
ENDBRANCH   3   6
ENDBRANCH   1   3
BRANCH   1  15
ATOM     15  C   UNL     1       1.439   0.577  -4.292  0.00  0.00    +0.073 C 
BRANCH  15  16
ATOM     16  C   UNL     1       2.894   0.732  -4.737  0.00  0.00    +0.013 C 
BRANCH  16  17
ATOM     17  N   UNL     1       2.942   1.463  -6.010  0.00  0.00    +0.387 N 
ATOM     18  C   UNL     1       4.330   1.524  -6.486  0.00  0.00    -0.078 C 
ATOM     19  C   UNL     1       4.375   2.213  -7.851  0.00  0.00    -0.019 C 
ATOM     20  C   UNL     1       3.816   3.633  -7.719  0.00  0.00    -0.004 C 
ATOM     21  C   UNL     1       2.395   3.561  -7.152  0.00  0.00    -0.019 C 
ATOM     22  C   UNL     1       2.423   2.822  -5.813  0.00  0.00    -0.078 C 
ATOM     23  H   UNL     1       2.376   0.984  -6.694  0.00  0.00    -0.081 HD
ENDBRANCH  16  17
BRANCH  16  24
ATOM     24  C   UNL     1       3.512  -0.631  -4.917  0.00  0.00    +0.093 A 
ATOM     25  C   UNL     1       4.307  -1.257  -4.031  0.00  0.00    +0.043 A 
ATOM     26  C   UNL     1       4.656  -2.502  -4.603  0.00  0.00    +0.041 A 
ATOM     27  C   UNL     1       4.054  -2.562  -5.803  0.00  0.00    +0.195 A 
ATOM     28  O   UNL     1       3.357  -1.429  -5.986  0.00  0.00    -0.469 OA
ENDBRANCH  16  24
ENDBRANCH  15  16
ENDBRANCH   1  15
TORSDOF 7
