REMARK  Name = ZINC06753208
REMARK  10 active torsions:
REMARK  status: ('A' for Active; 'I' for Inactive)
REMARK    1  A    between atoms: C_1  and  C_2
REMARK    2  A    between atoms: C_5  and  O_31
REMARK    3  A    between atoms: C_6  and  C_8
REMARK    4  A    between atoms: N_16  and  C_28
REMARK    5  A    between atoms: C_17  and  C_19
REMARK    6  A    between atoms: C_22  and  C_25
REMARK    7  A    between atoms: C_25  and  C_26
REMARK    8  A    between atoms: C_25  and  C_27
REMARK    9  A    between atoms: C_28  and  C_29
REMARK   10  A    between atoms: C_29  and  O_30
REMARK                            x       y       z     vdW  Elec       q    Type
REMARK                         _______ _______ _______ _____ _____    ______ ____
ROOT
ATOM      1  C   UNL     1      -0.350  -3.010   2.427  0.00  0.00    +0.102 A 
ATOM      2  C   UNL     1       0.022  -4.347   2.602  0.00  0.00    +0.035 A 
ATOM      3  C   UNL     1      -0.295  -4.658   3.910  0.00  0.00    +0.126 A 
ATOM      4  N   UNL     1      -0.831  -3.524   4.451  0.00  0.00    -0.272 N 
ATOM      5  H   UNL     1      -1.149  -3.438   5.363  0.00  0.00    +0.189 HD
ATOM      6  N   UNL     1      -0.846  -2.585   3.573  0.00  0.00    -0.173 NA
ATOM      7  C   UNL     1       0.073  -6.056   4.159  0.00  0.00    +0.266 C 
ATOM      8  O   UNL     1      -0.079  -6.636   5.217  0.00  0.00    -0.268 OA
ATOM      9  N   UNL     1       0.602  -6.606   3.051  0.00  0.00    -0.283 N 
ATOM     10  C   UNL     1       0.614  -5.588   1.993  0.00  0.00    +0.141 C 
ENDROOT
BRANCH   1  16
ATOM     11  C   UNL     1       2.450  -1.427  -1.391  0.00  0.00    +0.044 C 
ATOM     12  C   UNL     1       1.135  -1.450  -0.655  0.00  0.00    -0.050 A 
ATOM     13  C   UNL     1       0.060  -0.725  -1.141  0.00  0.00    +0.007 A 
ATOM     14  C   UNL     1      -1.149  -0.740  -0.472  0.00  0.00    +0.046 A 
ATOM     15  C   UNL     1      -1.291  -1.481   0.690  0.00  0.00    +0.126 A 
ATOM     16  C   UNL     1      -0.207  -2.213   1.183  0.00  0.00    +0.044 A 
ATOM     17  C   UNL     1       1.005  -2.197   0.498  0.00  0.00    +0.017 A 
BRANCH  15  18
ATOM     18  O   UNL     1      -2.479  -1.495   1.349  0.00  0.00    -0.506 OA
ATOM     19  H   UNL     1      -3.108  -2.148   1.011  0.00  0.00    +0.292 HD
ENDBRANCH  15  18
ENDBRANCH   1  16
BRANCH  10  20
ATOM     20  C   UNL     1      -0.224  -6.044   0.826  0.00  0.00    -0.022 A 
ATOM     21  C   UNL     1      -1.564  -6.330   1.008  0.00  0.00    +0.006 A 
ATOM     22  C   UNL     1      -2.333  -6.748  -0.062  0.00  0.00    +0.004 A 
ATOM     23  C   UNL     1      -1.761  -6.880  -1.314  0.00  0.00    -0.045 A 
ATOM     24  C   UNL     1      -0.421  -6.593  -1.496  0.00  0.00    +0.004 A 
ATOM     25  C   UNL     1       0.346  -6.171  -0.427  0.00  0.00    +0.006 A 
BRANCH  23  26
ATOM     26  C   UNL     1      -2.599  -7.336  -2.481  0.00  0.00    +0.013 C 
ATOM     27  C   UNL     1      -2.596  -6.256  -3.565  0.00  0.00    +0.012 C 
ATOM     28  C   UNL     1      -2.018  -8.632  -3.050  0.00  0.00    +0.012 C 
ENDBRANCH  23  26
ENDBRANCH  10  20
BRANCH   9  29
ATOM     29  C   UNL     1       1.084  -7.984   2.923  0.00  0.00    +0.137 C 
BRANCH  29  30
ATOM     30  C   UNL     1      -0.097  -8.912   2.631  0.00  0.00    +0.175 C 
BRANCH  30  31
ATOM     31  O   UNL     1      -0.594  -8.651   1.317  0.00  0.00    -0.393 OA
ATOM     32  H   UNL     1      -1.346  -9.204   1.063  0.00  0.00    +0.209 HD
ENDBRANCH  30  31
ENDBRANCH  29  30
ENDBRANCH   9  29
TORSDOF 7
