REMARK  Name = ZINC03305808
REMARK  8 active torsions:
REMARK  status: ('A' for Active; 'I' for Inactive)
REMARK    1  A    between atoms: C_1  and  C_2
REMARK    2  A    between atoms: C_2  and  C_4
REMARK    3  A    between atoms: C_2  and  O_24
REMARK    4  A    between atoms: N_6  and  C_7
REMARK    5  A    between atoms: C_8  and  C_22
REMARK    6  A    between atoms: C_9  and  C_17
REMARK    7  A    between atoms: C_10  and  C_12
REMARK    8  A    between atoms: O_24  and  C_25
REMARK                            x       y       z     vdW  Elec       q    Type
REMARK                         _______ _______ _______ _____ _____    ______ ____
ROOT
ATOM      1  C   UNL     1       2.607  -1.129   2.594  0.00  0.00    +0.212 A 
ATOM      2  C   UNL     1       3.962  -1.120   2.881  0.00  0.00    +0.124 A 
ATOM      3  C   UNL     1       4.085  -1.703   4.232  0.00  0.00    +0.085 A 
ATOM      4  C   UNL     1       2.791  -2.005   4.624  0.00  0.00    +0.184 A 
ATOM      5  O   UNL     1       1.945  -1.647   3.637  0.00  0.00    -0.436 OA
ENDROOT
BRANCH   4   6
ATOM      6  C   UNL     1       2.405  -2.607   5.904  0.00  0.00    +0.170 A 
ATOM      7  C   UNL     1       1.133  -2.912   6.296  0.00  0.00    +0.053 A 
ATOM      8  C   UNL     1       1.229  -3.468   7.585  0.00  0.00    +0.042 A 
ATOM      9  C   UNL     1       2.536  -3.477   7.917  0.00  0.00    +0.196 A 
ATOM     10  O   UNL     1       3.244  -2.962   6.897  0.00  0.00    -0.460 OA
ENDBRANCH   4   6
BRANCH   3  11
ATOM     11  C   UNL     1       5.323  -1.919   5.000  0.00  0.00    +0.140 A 
ATOM     12  C   UNL     1       6.151  -0.945   5.473  0.00  0.00    +0.050 A 
ATOM     13  C   UNL     1       7.203  -1.598   6.145  0.00  0.00    +0.042 A 
ATOM     14  C   UNL     1       6.970  -2.922   6.051  0.00  0.00    +0.196 A 
ATOM     15  O   UNL     1       5.831  -3.112   5.363  0.00  0.00    -0.463 OA
ENDBRANCH   3  11
BRANCH   1  18
ATOM     16  C   UNL     1       0.693  -0.727   1.265  0.00  0.00    +0.260 C 
ATOM     17  O   UNL     1      -0.004  -1.180   2.148  0.00  0.00    -0.271 OA
ATOM     18  N   UNL     1       2.030  -0.670   1.424  0.00  0.00    -0.252 N 
ATOM     19  H   UNL     1       2.588  -0.308   0.718  0.00  0.00    +0.158 HD
BRANCH  16  21
ATOM     20  C   UNL     1       0.290   1.280  -0.134  0.00  0.00    +0.062 C 
ATOM     21  C   UNL     1       0.064  -0.228  -0.010  0.00  0.00    +0.256 C 
BRANCH  21  22
ATOM     22  O   UNL     1      -1.339  -0.499   0.012  0.00  0.00    -0.480 OA
BRANCH  22  23
ATOM     23  C   UNL     1      -1.965  -0.607  -1.189  0.00  0.00    +0.122 A 
ATOM     24  C   UNL     1      -1.270  -0.349  -2.361  0.00  0.00    +0.045 A 
ATOM     25  C   UNL     1      -1.909  -0.460  -3.581  0.00  0.00    +0.004 A 
ATOM     26  C   UNL     1      -3.241  -0.827  -3.634  0.00  0.00    +0.000 A 
ATOM     27  C   UNL     1      -3.937  -1.084  -2.466  0.00  0.00    +0.004 A 
ATOM     28  C   UNL     1      -3.300  -0.981  -1.245  0.00  0.00    +0.045 A 
ENDBRANCH  22  23
ENDBRANCH  21  22
ENDBRANCH  16  21
ENDBRANCH   1  18
BRANCH   2  29
ATOM     29  C   UNL     1       5.021  -0.646   2.042  0.00  0.00    +0.105 C 
ATOM     30  N   UNL     1       5.862  -0.270   1.377  0.00  0.00    -0.191 NA
ENDBRANCH   2  29
TORSDOF 7
