REMARK  Name = ZINC08378179
REMARK  5 active torsions:
REMARK  status: ('A' for Active; 'I' for Inactive)
REMARK    1  A    between atoms: C_3  and  C_8
REMARK    2  A    between atoms: C_11  and  S_13
REMARK    3  A    between atoms: S_13  and  C_14
REMARK    4  A    between atoms: C_14  and  C_15
REMARK    5  A    between atoms: N_17  and  C_18
REMARK                            x       y       z     vdW  Elec       q    Type
REMARK                         _______ _______ _______ _____ _____    ______ ____
ROOT
ATOM      1  C   UNL     1       8.045   4.315  -0.068  0.00  0.00    +0.175 C 
ENDROOT
BRANCH   1   2
ATOM      2  C   UNL     1       9.550   4.379  -0.076  0.00  0.00    +0.228 C 
ATOM      3  O   UNL     1      10.201   3.355  -0.089  0.00  0.00    -0.275 OA
ATOM      4  N   UNL     1      10.175   5.573  -0.071  0.00  0.00    -0.283 N 
ATOM      5  H   UNL     1       9.656   6.391  -0.128  0.00  0.00    +0.155 HD
BRANCH   4   6
ATOM      6  C   UNL     1      11.567   5.633   0.018  0.00  0.00    +0.062 A 
ATOM      7  C   UNL     1      12.328   4.678  -0.582  0.00  0.00    +0.025 A 
ATOM      8  C   UNL     1      13.720   4.710  -0.512  0.00  0.00    +0.004 A 
ATOM      9  C   UNL     1      14.375   5.690   0.154  0.00  0.00    +0.031 A 
ATOM     10  C   UNL     1      13.647   6.723   0.806  0.00  0.00    +0.102 A 
ATOM     11  C   UNL     1      12.191   6.699   0.731  0.00  0.00    +0.121 A 
ATOM     12  N   UNL     1      11.616   7.717   1.371  0.00  0.00    -0.189 NA
ATOM     13  S   UNL     1      12.826   8.588   1.978  0.00  0.00    +0.117 S 
ATOM     14  N   UNL     1      14.120   7.758   1.501  0.00  0.00    -0.191 NA
ENDBRANCH   4   6
ENDBRANCH   1   2
BRANCH   1  15
ATOM     15  S   UNL     1       7.513   2.581  -0.079  0.00  0.00    -0.056 S 
BRANCH  15  19
ATOM     16  C   UNL     1       3.656   2.161  -0.060  0.00  0.00    +0.249 A 
ATOM     17  N   UNL     1       3.784   3.466  -0.050  0.00  0.00    -0.106 NA
ATOM     18  N   UNL     1       5.034   3.772  -0.055  0.00  0.00    -0.101 NA
ATOM     19  C   UNL     1       5.754   2.674  -0.068  0.00  0.00    +0.278 A 
ATOM     20  O   UNL     1       4.900   1.633  -0.065  0.00  0.00    -0.411 OA
BRANCH  16  23
ATOM     21  C   UNL     1      -0.017   1.378  -0.052  0.00  0.00    +0.002 A 
ATOM     22  C   UNL     1       1.167   2.088  -0.053  0.00  0.00    +0.013 A 
ATOM     23  C   UNL     1       2.385   1.407  -0.059  0.00  0.00    +0.040 A 
ATOM     24  C   UNL     1       2.399   0.011  -0.063  0.00  0.00    +0.033 A 
ATOM     25  C   UNL     1       1.208  -0.687  -0.063  0.00  0.00    +0.042 A 
ATOM     26  C   UNL     1       0.002  -0.005  -0.057  0.00  0.00    +0.020 A 
ATOM     27 CL   UNL     1       1.221  -2.423  -0.069  0.00  0.00    -0.084 Cl
ENDBRANCH  16  23
ENDBRANCH  15  19
ENDBRANCH   1  15
TORSDOF 5
