REMARK  Name = ZINC04834757
REMARK  5 active torsions:
REMARK  status: ('A' for Active; 'I' for Inactive)
REMARK    1  A    between atoms: C_3  and  C_6
REMARK    2  A    between atoms: N_8  and  C_9
REMARK    3  A    between atoms: C_9  and  N_11
REMARK    4  A    between atoms: N_14  and  C_17
REMARK    5  A    between atoms: C_22  and  N_23
REMARK                            x       y       z     vdW  Elec       q    Type
REMARK                         _______ _______ _______ _____ _____    ______ ____
ROOT
ATOM      1  N   UNL     1       6.199  -1.776   0.035  0.00  0.00    -0.309 N 
ATOM      2  C   UNL     1       5.451  -3.041   0.031  0.00  0.00    +0.125 C 
ATOM      3  C   UNL     1       5.995  -3.928  -1.096  0.00  0.00    +0.124 C 
ATOM      4  N   UNL     1       7.460  -3.972  -0.993  0.00  0.00    -0.325 N 
ATOM      5  C   UNL     1       8.208  -2.707  -0.989  0.00  0.00    +0.124 C 
ATOM      6  C   UNL     1       7.665  -1.820   0.132  0.00  0.00    +0.125 C 
ENDROOT
BRANCH   4   7
ATOM      7  C   UNL     1       8.131  -5.195  -0.901  0.00  0.00    +0.060 A 
ATOM      8  C   UNL     1       8.552  -5.846  -2.053  0.00  0.00    +0.027 A 
ATOM      9  C   UNL     1       9.214  -7.054  -1.958  0.00  0.00    +0.022 A 
ATOM     10  C   UNL     1       9.458  -7.616  -0.717  0.00  0.00    +0.043 A 
ATOM     11  C   UNL     1       9.039  -6.970   0.432  0.00  0.00    +0.054 A 
ATOM     12  C   UNL     1       8.382  -5.758   0.344  0.00  0.00    +0.148 A 
ATOM     13 CL   UNL     1      10.290  -9.135  -0.603  0.00  0.00    -0.083 Cl
BRANCH  12  14
ATOM     14  N   UNL     1       7.940  -5.064   1.574  0.00  0.00    +0.058 N 
ATOM     15  O   UNL     1       8.159  -5.555   2.657  0.00  0.00    -0.126 OA
ATOM     16  O   UNL     1       7.360  -4.006   1.496  0.00  0.00    -0.126 OA
ENDBRANCH  12  14
ENDBRANCH   4   7
BRANCH   1  17
ATOM     17  C   UNL     1       5.552  -0.597  -0.054  0.00  0.00    +0.140 C 
ATOM     18  S   UNL     1       6.443   0.859  -0.190  0.00  0.00    -0.018 S 
BRANCH  17  21
ATOM     19  C   UNL     1       3.560   0.619  -0.019  0.00  0.00    +0.285 C 
ATOM     20  O   UNL     1       4.194   1.658  -0.019  0.00  0.00    -0.266 OA
ATOM     21  N   UNL     1       4.205  -0.564  -0.037  0.00  0.00    -0.261 N 
ATOM     22  H   UNL     1       3.700  -1.392  -0.037  0.00  0.00    +0.157 HD
BRANCH  19  25
ATOM     23  C   UNL     1      -0.015   1.349   0.032  0.00  0.00    +0.042 A 
ATOM     24  C   UNL     1       1.320   1.780   0.018  0.00  0.00    +0.054 A 
ATOM     25  C   UNL     1       2.095   0.655  -0.001  0.00  0.00    +0.189 A 
ATOM     26  O   UNL     1       1.276  -0.417   0.001  0.00  0.00    -0.458 OA
ATOM     27  C   UNL     1       0.003  -0.003   0.021  0.00  0.00    +0.196 A 
ENDBRANCH  19  25
ENDBRANCH  17  21
ENDBRANCH   1  17
TORSDOF 5
