REMARK  Name = ZINC12701946
REMARK  12 active torsions:
REMARK  status: ('A' for Active; 'I' for Inactive)
REMARK    1  A    between atoms: C_1  and  C_2
REMARK    2  A    between atoms: C_5  and  C_8
REMARK    3  A    between atoms: C_8  and  C_10
REMARK    4  A    between atoms: C_8  and  N_18
REMARK    5  A    between atoms: N_12  and  C_13
REMARK    6  A    between atoms: N_18  and  C_19
REMARK    7  A    between atoms: C_19  and  C_20
REMARK    8  A    between atoms: C_20  and  C_21
REMARK    9  A    between atoms: C_21  and  N_73
REMARK   10  A    between atoms: C_27  and  C_29
REMARK   11  A    between atoms: C_30  and  N_37
REMARK   12  A    between atoms: C_31  and  C_34
REMARK                            x       y       z     vdW  Elec       q    Type
REMARK                         _______ _______ _______ _____ _____    ______ ____
ROOT
ATOM      1  N   UNL     1       4.686   0.961  -0.144  0.00  0.00    -0.281 N 
ATOM      2  C   UNL     1       3.801  -0.043   0.017  0.00  0.00    +0.257 C 
ATOM      3  O   UNL     1       4.193  -1.193   0.095  0.00  0.00    -0.269 OA
ENDROOT
BRANCH   2   4
ATOM      4  C   UNL     1       2.369   0.249   0.097  0.00  0.00    +0.115 A 
ATOM      5  C   UNL     1       1.286  -0.632   0.118  0.00  0.00    +0.076 A 
ATOM      6  C   UNL     1       0.061   0.029   0.202  0.00  0.00    +0.155 A 
ATOM      7  N   UNL     1       0.041   1.343   0.249  0.00  0.00    -0.203 NA
ATOM      8  S   UNL     1       1.541   1.823   0.192  0.00  0.00    +0.019 S 
BRANCH   6   9
ATOM      9  C   UNL     1      -1.199  -0.737   0.236  0.00  0.00    +0.262 C 
ATOM     10  O   UNL     1      -1.173  -1.952   0.191  0.00  0.00    -0.269 OA
ATOM     11  N   UNL     1      -2.379  -0.090   0.316  0.00  0.00    -0.324 N 
ATOM     12  H   UNL     1      -2.399   0.879   0.352  0.00  0.00    +0.145 HD
ATOM     13  H   UNL     1      -3.207  -0.594   0.339  0.00  0.00    +0.145 HD
ENDBRANCH   6   9
BRANCH   5  14
ATOM     14  N   UNL     1       1.414  -2.014   0.063  0.00  0.00    -0.355 N 
ATOM     15  H   UNL     1       0.624  -2.575   0.082  0.00  0.00    +0.142 HD
ATOM     16  H   UNL     1       2.295  -2.417   0.005  0.00  0.00    +0.142 HD
ENDBRANCH   5  14
ENDBRANCH   2   4
BRANCH   1  17
ATOM     17  C   UNL     1       6.111   0.663  -0.306  0.00  0.00    +0.192 C 
BRANCH  17  22
ATOM     18  C   UNL     1       7.948  -2.456   4.199  0.00  0.00    +0.044 C 
ATOM     19  C   UNL     1       7.470  -1.642   3.024  0.00  0.00    -0.050 A 
ATOM     20  C   UNL     1       7.396  -0.265   3.121  0.00  0.00    +0.004 A 
ATOM     21  C   UNL     1       6.956   0.481   2.043  0.00  0.00    +0.006 A 
ATOM     22  C   UNL     1       6.590  -0.150   0.869  0.00  0.00    -0.018 A 
ATOM     23  C   UNL     1       6.659  -1.528   0.774  0.00  0.00    +0.006 A 
ATOM     24  C   UNL     1       7.104  -2.273   1.850  0.00  0.00    +0.004 A 
ENDBRANCH  17  22
BRANCH  17  25
ATOM     25  C   UNL     1       6.319  -0.119  -1.577  0.00  0.00    +0.238 C 
ATOM     26  O   UNL     1       5.371  -0.400  -2.279  0.00  0.00    -0.273 OA
ATOM     27  N   UNL     1       7.560  -0.506  -1.934  0.00  0.00    -0.311 N 
ATOM     28  H   UNL     1       8.319  -0.282  -1.373  0.00  0.00    +0.149 HD
BRANCH  27  29
ATOM     29  C   UNL     1       7.763  -1.267  -3.170  0.00  0.00    +0.073 C 
ATOM     30  C   UNL     1       7.606  -2.776  -2.893  0.00  0.00    +0.022 C 
ATOM     31  C   UNL     1       8.674  -3.441  -3.797  0.00  0.00    +0.002 C 
ATOM     32  C   UNL     1       9.863  -2.452  -3.705  0.00  0.00    +0.002 C 
ATOM     33  C   UNL     1       9.198  -1.061  -3.686  0.00  0.00    +0.022 C 
ENDBRANCH  27  29
ENDBRANCH  17  25
ENDBRANCH   1  17
BRANCH   1  34
ATOM     34  C   UNL     1       4.222   2.351  -0.157  0.00  0.00    +0.107 C 
BRANCH  34  35
ATOM     35  C   UNL     1       4.076   2.853   1.281  0.00  0.00    +0.000 C 
BRANCH  35  36
ATOM     36  C   UNL     1       3.592   4.304   1.268  0.00  0.00    -0.077 C 
BRANCH  36  42
ATOM     37  C   UNL     1       2.375   4.072   3.349  0.00  0.00    -0.050 C 
ATOM     38  C   UNL     1       2.304   4.562   4.798  0.00  0.00    +0.141 C 
ATOM     39  O   UNL     1       2.109   5.979   4.807  0.00  0.00    -0.383 OA
ATOM     40  C   UNL     1       3.139   6.706   4.133  0.00  0.00    +0.141 C 
ATOM     41  C   UNL     1       3.219   6.238   2.678  0.00  0.00    -0.050 C 
ATOM     42  N   UNL     1       3.475   4.782   2.662  0.00  0.00    +0.383 N 
ATOM     43  H   UNL     1       4.355   4.592   3.155  0.00  0.00    -0.082 HD
ENDBRANCH  36  42
ENDBRANCH  35  36
ENDBRANCH  34  35
ENDBRANCH   1  34
TORSDOF 11
