REMARK  Name = ZINC40391996
REMARK  12 active torsions:
REMARK  status: ('A' for Active; 'I' for Inactive)
REMARK    1  A    between atoms: C_1  and  C_2
REMARK    2  A    between atoms: C_2  and  N_3
REMARK    3  A    between atoms: N_9  and  C_12
REMARK    4  A    between atoms: C_12  and  C_13
REMARK    5  A    between atoms: C_14  and  C_30
REMARK    6  A    between atoms: C_15  and  C_23
REMARK    7  A    between atoms: N_20  and  C_21
REMARK    8  A    between atoms: C_21  and  C_22
REMARK    9  A    between atoms: C_26  and  C_29
REMARK   10  A    between atoms: C_30  and  O_32
REMARK   11  A    between atoms: O_32  and  C_33
REMARK   12  A    between atoms: C_33  and  C_34
REMARK                            x       y       z     vdW  Elec       q    Type
REMARK                         _______ _______ _______ _____ _____    ______ ____
ROOT
ATOM      1  C   UNL     1       1.562  -4.707  -6.994  0.00  0.00    +0.041 C 
ATOM      2  C   UNL     1       0.648  -5.634  -7.351  0.00  0.00    +0.080 C 
ATOM      3  C   UNL     1       1.151  -7.014  -7.721  0.00  0.00    +0.144 C 
ATOM      4  N   UNL     1       2.606  -7.233  -7.661  0.00  0.00    -0.288 N 
ATOM      5  C   UNL     1       3.394  -6.206  -7.284  0.00  0.00    +0.307 C 
ATOM      6  O   UNL     1       4.596  -6.376  -7.231  0.00  0.00    -0.252 OA
ATOM      7  N   UNL     1       2.895  -5.003  -6.973  0.00  0.00    -0.258 N 
ATOM      8  H   UNL     1       2.988  -8.095  -7.886  0.00  0.00    +0.151 HD
ENDROOT
BRANCH   3   9
ATOM      9  C   UNL     1       0.695  -7.313  -9.127  0.00  0.00    -0.022 A 
ATOM     10  C   UNL     1       1.389  -6.794 -10.203  0.00  0.00    +0.006 A 
ATOM     11  C   UNL     1       0.971  -7.068 -11.492  0.00  0.00    +0.004 A 
ATOM     12  C   UNL     1      -0.140  -7.862 -11.704  0.00  0.00    -0.050 A 
ATOM     13  C   UNL     1      -0.834  -8.382 -10.627  0.00  0.00    +0.004 A 
ATOM     14  C   UNL     1      -0.413  -8.111  -9.339  0.00  0.00    +0.006 A 
ATOM     15  C   UNL     1      -0.597  -8.160 -13.109  0.00  0.00    +0.044 C 
ENDBRANCH   3   9
BRANCH   7  16
ATOM     16  C   UNL     1       3.832  -3.947  -6.581  0.00  0.00    +0.111 C 
ATOM     17  C   UNL     1       4.045  -3.990  -5.066  0.00  0.00    +0.025 C 
ENDBRANCH   7  16
BRANCH   2  18
ATOM     18  C   UNL     1      -0.733  -5.327  -7.378  0.00  0.00    +0.339 C 
ATOM     19  O   UNL     1      -1.465  -5.738  -6.498  0.00  0.00    -0.245 OA
BRANCH  18  20
ATOM     20  O   UNL     1      -1.238  -4.578  -8.381  0.00  0.00    -0.462 OA
BRANCH  20  21
ATOM     21  C   UNL     1      -2.640  -4.307  -8.345  0.00  0.00    +0.229 C 
ATOM     22  C   UNL     1      -3.026  -3.452  -9.554  0.00  0.00    +0.048 C 
ENDBRANCH  20  21
ENDBRANCH  18  20
ENDBRANCH   2  18
BRANCH   1  23
ATOM     23  C   UNL     1       1.105  -3.321  -6.618  0.00  0.00    +0.136 C 
BRANCH  23  30
ATOM     24  N   UNL     1       0.049  -0.714  -1.163  0.00  0.00    -0.300 N 
ATOM     25  C   UNL     1       0.173  -2.029  -1.431  0.00  0.00    +0.302 C 
ATOM     26  O   UNL     1      -0.326  -2.851  -0.686  0.00  0.00    -0.253 OA
ATOM     27  N   UNL     1       0.850  -2.434  -2.523  0.00  0.00    -0.283 N 
ATOM     28  C   UNL     1       1.558  -1.465  -3.374  0.00  0.00    +0.124 C 
ATOM     29  C   UNL     1       1.130  -1.690  -4.828  0.00  0.00    +0.104 C 
ATOM     30  N   UNL     1       1.340  -3.099  -5.184  0.00  0.00    -0.294 NA
ATOM     31  C   UNL     1       0.499  -3.986  -4.370  0.00  0.00    +0.104 C 
ATOM     32  C   UNL     1       0.906  -3.856  -2.893  0.00  0.00    +0.124 C 
ATOM     33  H   UNL     1       0.507  -0.061  -1.715  0.00  0.00    +0.150 HD
BRANCH  24  35
ATOM     34  C   UNL     1      -0.750   1.257   0.044  0.00  0.00    +0.024 C 
ATOM     35  C   UNL     1      -0.779  -0.270  -0.039  0.00  0.00    +0.102 C 
ENDBRANCH  24  35
ENDBRANCH  23  30
ENDBRANCH   1  23
TORSDOF 8
