REMARK  Name = ZINC00168401
REMARK  7 active torsions:
REMARK  status: ('A' for Active; 'I' for Inactive)
REMARK    1  A    between atoms: C_1  and  C_2
REMARK    2  A    between atoms: C_4  and  C_22
REMARK    3  A    between atoms: C_5  and  N_9
REMARK    4  A    between atoms: C_6  and  C_8
REMARK    5  A    between atoms: N_9  and  S_10
REMARK    6  A    between atoms: S_10  and  C_13
REMARK    7  A    between atoms: C_18  and  N_19
REMARK                            x       y       z     vdW  Elec       q    Type
REMARK                         _______ _______ _______ _____ _____    ______ ____
ROOT
ATOM      1  S   UNL     1       4.238  -2.127  -1.593  0.00  0.00    +0.075 S 
ATOM      2  O   UNL     1       5.585  -2.561  -1.472  0.00  0.00    -0.150 OA
ATOM      3  O   UNL     1       3.166  -3.029  -1.833  0.00  0.00    -0.150 OA
ENDROOT
BRANCH   1   4
ATOM      4  C   UNL     1       4.204  -0.946  -2.900  0.00  0.00    +0.139 A 
ATOM      5  C   UNL     1       3.282  -1.072  -3.922  0.00  0.00    +0.031 A 
ATOM      6  C   UNL     1       3.253  -0.142  -4.945  0.00  0.00    +0.002 A 
ATOM      7  C   UNL     1       4.153   0.907  -4.951  0.00  0.00    +0.002 A 
ATOM      8  C   UNL     1       5.078   1.030  -3.932  0.00  0.00    +0.035 A 
ATOM      9  C   UNL     1       5.104   0.103  -2.906  0.00  0.00    +0.153 A 
BRANCH   9  10
ATOM     10  N   UNL     1       6.096   0.235  -1.815  0.00  0.00    +0.058 N 
ATOM     11  O   UNL     1       6.968   1.082  -1.883  0.00  0.00    -0.126 OA
ATOM     12  O   UNL     1       6.039  -0.505  -0.849  0.00  0.00    -0.126 OA
ENDBRANCH   9  10
ENDBRANCH   1   4
BRANCH   1  13
ATOM     13  N   UNL     1       3.873  -1.320  -0.194  0.00  0.00    -0.216 N 
ATOM     14  H   UNL     1       4.551  -1.204   0.490  0.00  0.00    +0.174 HD
BRANCH  13  19
ATOM     15  C   UNL     1      -1.340   0.768   0.594  0.00  0.00    +0.044 C 
ATOM     16  C   UNL     1       0.046   0.213   0.389  0.00  0.00    -0.050 A 
ATOM     17  C   UNL     1       1.111   1.073   0.196  0.00  0.00    +0.008 A 
ATOM     18  C   UNL     1       2.382   0.568   0.002  0.00  0.00    -0.028 A 
ATOM     19  C   UNL     1       2.589  -0.806   0.001  0.00  0.00    +0.054 A 
ATOM     20  C   UNL     1       1.517  -1.667   0.196  0.00  0.00    -0.028 A 
ATOM     21  C   UNL     1       0.249  -1.155   0.389  0.00  0.00    +0.008 A 
ATOM     22  C   UNL     1       1.737  -3.158   0.196  0.00  0.00    +0.046 C 
ATOM     23  C   UNL     1       3.543   1.506  -0.208  0.00  0.00    +0.046 C 
ENDBRANCH  13  19
ENDBRANCH   1  13
TORSDOF 4
