REMARK  Name = ZINC01351275
REMARK  11 active torsions:
REMARK  status: ('A' for Active; 'I' for Inactive)
REMARK    1  A    between atoms: C_1  and  C_2
REMARK    2  A    between atoms: C_2  and  C_3
REMARK    3  A    between atoms: C_3  and  C_5
REMARK    4  A    between atoms: C_3  and  N_6
REMARK    5  A    between atoms: N_6  and  S_7
REMARK    6  A    between atoms: S_7  and  C_10
REMARK    7  A    between atoms: C_13  and  S_16
REMARK    8  A    between atoms: S_16  and  N_19
REMARK    9  A    between atoms: N_19  and  C_20
REMARK   10  A    between atoms: C_25  and  C_26
REMARK   11  A    between atoms: C_26  and  C_28
REMARK                            x       y       z     vdW  Elec       q    Type
REMARK                         _______ _______ _______ _____ _____    ______ ____
ROOT
ATOM      1  S   UNL     1       3.322  -4.904   6.073  0.00  0.00    +0.092 S 
ATOM      2  O   UNL     1       4.698  -5.254   6.142  0.00  0.00    -0.148 OA
ATOM      3  O   UNL     1       2.538  -4.665   7.234  0.00  0.00    -0.148 OA
ENDROOT
BRANCH   1   7
ATOM      4  C   UNL     1       3.064  -1.161   3.541  0.00  0.00    +0.105 A 
ATOM      5  C   UNL     1       2.065  -1.450   4.452  0.00  0.00    +0.030 A 
ATOM      6  C   UNL     1       2.144  -2.593   5.225  0.00  0.00    +0.031 A 
ATOM      7  C   UNL     1       3.221  -3.448   5.087  0.00  0.00    +0.110 A 
ATOM      8  C   UNL     1       4.220  -3.159   4.176  0.00  0.00    +0.031 A 
ATOM      9  C   UNL     1       4.139  -2.018   3.400  0.00  0.00    +0.030 A 
BRANCH   4  10
ATOM     10  S   UNL     1       2.964   0.296   2.556  0.00  0.00    +0.059 S 
ATOM     11  O   UNL     1       4.292   0.616   2.166  0.00  0.00    -0.153 OA
ATOM     12  O   UNL     1       2.137   1.210   3.265  0.00  0.00    -0.153 OA
BRANCH  10  13
ATOM     13  N   UNL     1       2.148  -0.104   1.172  0.00  0.00    -0.187 NA
ATOM     14  H   UNL     1       2.600  -0.069   0.315  0.00  0.00    +0.148 HD
BRANCH  13  15
ATOM     15  C   UNL     1       0.742  -0.511   1.242  0.00  0.00    +0.073 C 
ATOM     16  C   UNL     1       0.655  -2.037   1.299  0.00  0.00    +0.025 C 
BRANCH  15  18
ATOM     17  C   UNL     1      -0.019   1.526   0.010  0.00  0.00    +0.005 C 
ATOM     18  C   UNL     1       0.002  -0.004   0.002  0.00  0.00    +0.017 C 
ENDBRANCH  15  18
ENDBRANCH  13  15
ENDBRANCH  10  13
ENDBRANCH   4  10
ENDBRANCH   1   7
BRANCH   1  19
ATOM     19  N   UNL     1       2.568  -6.117   5.234  0.00  0.00    -0.097 NA
BRANCH  19  20
ATOM     20  C   UNL     1       2.493  -7.394   5.776  0.00  0.00    +0.088 A 
ATOM     21  C   UNL     1       3.045  -7.655   7.021  0.00  0.00    +0.077 A 
ATOM     22  C   UNL     1       2.971  -8.928   7.563  0.00  0.00    +0.168 A 
ATOM     23  C   UNL     1       2.341  -9.959   6.857  0.00  0.00    +0.167 A 
ATOM     24  C   UNL     1       1.789  -9.714   5.619  0.00  0.00    +0.063 A 
ATOM     25  C   UNL     1       1.853  -8.426   5.065  0.00  0.00    +0.045 A 
ATOM     26  O   UNL     1       2.407 -11.100   7.605  0.00  0.00    -0.453 OA
ATOM     27  C   UNL     1       3.436 -10.859   8.582  0.00  0.00    +0.466 C 
ATOM     28  O   UNL     1       3.427  -9.429   8.746  0.00  0.00    -0.453 OA
BRANCH  25  29
ATOM     29  C   UNL     1       1.262  -8.159   3.753  0.00  0.00    +0.162 C 
ATOM     30  O   UNL     1       1.324  -7.046   3.275  0.00  0.00    -0.292 OA
ATOM     31  C   UNL     1       0.577  -9.268   2.996  0.00  0.00    +0.091 C 
ENDBRANCH  25  29
ENDBRANCH  19  20
ENDBRANCH   1  19
TORSDOF 8
