REMARK  Name = ZINC38628807
REMARK  5 active torsions:
REMARK  status: ('A' for Active; 'I' for Inactive)
REMARK    1  A    between atoms: C_7  and  C_10
REMARK    2  A    between atoms: C_13  and  S_16
REMARK    3  A    between atoms: S_16  and  C_17
REMARK    4  A    between atoms: C_17  and  C_18
REMARK    5  A    between atoms: N_20  and  C_21
REMARK                            x       y       z     vdW  Elec       q    Type
REMARK                         _______ _______ _______ _____ _____    ______ ____
ROOT
ATOM      1  C   UNL     1       0.704  -3.136  -0.020  0.00  0.00    +0.238 C 
ATOM      2  N   UNL     1      -0.596  -3.006  -0.016  0.00  0.00    -0.145 NA
ATOM      3  N   UNL     1      -1.207  -4.268  -0.017  0.00  0.00    -0.219 N 
ATOM      4  C   UNL     1      -0.102  -5.242  -0.022  0.00  0.00    +0.339 C 
ATOM      5  O   UNL     1       1.085  -4.436  -0.029  0.00  0.00    -0.443 OA
ATOM      6  H   UNL     1      -2.158  -4.460  -0.014  0.00  0.00    +0.173 HD
ENDROOT
BRANCH   1  13
ATOM      7  C   UNL     1       0.044   1.352   0.007  0.00  0.00    +0.001 A 
ATOM      8  C   UNL     1       1.228   2.091   0.003  0.00  0.00    +0.002 A 
ATOM      9  C   UNL     1       2.445   1.492  -0.009  0.00  0.00    +0.026 A 
ATOM     10  C   UNL     1       2.534   0.076  -0.017  0.00  0.00    +0.043 A 
ATOM     11  N   UNL     1       3.576  -0.732  -0.029  0.00  0.00    -0.380 N 
ATOM     12  C   UNL     1       3.110  -2.122  -0.032  0.00  0.00    +0.154 C 
ATOM     13  C   UNL     1       1.599  -2.057  -0.021  0.00  0.00    +0.043 C 
ATOM     14  C   UNL     1       1.282  -0.698  -0.012  0.00  0.00    +0.008 A 
ATOM     15  C   UNL     1       0.052  -0.006   0.000  0.00  0.00    +0.010 A 
ATOM     16  H   UNL     1       4.504  -0.451  -0.034  0.00  0.00    +0.160 HD
ENDBRANCH   1  13
BRANCH   4  17
ATOM     17  S   UNL     1      -0.165  -6.279   1.465  0.00  0.00    -0.087 S 
BRANCH  17  18
ATOM     18  C   UNL     1      -0.012  -5.097   2.832  0.00  0.00    +0.170 C 
BRANCH  18  19
ATOM     19  C   UNL     1      -0.050  -5.838   4.144  0.00  0.00    +0.227 C 
ATOM     20  O   UNL     1      -0.169  -7.045   4.155  0.00  0.00    -0.275 OA
ATOM     21  N   UNL     1       0.048  -5.160   5.304  0.00  0.00    -0.285 N 
ATOM     22  H   UNL     1       0.209  -4.203   5.295  0.00  0.00    +0.155 HD
BRANCH  21  23
ATOM     23  C   UNL     1      -0.085  -5.836   6.524  0.00  0.00    +0.037 A 
ATOM     24  C   UNL     1      -0.701  -5.212   7.600  0.00  0.00    +0.027 A 
ATOM     25  C   UNL     1      -0.833  -5.877   8.804  0.00  0.00    +0.051 A 
ATOM     26  C   UNL     1      -0.351  -7.169   8.941  0.00  0.00    +0.166 A 
ATOM     27  C   UNL     1       0.268  -7.798   7.863  0.00  0.00    +0.168 A 
ATOM     28  C   UNL     1       0.395  -7.132   6.655  0.00  0.00    +0.072 A 
ATOM     29  O   UNL     1       0.651  -9.050   8.249  0.00  0.00    -0.453 OA
ATOM     30  C   UNL     1       0.628  -9.032   9.689  0.00  0.00    +0.466 C 
ATOM     31  O   UNL     1      -0.355  -8.028  10.003  0.00  0.00    -0.453 OA
ENDBRANCH  21  23
ENDBRANCH  18  19
ENDBRANCH  17  18
ENDBRANCH   4  17
TORSDOF 5
