REMARK  Name = ZINC60341702
REMARK  8 active torsions:
REMARK  status: ('A' for Active; 'I' for Inactive)
REMARK    1  A    between atoms: C_1  and  N_2
REMARK    2  A    between atoms: N_2  and  C_3
REMARK    3  A    between atoms: C_6  and  S_23
REMARK    4  A    between atoms: C_8  and  N_9
REMARK    5  A    between atoms: N_9  and  S_10
REMARK    6  A    between atoms: S_10  and  C_13
REMARK    7  A    between atoms: S_23  and  N_26
REMARK    8  A    between atoms: N_26  and  C_27
REMARK                            x       y       z     vdW  Elec       q    Type
REMARK                         _______ _______ _______ _____ _____    ______ ____
ROOT
ATOM      1  C   UNL     1       0.620  -0.907   0.979  0.00  0.00    +0.050 A 
ATOM      2  C   UNL     1       0.910   0.075   1.913  0.00  0.00    +0.027 A 
ATOM      3  C   UNL     1       1.187  -0.275   3.221  0.00  0.00    +0.030 A 
ATOM      4  C   UNL     1       1.175  -1.603   3.603  0.00  0.00    +0.107 A 
ATOM      5  C   UNL     1       0.886  -2.590   2.679  0.00  0.00    +0.054 A 
ATOM      6  C   UNL     1       0.603  -2.248   1.365  0.00  0.00    +0.071 A 
ENDROOT
BRANCH   1   8
ATOM      7  C   UNL     1       0.358   0.853  -0.750  0.00  0.00    +0.125 C 
ATOM      8  N   UNL     1       0.339  -0.555  -0.347  0.00  0.00    -0.345 N 
ATOM      9  H   UNL     1       0.132  -1.244  -0.998  0.00  0.00    +0.146 HD
ENDBRANCH   1   8
BRANCH   4  10
ATOM     10  S   UNL     1       1.529  -2.041   5.273  0.00  0.00    +0.058 S 
ATOM     11  O   UNL     1       1.839  -3.427   5.273  0.00  0.00    -0.153 OA
ATOM     12  O   UNL     1       2.430  -1.059   5.768  0.00  0.00    -0.153 OA
BRANCH  10  13
ATOM     13  N   UNL     1       0.124  -1.870   6.133  0.00  0.00    -0.193 NA
ATOM     14  C   UNL     1      -1.034  -2.710   5.817  0.00  0.00    +0.127 C 
ATOM     15  H   UNL     1       0.068  -1.214   6.845  0.00  0.00    +0.148 HD
ENDBRANCH  10  13
ENDBRANCH   4  10
BRANCH   6  16
ATOM     16  N   UNL     1       0.305  -3.245   0.429  0.00  0.00    -0.214 N 
ATOM     17  H   UNL     1       0.599  -3.150  -0.491  0.00  0.00    +0.174 HD
BRANCH  16  18
ATOM     18  S   UNL     1      -0.550  -4.586   0.890  0.00  0.00    +0.072 S 
ATOM     19  O   UNL     1      -0.787  -5.342  -0.289  0.00  0.00    -0.150 OA
ATOM     20  O   UNL     1       0.121  -5.126   2.020  0.00  0.00    -0.150 OA
BRANCH  18  21
ATOM     21  C   UNL     1      -2.124  -4.031   1.457  0.00  0.00    +0.109 A 
ATOM     22  C   UNL     1      -2.329  -3.826   2.820  0.00  0.00    +0.029 A 
ATOM     23  C   UNL     1      -3.533  -3.398   3.291  0.00  0.00    +0.010 A 
ATOM     24  C   UNL     1      -4.585  -3.158   2.392  0.00  0.00    -0.018 A 
ATOM     25  C   UNL     1      -5.842  -2.715   2.840  0.00  0.00    +0.008 A 
ATOM     26  C   UNL     1      -6.838  -2.493   1.940  0.00  0.00    +0.001 A 
ATOM     27  C   UNL     1      -6.632  -2.697   0.577  0.00  0.00    +0.001 A 
ATOM     28  C   UNL     1      -5.429  -3.126   0.106  0.00  0.00    +0.008 A 
ATOM     29  C   UNL     1      -4.376  -3.366   1.005  0.00  0.00    -0.016 A 
ATOM     30  C   UNL     1      -3.119  -3.803   0.556  0.00  0.00    +0.037 A 
ENDBRANCH  18  21
ENDBRANCH  16  18
ENDBRANCH   6  16
TORSDOF 6
