REMARK  Name = ZINC40071312
REMARK  6 active torsions:
REMARK  status: ('A' for Active; 'I' for Inactive)
REMARK    1  A    between atoms: C_1  and  C_2
REMARK    2  A    between atoms: C_2  and  C_4
REMARK    3  A    between atoms: C_2  and  N_14
REMARK    4  A    between atoms: N_17  and  N_18
REMARK    5  A    between atoms: C_19  and  C_21
REMARK    6  A    between atoms: C_21  and  N_22
REMARK                            x       y       z     vdW  Elec       q    Type
REMARK                         _______ _______ _______ _____ _____    ______ ____
ROOT
ATOM      1  N   UNL     1      -1.372  -0.511   0.012  0.00  0.00    -0.295 N 
ATOM      2  C   UNL     1      -2.051  -0.643  -1.145  0.00  0.00    +0.316 C 
ATOM      3  O   UNL     1      -1.522  -0.341  -2.197  0.00  0.00    -0.251 OA
ATOM      4  N   UNL     1      -3.315  -1.109  -1.135  0.00  0.00    -0.218 N 
ATOM      5  H   UNL     1      -1.794  -0.752   0.852  0.00  0.00    +0.151 HD
ATOM      6  H   UNL     1      -3.804  -1.204  -1.968  0.00  0.00    +0.174 HD
ENDROOT
BRANCH   4   7
ATOM      7  N   UNL     1      -3.924  -1.457   0.078  0.00  0.00    -0.232 N 
ATOM      8  C   UNL     1      -5.189  -1.924   0.087  0.00  0.00    +0.246 C 
ATOM      9  O   UNL     1      -5.799  -2.042  -0.954  0.00  0.00    -0.273 OA
ATOM     10  H   UNL     1      -3.436  -1.363   0.910  0.00  0.00    +0.173 HD
BRANCH   8  11
ATOM     11  C   UNL     1      -5.844  -2.298   1.392  0.00  0.00    +0.204 C 
BRANCH  11  12
ATOM     12  N   UNL     1      -7.206  -2.774   1.135  0.00  0.00    -0.293 N 
ATOM     13  C   UNL     1      -8.324  -1.817   1.123  0.00  0.00    +0.108 C 
ATOM     14  C   UNL     1      -8.797  -1.634  -0.320  0.00  0.00    +0.019 C 
ATOM     15  C   UNL     1      -9.818  -2.693  -0.693  0.00  0.00    +0.002 C 
ATOM     16  C   UNL     1      -9.249  -4.099  -0.751  0.00  0.00    +0.009 C 
ATOM     17  C   UNL     1      -8.827  -4.571   0.642  0.00  0.00    +0.096 C 
ATOM     18  C   UNL     1      -7.423  -4.070   0.909  0.00  0.00    +0.216 C 
ATOM     19  O   UNL     1      -6.495  -4.850   0.922  0.00  0.00    -0.276 OA
ENDBRANCH  11  12
ENDBRANCH   8  11
ENDBRANCH   4   7
BRANCH   1  21
ATOM     20  C   UNL     1      -0.019   1.526   0.010  0.00  0.00    +0.028 C 
ATOM     21  C   UNL     1       0.002  -0.004   0.002  0.00  0.00    +0.078 C 
BRANCH  21  22
ATOM     22  C   UNL     1       0.742  -0.511   1.242  0.00  0.00    -0.010 C 
ATOM     23  C   UNL     1       0.026  -0.018   2.500  0.00  0.00    +0.012 C 
ATOM     24  C   UNL     1       0.766  -0.524   3.740  0.00  0.00    -0.010 C 
ATOM     25  C   UNL     1       2.201   0.005   3.729  0.00  0.00    +0.007 C 
ATOM     26  C   UNL     1       2.917  -0.488   2.470  0.00  0.00    -0.010 C 
ATOM     27  C   UNL     1       2.178   0.019   1.231  0.00  0.00    +0.012 C 
ATOM     28  C   UNL     1       2.938  -2.018   2.462  0.00  0.00    +0.007 C 
ATOM     29  C   UNL     1       1.503  -2.548   2.473  0.00  0.00    -0.010 C 
ATOM     30  C   UNL     1       0.787  -2.054   3.732  0.00  0.00    +0.007 C 
ATOM     31  C   UNL     1       0.763  -2.041   1.233  0.00  0.00    +0.012 C 
ENDBRANCH  21  22
ENDBRANCH   1  21
TORSDOF 5
