REMARK  Name = ZINC21626746
REMARK  9 active torsions:
REMARK  status: ('A' for Active; 'I' for Inactive)
REMARK    1  A    between atoms: C_1  and  C_2
REMARK    2  A    between atoms: C_5  and  C_8
REMARK    3  A    between atoms: C_8  and  C_10
REMARK    4  A    between atoms: C_8  and  N_13
REMARK    5  A    between atoms: C_14  and  C_16
REMARK    6  A    between atoms: C_16  and  N_17
REMARK    7  A    between atoms: C_20  and  C_24
REMARK    8  A    between atoms: C_20  and  C_25
REMARK    9  A    between atoms: C_28  and  N_31
REMARK                            x       y       z     vdW  Elec       q    Type
REMARK                         _______ _______ _______ _____ _____    ______ ____
ROOT
ATOM      1  N   UNL     1       1.110   4.250   4.278  0.00  0.00    -0.215 N 
ATOM      2  C   UNL     1       0.560   5.438   4.597  0.00  0.00    +0.251 C 
ATOM      3  O   UNL     1      -0.616   5.679   4.765  0.00  0.00    -0.272 OA
ATOM      4  C   UNL     1       1.718   6.411   4.701  0.00  0.00    +0.135 C 
ATOM      5  N   UNL     1       2.897   5.579   4.400  0.00  0.00    -0.281 N 
ATOM      6  C   UNL     1       2.441   4.334   4.172  0.00  0.00    +0.310 C 
ATOM      7  O   UNL     1       3.159   3.392   3.897  0.00  0.00    -0.252 OA
ATOM      8  C   UNL     1       1.571   7.534   3.673  0.00  0.00    +0.047 C 
ATOM      9  H   UNL     1       3.901   6.029   4.399  0.00  0.00    +0.152 HD
ENDROOT
BRANCH   4  10
ATOM     10  C   UNL     1       1.811   6.978   6.094  0.00  0.00    -0.015 A 
ATOM     11  C   UNL     1       0.668   7.128   6.856  0.00  0.00    +0.008 A 
ATOM     12  C   UNL     1       0.753   7.644   8.136  0.00  0.00    +0.033 A 
ATOM     13  C   UNL     1       1.981   8.019   8.649  0.00  0.00    +0.126 A 
ATOM     14  C   UNL     1       3.123   7.873   7.885  0.00  0.00    +0.033 A 
ATOM     15  C   UNL     1       3.038   7.353   6.607  0.00  0.00    +0.008 A 
BRANCH  13  16
ATOM     16  N   UNL     1       2.072   8.576  10.018  0.00  0.00    +0.056 N 
ATOM     17  O   UNL     1       3.153   8.906  10.470  0.00  0.00    -0.126 OA
ATOM     18  O   UNL     1       1.065   8.704  10.691  0.00  0.00    -0.126 OA
ENDBRANCH  13  16
ENDBRANCH   4  10
BRANCH   1  19
ATOM     19  C   UNL     1       0.346   3.016   4.078  0.00  0.00    +0.213 C 
BRANCH  19  21
ATOM     20  N   UNL     1      -0.767   1.838   2.209  0.00  0.00    -0.307 N 
ATOM     21  C   UNL     1      -0.052   2.901   2.629  0.00  0.00    +0.231 C 
ATOM     22  O   UNL     1       0.271   3.764   1.841  0.00  0.00    -0.274 OA
ATOM     23  H   UNL     1      -1.060   1.055   2.924  0.00  0.00    +0.149 HD
BRANCH  20  24
ATOM     24  C   UNL     1      -1.154   1.726   0.801  0.00  0.00    +0.106 C 
BRANCH  24  29
ATOM     25  C   UNL     1      -5.886  -1.561   0.358  0.00  0.00    +0.044 C 
ATOM     26  C   UNL     1      -4.652  -0.704   0.473  0.00  0.00    -0.050 A 
ATOM     27  C   UNL     1      -4.519   0.426  -0.312  0.00  0.00    +0.004 A 
ATOM     28  C   UNL     1      -3.387   1.212  -0.206  0.00  0.00    +0.006 A 
ATOM     29  C   UNL     1      -2.388   0.869   0.686  0.00  0.00    -0.027 A 
ATOM     30  C   UNL     1      -2.519  -0.263   1.468  0.00  0.00    +0.006 A 
ATOM     31  C   UNL     1      -3.653  -1.047   1.365  0.00  0.00    +0.004 A 
ENDBRANCH  24  29
BRANCH  24  32
ATOM     32  C   UNL     1      -0.013   1.086   0.008  0.00  0.00    +0.014 C 
ATOM     33  C   UNL     1       0.460   1.806  -1.256  0.00  0.00    +0.006 C 
ATOM     34  C   UNL     1       1.335   1.811  -0.001  0.00  0.00    +0.006 C 
ENDBRANCH  24  32
ENDBRANCH  20  24
ENDBRANCH  19  21
ENDBRANCH   1  19
TORSDOF 7
