REMARK  Name = ZINC47128337
REMARK  9 active torsions:
REMARK  status: ('A' for Active; 'I' for Inactive)
REMARK    1  A    between atoms: C_1  and  C_2
REMARK    2  A    between atoms: C_2  and  N_3
REMARK    3  A    between atoms: N_3  and  C_4
REMARK    4  A    between atoms: C_4  and  C_5
REMARK    5  A    between atoms: N_8  and  C_9
REMARK    6  A    between atoms: C_12  and  C_15
REMARK    7  A    between atoms: C_15  and  C_17
REMARK    8  A    between atoms: C_15  and  N_18
REMARK    9  A    between atoms: C_25  and  O_28
REMARK                            x       y       z     vdW  Elec       q    Type
REMARK                         _______ _______ _______ _____ _____    ______ ____
ROOT
ATOM      1  C   UNL     1       4.083  -1.264   2.139  0.00  0.00    +0.035 A 
ATOM      2  C   UNL     1       4.753  -0.903   0.977  0.00  0.00    +0.023 A 
ATOM      3  C   UNL     1       6.128  -1.012   0.912  0.00  0.00    +0.007 A 
ATOM      4  C   UNL     1       6.838  -1.480   2.002  0.00  0.00    -0.027 A 
ATOM      5  C   UNL     1       6.175  -1.841   3.160  0.00  0.00    +0.007 A 
ATOM      6  C   UNL     1       4.800  -1.728   3.234  0.00  0.00    +0.023 A 
ENDROOT
BRANCH   1  10
ATOM      7  N   UNL     1       0.766  -0.602   3.410  0.00  0.00    -0.286 N 
ATOM      8  C   UNL     1       2.099  -0.798   3.366  0.00  0.00    +0.306 C 
ATOM      9  O   UNL     1       2.768  -0.655   4.371  0.00  0.00    -0.252 OA
ATOM     10  N   UNL     1       2.690  -1.154   2.208  0.00  0.00    -0.269 N 
ATOM     11  H   UNL     1       2.150  -1.333   1.423  0.00  0.00    +0.156 HD
BRANCH   7  13
ATOM     12  C   UNL     1      -0.294  -1.472   5.435  0.00  0.00    +0.024 C 
ATOM     13  C   UNL     1       0.124  -0.215   4.669  0.00  0.00    +0.106 C 
ENDBRANCH   7  13
BRANCH   7  14
ATOM     14  C   UNL     1      -0.040  -0.775   2.199  0.00  0.00    +0.106 C 
ATOM     15  C   UNL     1      -0.126   0.556   1.450  0.00  0.00    +0.024 C 
ENDBRANCH   7  14
ENDBRANCH   1  10
BRANCH   4  16
ATOM     16  C   UNL     1       8.339  -1.598   1.927  0.00  0.00    +0.102 C 
ATOM     17  C   UNL     1       8.980  -0.396   2.623  0.00  0.00    +0.033 C 
BRANCH  16  18
ATOM     18  N   UNL     1       8.765  -2.832   2.591  0.00  0.00    -0.293 N 
ATOM     19  C   UNL     1       9.930  -3.416   2.245  0.00  0.00    +0.303 C 
ATOM     20  O   UNL     1      10.669  -2.873   1.447  0.00  0.00    -0.253 OA
ATOM     21  N   UNL     1      10.274  -4.603   2.783  0.00  0.00    -0.283 N 
ATOM     22  C   UNL     1       9.446  -5.220   3.828  0.00  0.00    +0.109 C 
ATOM     23  C   UNL     1      10.334  -5.542   5.034  0.00  0.00    +0.022 C 
ATOM     24  C   UNL     1      11.515  -6.402   4.579  0.00  0.00    +0.034 C 
ATOM     25  C   UNL     1      12.350  -5.625   3.558  0.00  0.00    +0.132 C 
ATOM     26  C   UNL     1      11.482  -5.307   2.331  0.00  0.00    +0.140 C 
ATOM     27  H   UNL     1       8.210  -3.229   3.281  0.00  0.00    +0.151 HD
BRANCH  25  28
ATOM     28  O   UNL     1      13.470  -6.417   3.157  0.00  0.00    -0.390 OA
ATOM     29  H   UNL     1      14.044  -5.986   2.509  0.00  0.00    +0.210 HD
ENDBRANCH  25  28
ENDBRANCH  16  18
ENDBRANCH   4  16
TORSDOF 6
