REMARK  Name = ZINC59346367
REMARK  6 active torsions:
REMARK  status: ('A' for Active; 'I' for Inactive)
REMARK    1  A    between atoms: C_1  and  O_2
REMARK    2  A    between atoms: O_2  and  C_3
REMARK    3  A    between atoms: C_6  and  N_9
REMARK    4  A    between atoms: C_11  and  C_16
REMARK    5  A    between atoms: N_18  and  C_19
REMARK    6  A    between atoms: C_24  and  N_25
REMARK                            x       y       z     vdW  Elec       q    Type
REMARK                         _______ _______ _______ _____ _____    ______ ____
ROOT
ATOM      1  N   UNL     1      -4.893  -2.568   0.045  0.00  0.00    -0.271 N 
ATOM      2  C   UNL     1      -5.066  -4.021  -0.064  0.00  0.00    +0.127 C 
ATOM      3  C   UNL     1      -6.506  -4.302   0.420  0.00  0.00    +0.102 C 
ATOM      4  C   UNL     1      -7.204  -2.952   0.135  0.00  0.00    +0.110 C 
ATOM      5  C   UNL     1      -6.078  -1.942   0.158  0.00  0.00    +0.221 C 
ATOM      6  O   UNL     1      -6.223  -0.742   0.262  0.00  0.00    -0.275 OA
ENDROOT
BRANCH   1  10
ATOM      7  C   UNL     1      -1.201  -0.629   0.025  0.00  0.00    +0.120 A 
ATOM      8  C   UNL     1      -2.374   0.112   0.036  0.00  0.00    +0.047 A 
ATOM      9  C   UNL     1      -3.596  -0.529   0.042  0.00  0.00    +0.027 A 
ATOM     10  C   UNL     1      -3.653  -1.916   0.038  0.00  0.00    +0.036 A 
ATOM     11  C   UNL     1      -2.479  -2.658   0.028  0.00  0.00    +0.027 A 
ATOM     12  C   UNL     1      -1.257  -2.015   0.016  0.00  0.00    +0.047 A 
BRANCH   7  14
ATOM     13  C   UNL     1      -0.015   1.432   0.030  0.00  0.00    +0.277 C 
ATOM     14  O   UNL     1       0.003   0.003   0.019  0.00  0.00    -0.495 OA
ENDBRANCH   7  14
ENDBRANCH   1  10
BRANCH   3  15
ATOM     15  C   UNL     1      -6.527  -4.621   1.893  0.00  0.00    +0.222 C 
ATOM     16  O   UNL     1      -5.493  -4.630   2.526  0.00  0.00    -0.275 OA
ATOM     17  N   UNL     1      -7.695  -4.896   2.506  0.00  0.00    -0.283 N 
ATOM     18  H   UNL     1      -8.511  -4.966   1.986  0.00  0.00    +0.155 HD
BRANCH  17  19
ATOM     19  C   UNL     1      -7.731  -5.082   3.893  0.00  0.00    +0.064 A 
ATOM     20  C   UNL     1      -6.891  -4.343   4.715  0.00  0.00    +0.027 A 
ATOM     21  C   UNL     1      -6.929  -4.527   6.083  0.00  0.00    +0.022 A 
ATOM     22  C   UNL     1      -7.803  -5.448   6.635  0.00  0.00    +0.043 A 
ATOM     23  C   UNL     1      -8.641  -6.185   5.818  0.00  0.00    +0.054 A 
ATOM     24  C   UNL     1      -8.611  -6.000   4.449  0.00  0.00    +0.149 A 
ATOM     25 CL   UNL     1      -7.847  -5.678   8.355  0.00  0.00    -0.083 Cl
BRANCH  24  26
ATOM     26  N   UNL     1      -9.513  -6.785   3.576  0.00  0.00    +0.058 N 
ATOM     27  O   UNL     1     -10.215  -7.647   4.051  0.00  0.00    -0.126 OA
ATOM     28  O   UNL     1      -9.547  -6.564   2.388  0.00  0.00    -0.126 OA
ENDBRANCH  24  26
ENDBRANCH  17  19
ENDBRANCH   3  15
TORSDOF 5
