REMARK  Name = ZINC38575189
REMARK  9 active torsions:
REMARK  status: ('A' for Active; 'I' for Inactive)
REMARK    1  A    between atoms: C_1  and  O_2
REMARK    2  A    between atoms: O_2  and  C_3
REMARK    3  A    between atoms: C_6  and  C_9
REMARK    4  A    between atoms: C_11  and  C_14
REMARK    5  A    between atoms: C_14  and  C_15
REMARK    6  A    between atoms: C_15  and  N_16
REMARK    7  A    between atoms: N_16  and  S_17
REMARK    8  A    between atoms: S_17  and  C_20
REMARK    9  A    between atoms: C_23  and  N_26
REMARK                            x       y       z     vdW  Elec       q    Type
REMARK                         _______ _______ _______ _____ _____    ______ ____
ROOT
ATOM      1  C   UNL     1       4.090  -6.337  -4.777  0.00  0.00    +0.112 C 
ENDROOT
BRANCH   1   2
ATOM      2  N   UNL     1       4.239  -7.771  -5.038  0.00  0.00    -0.190 NA
ATOM      3  H   UNL     1       3.742  -8.187  -5.760  0.00  0.00    +0.148 HD
BRANCH   2   4
ATOM      4  S   UNL     1       5.257  -8.681  -4.101  0.00  0.00    +0.058 S 
ATOM      5  O   UNL     1       5.164 -10.016  -4.579  0.00  0.00    -0.153 OA
ATOM      6  O   UNL     1       6.491  -7.979  -4.040  0.00  0.00    -0.153 OA
BRANCH   4   7
ATOM      7  C   UNL     1       4.598  -8.684  -2.467  0.00  0.00    +0.105 A 
ATOM      8  C   UNL     1       4.973  -7.703  -1.569  0.00  0.00    +0.031 A 
ATOM      9  C   UNL     1       4.456  -7.705  -0.287  0.00  0.00    +0.034 A 
ATOM     10  C   UNL     1       3.564  -8.688   0.097  0.00  0.00    +0.126 A 
ATOM     11  C   UNL     1       3.188  -9.670  -0.802  0.00  0.00    +0.034 A 
ATOM     12  C   UNL     1       3.702  -9.665  -2.085  0.00  0.00    +0.031 A 
BRANCH  10  13
ATOM     13  N   UNL     1       3.011  -8.691   1.470  0.00  0.00    +0.056 N 
ATOM     14  O   UNL     1       3.340  -7.834   2.256  0.00  0.00    -0.126 OA
ATOM     15  O   UNL     1       2.231  -9.552   1.806  0.00  0.00    -0.126 OA
ENDBRANCH  10  13
ENDBRANCH   4   7
ENDBRANCH   2   4
ENDBRANCH   1   2
BRANCH   1  16
ATOM     16  C   UNL     1       3.412  -5.669  -5.975  0.00  0.00    +0.073 C 
BRANCH  16  19
ATOM     17  C   UNL     1       2.493  -2.492  -4.362  0.00  0.00    +0.109 A 
ATOM     18  N   UNL     1       2.641  -3.784  -4.623  0.00  0.00    -0.244 NA
ATOM     19  C   UNL     1       3.258  -4.194  -5.706  0.00  0.00    +0.050 A 
ATOM     20  C   UNL     1       3.759  -3.286  -6.585  0.00  0.00    +0.070 A 
ATOM     21  S   UNL     1       3.293  -1.758  -5.782  0.00  0.00    -0.075 S 
BRANCH  17  25
ATOM     22  C   UNL     1       0.606  -0.607  -1.055  0.00  0.00    +0.120 A 
ATOM     23  C   UNL     1       1.172   0.165  -2.062  0.00  0.00    +0.046 A 
ATOM     24  C   UNL     1       1.786  -0.443  -3.136  0.00  0.00    +0.014 A 
ATOM     25  C   UNL     1       1.836  -1.836  -3.212  0.00  0.00    +0.007 A 
ATOM     26  C   UNL     1       1.266  -2.608  -2.198  0.00  0.00    +0.014 A 
ATOM     27  C   UNL     1       0.659  -1.993  -1.124  0.00  0.00    +0.046 A 
BRANCH  22  29
ATOM     28  C   UNL     1      -0.017   1.425   0.010  0.00  0.00    +0.277 C 
ATOM     29  O   UNL     1       0.002  -0.004   0.002  0.00  0.00    -0.495 OA
ENDBRANCH  22  29
ENDBRANCH  17  25
ENDBRANCH  16  19
ENDBRANCH   1  16
TORSDOF 8
