REMARK  Name = ZINC10461949
REMARK  10 active torsions:
REMARK  status: ('A' for Active; 'I' for Inactive)
REMARK    1  A    between atoms: C_1  and  C_2
REMARK    2  A    between atoms: C_2  and  C_3
REMARK    3  A    between atoms: C_3  and  C_4
REMARK    4  A    between atoms: C_4  and  N_5
REMARK    5  A    between atoms: C_7  and  C_12
REMARK    6  A    between atoms: N_14  and  C_15
REMARK    7  A    between atoms: C_18  and  C_21
REMARK    8  A    between atoms: N_23  and  C_24
REMARK    9  A    between atoms: C_26  and  N_31
REMARK   10  A    between atoms: C_29  and  C_30
REMARK                            x       y       z     vdW  Elec       q    Type
REMARK                         _______ _______ _______ _____ _____    ______ ____
ROOT
ATOM      1  C   UNL     1      -6.170   7.223   0.522  0.00  0.00    +0.033 A 
ATOM      2  C   UNL     1      -4.977   7.940   0.521  0.00  0.00    +0.024 A 
ATOM      3  C   UNL     1      -3.775   7.279   0.407  0.00  0.00    +0.015 A 
ATOM      4  C   UNL     1      -3.753   5.887   0.292  0.00  0.00    +0.037 A 
ATOM      5  C   UNL     1      -4.953   5.170   0.288  0.00  0.00    +0.015 A 
ATOM      6  C   UNL     1      -6.151   5.836   0.408  0.00  0.00    +0.024 A 
ENDROOT
BRANCH   1   9
ATOM      7  C   UNL     1      -7.542   9.108   0.071  0.00  0.00    +0.222 C 
ATOM      8  O   UNL     1      -6.601   9.652  -0.465  0.00  0.00    -0.275 OA
ATOM      9  N   UNL     1      -7.386   7.895   0.638  0.00  0.00    -0.285 N 
ATOM     10  H   UNL     1      -8.119   7.490   1.127  0.00  0.00    +0.155 HD
BRANCH   7  13
ATOM     11  N   UNL     1     -10.195  11.163  -1.362  0.00  0.00    -0.301 N 
ATOM     12  C   UNL     1      -8.871  11.086  -0.733  0.00  0.00    +0.121 C 
ATOM     13  C   UNL     1      -8.887   9.787   0.104  0.00  0.00    +0.101 C 
ATOM     14  C   UNL     1      -9.950   8.946  -0.640  0.00  0.00    +0.110 C 
ATOM     15  C   UNL     1     -10.821   9.974  -1.328  0.00  0.00    +0.216 C 
ATOM     16  O   UNL     1     -11.923   9.756  -1.785  0.00  0.00    -0.276 OA
BRANCH  11  17
ATOM     17  C   UNL     1     -10.761  12.379  -1.950  0.00  0.00    +0.108 C 
BRANCH  17  18
ATOM     18  C   UNL     1     -11.542  13.146  -0.881  0.00  0.00    +0.019 C 
BRANCH  18  20
ATOM     19  C   UNL     1     -12.915  15.184  -0.426  0.00  0.00    +0.004 C 
ATOM     20  C   UNL     1     -12.134  14.416  -1.495  0.00  0.00    -0.002 C 
ENDBRANCH  18  20
ENDBRANCH  17  18
ENDBRANCH  11  17
ENDBRANCH   7  13
ENDBRANCH   1   9
BRANCH   4  21
ATOM     21  C   UNL     1      -2.466   5.175   0.170  0.00  0.00    +0.248 C 
ATOM     22  O   UNL     1      -1.423   5.801   0.169  0.00  0.00    -0.270 OA
ATOM     23  N   UNL     1      -2.446   3.832   0.059  0.00  0.00    -0.281 N 
ATOM     24  H   UNL     1      -3.278   3.340  -0.021  0.00  0.00    +0.155 HD
BRANCH  23  25
ATOM     25  C   UNL     1      -1.226   3.148   0.061  0.00  0.00    +0.039 A 
ATOM     26  C   UNL     1      -0.112   3.713   0.668  0.00  0.00    +0.056 A 
ATOM     27  C   UNL     1       1.091   3.035   0.667  0.00  0.00    +0.128 A 
ATOM     28  C   UNL     1       1.187   1.795   0.063  0.00  0.00    +0.033 A 
ATOM     29  C   UNL     1       0.080   1.230  -0.543  0.00  0.00    +0.007 A 
ATOM     30  C   UNL     1      -1.125   1.905  -0.550  0.00  0.00    -0.029 A 
ATOM     31  C   UNL     1      -2.330   1.291  -1.216  0.00  0.00    +0.045 C 
BRANCH  27  32
ATOM     32  N   UNL     1       2.279   3.637   1.313  0.00  0.00    +0.056 N 
ATOM     33  O   UNL     1       3.340   3.040   1.313  0.00  0.00    -0.126 OA
ATOM     34  O   UNL     1       2.195   4.729   1.846  0.00  0.00    -0.126 OA
ENDBRANCH  27  32
ENDBRANCH  23  25
ENDBRANCH   4  21
TORSDOF 8
