REMARK  Name = ZINC04523681
REMARK  8 active torsions:
REMARK  status: ('A' for Active; 'I' for Inactive)
REMARK    1  A    between atoms: C_1  and  C_2
REMARK    2  A    between atoms: C_7  and  C_8
REMARK    3  A    between atoms: N_9  and  N_10
REMARK    4  A    between atoms: C_11  and  C_13
REMARK    5  A    between atoms: C_20  and  C_24
REMARK    6  A    between atoms: C_24  and  C_25
REMARK    7  A    between atoms: C_24  and  C_26
REMARK    8  A    between atoms: C_24  and  C_27
REMARK                            x       y       z     vdW  Elec       q    Type
REMARK                         _______ _______ _______ _____ _____    ______ ____
ROOT
ATOM      1  C   UNL     1      -1.466   4.091  -1.743  0.00  0.00    +0.297 C 
ATOM      2  C   UNL     1      -2.601   4.187  -2.772  0.00  0.00    +0.283 C 
ATOM      3  O   UNL     1      -3.061   2.861  -3.055  0.00  0.00    -0.484 OA
ATOM      4  C   UNL     1      -2.106   1.921  -3.293  0.00  0.00    +0.162 A 
ATOM      5  C   UNL     1      -2.459   0.734  -3.917  0.00  0.00    +0.050 A 
ATOM      6  C   UNL     1      -1.502  -0.234  -4.158  0.00  0.00    +0.008 A 
ATOM      7  C   UNL     1      -0.190  -0.021  -3.778  0.00  0.00    -0.038 A 
ATOM      8  C   UNL     1       0.169   1.160  -3.156  0.00  0.00    +0.053 A 
ATOM      9  C   UNL     1      -0.787   2.136  -2.913  0.00  0.00    +0.163 A 
ATOM     10  O   UNL     1      -0.417   3.297  -2.306  0.00  0.00    -0.472 OA
ENDROOT
BRANCH   1  12
ATOM     11  N   UNL     1      -1.730   6.354  -0.779  0.00  0.00    -0.204 N 
ATOM     12  C   UNL     1      -0.947   5.471  -1.430  0.00  0.00    +0.276 C 
ATOM     13  O   UNL     1       0.176   5.787  -1.764  0.00  0.00    -0.270 OA
ATOM     14  H   UNL     1      -2.599   6.080  -0.448  0.00  0.00    +0.177 HD
BRANCH  11  16
ATOM     15  C   UNL     1      -1.988   8.486   0.143  0.00  0.00    +0.138 C 
ATOM     16  N   UNL     1      -1.288   7.668  -0.580  0.00  0.00    -0.188 NA
BRANCH  15  23
ATOM     17  C   UNL     1      -4.191  10.259   0.756  0.00  0.00    +0.044 C 
ATOM     18  C   UNL     1      -4.202   8.828   1.230  0.00  0.00    -0.042 A 
ATOM     19  C   UNL     1      -5.270   8.349   1.960  0.00  0.00    +0.004 A 
ATOM     20  C   UNL     1      -5.278   7.038   2.401  0.00  0.00    +0.000 A 
ATOM     21  C   UNL     1      -4.218   6.196   2.109  0.00  0.00    +0.001 A 
ATOM     22  C   UNL     1      -3.147   6.660   1.376  0.00  0.00    +0.010 A 
ATOM     23  C   UNL     1      -3.132   7.983   0.927  0.00  0.00    -0.003 A 
ENDBRANCH  15  23
ENDBRANCH  11  16
ENDBRANCH   1  12
BRANCH   7  24
ATOM     24  C   UNL     1       0.851  -1.079  -4.041  0.00  0.00    -0.013 C 
ATOM     25  C   UNL     1       0.197  -2.276  -4.734  0.00  0.00    +0.015 C 
ATOM     26  C   UNL     1       1.945  -0.504  -4.942  0.00  0.00    +0.015 C 
ATOM     27  C   UNL     1       1.466  -1.530  -2.715  0.00  0.00    +0.015 C 
ENDBRANCH   7  24
TORSDOF 4
