REMARK  Name = ZINC36086316
REMARK  11 active torsions:
REMARK  status: ('A' for Active; 'I' for Inactive)
REMARK    1  A    between atoms: C_1  and  C_2
REMARK    2  A    between atoms: C_2  and  C_3
REMARK    3  A    between atoms: C_3  and  C_5
REMARK    4  A    between atoms: C_3  and  N_6
REMARK    5  A    between atoms: C_7  and  C_9
REMARK    6  A    between atoms: N_12  and  C_25
REMARK    7  A    between atoms: N_15  and  C_17
REMARK    8  A    between atoms: C_20  and  C_24
REMARK    9  A    between atoms: C_21  and  C_23
REMARK   10  A    between atoms: C_25  and  C_26
REMARK   11  A    between atoms: C_29  and  C_32
REMARK                            x       y       z     vdW  Elec       q    Type
REMARK                         _______ _______ _______ _____ _____    ______ ____
ROOT
ATOM      1  C   UNL     1      -0.197   0.532  -4.804  0.00  0.00    +0.210 A 
ATOM      2  C   UNL     1       0.440   0.559  -6.135  0.00  0.00    +0.288 A 
ATOM      3  O   UNL     1       1.634   0.371  -6.265  0.00  0.00    -0.265 OA
ATOM      4  N   UNL     1      -0.353   0.800  -7.206  0.00  0.00    -0.253 N 
ATOM      5  C   UNL     1      -1.671   1.001  -7.003  0.00  0.00    +0.353 A 
ATOM      6  O   UNL     1      -2.394   1.218  -7.955  0.00  0.00    -0.244 OA
ATOM      7  N   UNL     1      -2.198   0.965  -5.770  0.00  0.00    -0.181 N 
ATOM      8  N   UNL     1      -1.494   0.736  -4.721  0.00  0.00    -0.152 NA
ENDROOT
BRANCH   7   9
ATOM      9  C   UNL     1      -3.573   1.181  -5.621  0.00  0.00    +0.071 A 
ATOM     10  C   UNL     1      -4.477   0.482  -6.412  0.00  0.00    +0.028 A 
ATOM     11  C   UNL     1      -5.832   0.697  -6.262  0.00  0.00    +0.006 A 
ATOM     12  C   UNL     1      -6.291   1.608  -5.327  0.00  0.00    -0.047 A 
ATOM     13  C   UNL     1      -5.394   2.305  -4.539  0.00  0.00    -0.046 A 
ATOM     14  C   UNL     1      -4.037   2.090  -4.679  0.00  0.00    +0.031 A 
ATOM     15  C   UNL     1      -5.898   3.296  -3.522  0.00  0.00    +0.044 C 
ATOM     16  C   UNL     1      -7.771   1.840  -5.168  0.00  0.00    +0.044 C 
ENDBRANCH   7   9
BRANCH   1  18
ATOM     17  N   UNL     1       0.008   0.249  -2.384  0.00  0.00    -0.307 N 
ATOM     18  C   UNL     1       0.604   0.276  -3.593  0.00  0.00    +0.270 C 
ATOM     19  O   UNL     1       1.802   0.090  -3.684  0.00  0.00    -0.268 OA
ATOM     20  H   UNL     1      -0.948   0.398  -2.312  0.00  0.00    +0.149 HD
BRANCH  17  21
ATOM     21  C   UNL     1       0.804  -0.005  -1.181  0.00  0.00    +0.070 C 
ATOM     22  C   UNL     1       0.953  -1.514  -0.978  0.00  0.00    +0.028 C 
BRANCH  21  24
ATOM     23  C   UNL     1       0.063   2.128  -0.112  0.00  0.00    +0.005 C 
ATOM     24  C   UNL     1       0.101   0.605   0.034  0.00  0.00    +0.018 C 
ENDBRANCH  21  24
ENDBRANCH  17  21
ENDBRANCH   1  18
BRANCH   4  25
ATOM     25  C   UNL     1       0.210   0.842  -8.558  0.00  0.00    +0.165 C 
BRANCH  25  26
ATOM     26  C   UNL     1       0.170  -0.538  -9.162  0.00  0.00    -0.027 A 
ATOM     27  C   UNL     1       1.236  -1.400  -8.988  0.00  0.00    +0.005 A 
ATOM     28  C   UNL     1       1.199  -2.666  -9.542  0.00  0.00    +0.004 A 
ATOM     29  C   UNL     1       0.095  -3.070 -10.269  0.00  0.00    -0.050 A 
ATOM     30  C   UNL     1      -0.972  -2.208 -10.442  0.00  0.00    +0.004 A 
ATOM     31  C   UNL     1      -0.936  -0.944  -9.885  0.00  0.00    +0.005 A 
ATOM     32  C   UNL     1       0.055  -4.450 -10.874  0.00  0.00    +0.044 C 
ENDBRANCH  25  26
ENDBRANCH   4  25
TORSDOF 6
