REMARK  Name = ZINC14017138
REMARK  5 active torsions:
REMARK  status: ('A' for Active; 'I' for Inactive)
REMARK    1  A    between atoms: C_7  and  N_13
REMARK    2  A    between atoms: C_8  and  C_10
REMARK    3  A    between atoms: C_14  and  C_16
REMARK    4  A    between atoms: N_21  and  S_23
REMARK    5  A    between atoms: S_23  and  C_26
REMARK                            x       y       z     vdW  Elec       q    Type
REMARK                         _______ _______ _______ _____ _____    ______ ____
ROOT
ATOM      1  N   UNL     1      -3.173   5.753   3.609  0.00  0.00    -0.282 N 
ATOM      2  C   UNL     1      -2.318   5.141   2.765  0.00  0.00    +0.222 C 
ATOM      3  O   UNL     1      -1.355   5.741   2.337  0.00  0.00    -0.275 OA
ATOM      4  H   UNL     1      -3.986   5.303   3.886  0.00  0.00    +0.155 HD
ENDROOT
BRANCH   1  11
ATOM      5  C   UNL     1       0.483   7.530   5.808  0.00  0.00    +0.001 A 
ATOM      6  C   UNL     1       0.307   8.880   6.083  0.00  0.00    +0.004 A 
ATOM      7  C   UNL     1      -0.849   9.529   5.709  0.00  0.00    +0.047 A 
ATOM      8  C   UNL     1      -1.854   8.830   5.049  0.00  0.00    +0.138 A 
ATOM      9  C   UNL     1      -1.672   7.463   4.779  0.00  0.00    +0.042 A 
ATOM     10  C   UNL     1      -0.491   6.824   5.160  0.00  0.00    +0.013 A 
ATOM     11  C   UNL     1      -2.889   7.028   4.082  0.00  0.00    +0.092 A 
ATOM     12  C   UNL     1      -3.688   8.135   3.998  0.00  0.00    +0.211 A 
ATOM     13  O   UNL     1      -3.063   9.188   4.572  0.00  0.00    -0.448 OA
BRANCH  12  14
ATOM     14  C   UNL     1      -5.013   8.175   3.383  0.00  0.00    +0.279 C 
ATOM     15  O   UNL     1      -5.408   7.228   2.727  0.00  0.00    -0.267 OA
ATOM     16  N   UNL     1      -5.798   9.259   3.541  0.00  0.00    -0.323 N 
ATOM     17  H   UNL     1      -5.483  10.013   4.063  0.00  0.00    +0.145 HD
ATOM     18  H   UNL     1      -6.677   9.285   3.133  0.00  0.00    +0.145 HD
ENDBRANCH  12  14
ENDBRANCH   1  11
BRANCH   2  19
ATOM     19  C   UNL     1      -2.560   3.711   2.354  0.00  0.00    +0.091 C 
ATOM     20  C   UNL     1      -2.558   2.816   3.595  0.00  0.00    +0.015 C 
ATOM     21  C   UNL     1      -2.835   1.368   3.182  0.00  0.00    +0.018 C 
ATOM     22  C   UNL     1      -1.728   0.889   2.239  0.00  0.00    +0.109 C 
ATOM     23  N   UNL     1      -1.625   1.829   1.113  0.00  0.00    -0.176 NA
ATOM     24  C   UNL     1      -1.443   3.258   1.401  0.00  0.00    +0.122 C 
BRANCH  23  25
ATOM     25  S   UNL     1      -1.707   1.286  -0.449  0.00  0.00    +0.061 S 
ATOM     26  O   UNL     1      -1.318  -0.080  -0.425  0.00  0.00    -0.153 OA
ATOM     27  O   UNL     1      -1.043   2.254  -1.250  0.00  0.00    -0.153 OA
BRANCH  25  28
ATOM     28  C   UNL     1      -3.404   1.318  -0.923  0.00  0.00    +0.106 A 
ATOM     29  C   UNL     1      -4.200   0.206  -0.718  0.00  0.00    +0.030 A 
ATOM     30  C   UNL     1      -5.532   0.233  -1.084  0.00  0.00    +0.022 A 
ATOM     31  C   UNL     1      -6.067   1.368  -1.667  0.00  0.00    +0.041 A 
ATOM     32  C   UNL     1      -5.268   2.478  -1.878  0.00  0.00    +0.022 A 
ATOM     33  C   UNL     1      -3.937   2.453  -1.506  0.00  0.00    +0.030 A 
ATOM     34 CL   UNL     1      -7.738   1.399  -2.134  0.00  0.00    -0.084 Cl
ENDBRANCH  25  28
ENDBRANCH  23  25
ENDBRANCH   2  19
TORSDOF 5
