REMARK  Name = ZINC00653098
REMARK  7 active torsions:
REMARK  status: ('A' for Active; 'I' for Inactive)
REMARK    1  A    between atoms: C_1  and  C_2
REMARK    2  A    between atoms: C_3  and  C_19
REMARK    3  A    between atoms: C_4  and  C_13
REMARK    4  A    between atoms: N_6  and  C_7
REMARK    5  A    between atoms: N_21  and  N_22
REMARK    6  A    between atoms: C_23  and  C_25
REMARK    7  A    between atoms: C_28  and  N_31
REMARK                            x       y       z     vdW  Elec       q    Type
REMARK                         _______ _______ _______ _____ _____    ______ ____
ROOT
ATOM      1  C   UNL     1       3.577  -6.714   2.469  0.00  0.00    +0.066 C 
ATOM      2  C   UNL     1       3.638  -7.161   1.031  0.00  0.00    +0.055 A 
ATOM      3  C   UNL     1       3.826  -6.346  -0.066  0.00  0.00    +0.087 A 
ATOM      4  C   UNL     1       3.806  -7.222  -1.241  0.00  0.00    +0.106 A 
ATOM      5  N   UNL     1       3.625  -8.448  -0.804  0.00  0.00    -0.165 NA
ATOM      6  N   UNL     1       3.517  -8.425   0.590  0.00  0.00    -0.236 N 
ENDROOT
BRANCH   6   7
ATOM      7  C   UNL     1       3.312  -9.548   1.402  0.00  0.00    +0.066 A 
ATOM      8  C   UNL     1       4.001 -10.726   1.146  0.00  0.00    +0.028 A 
ATOM      9  C   UNL     1       3.800 -11.830   1.952  0.00  0.00    +0.002 A 
ATOM     10  C   UNL     1       2.907 -11.766   3.006  0.00  0.00    +0.000 A 
ATOM     11  C   UNL     1       2.216 -10.596   3.260  0.00  0.00    +0.002 A 
ATOM     12  C   UNL     1       2.416  -9.487   2.461  0.00  0.00    +0.028 A 
ENDBRANCH   6   7
BRANCH   4  13
ATOM     13  C   UNL     1       3.963  -6.805  -2.655  0.00  0.00    +0.003 A 
ATOM     14  C   UNL     1       3.443  -5.586  -3.087  0.00  0.00    +0.010 A 
ATOM     15  C   UNL     1       3.596  -5.200  -4.403  0.00  0.00    +0.001 A 
ATOM     16  C   UNL     1       4.256  -6.025  -5.295  0.00  0.00    +0.000 A 
ATOM     17  C   UNL     1       4.770  -7.239  -4.874  0.00  0.00    +0.001 A 
ATOM     18  C   UNL     1       4.627  -7.633  -3.559  0.00  0.00    +0.010 A 
ENDBRANCH   4  13
BRANCH   3  19
ATOM     19  C   UNL     1       4.007  -4.884  -0.058  0.00  0.00    +0.264 C 
ATOM     20  O   UNL     1       5.123  -4.410   0.029  0.00  0.00    -0.269 OA
ATOM     21  N   UNL     1       2.935  -4.073  -0.147  0.00  0.00    -0.230 N 
ATOM     22  H   UNL     1       2.044  -4.451  -0.216  0.00  0.00    +0.173 HD
BRANCH  21  23
ATOM     23  N   UNL     1       3.106  -2.682  -0.140  0.00  0.00    -0.230 N 
ATOM     24  C   UNL     1       2.034  -1.870  -0.229  0.00  0.00    +0.260 C 
ATOM     25  O   UNL     1       0.918  -2.345  -0.316  0.00  0.00    -0.269 OA
ATOM     26  H   UNL     1       3.997  -2.304  -0.071  0.00  0.00    +0.173 HD
BRANCH  24  27
ATOM     27  C   UNL     1       2.215  -0.403  -0.221  0.00  0.00    +0.038 A 
ATOM     28  C   UNL     1       1.107   0.440  -0.313  0.00  0.00    +0.015 A 
ATOM     29  C   UNL     1       1.283   1.809  -0.305  0.00  0.00    +0.033 A 
ATOM     30  C   UNL     1       2.554   2.345  -0.206  0.00  0.00    +0.126 A 
ATOM     31  C   UNL     1       3.657   1.515  -0.114  0.00  0.00    +0.033 A 
ATOM     32  C   UNL     1       3.495   0.145  -0.121  0.00  0.00    +0.015 A 
BRANCH  30  33
ATOM     33  N   UNL     1       2.735   3.814  -0.198  0.00  0.00    +0.056 N 
ATOM     34  O   UNL     1       1.766   4.548  -0.278  0.00  0.00    -0.126 OA
ATOM     35  O   UNL     1       3.853   4.290  -0.111  0.00  0.00    -0.126 OA
ENDBRANCH  30  33
ENDBRANCH  24  27
ENDBRANCH  21  23
ENDBRANCH   3  19
TORSDOF 6
