REMARK  Name = ZINC45189084
REMARK  13 active torsions:
REMARK  status: ('A' for Active; 'I' for Inactive)
REMARK    1  A    between atoms: C_1  and  C_2
REMARK    2  A    between atoms: C_2  and  N_3
REMARK    3  A    between atoms: C_5  and  O_24
REMARK    4  A    between atoms: C_8  and  C_18
REMARK    5  A    between atoms: C_11  and  C_12
REMARK    6  A    between atoms: O_24  and  C_25
REMARK    7  A    between atoms: C_25  and  C_26
REMARK    8  A    between atoms: C_26  and  C_27
REMARK    9  A    between atoms: C_27  and  N_28
REMARK   10  A    between atoms: N_28  and  C_29
REMARK   11  A    between atoms: C_29  and  C_30
REMARK   12  A    between atoms: C_30  and  C_31
REMARK   13  A    between atoms: C_31  and  N_32
REMARK                            x       y       z     vdW  Elec       q    Type
REMARK                         _______ _______ _______ _____ _____    ______ ____
ROOT
ATOM      1  N   UNL     1       0.688  -0.476  -1.203  0.00  0.00    -0.320 N 
ATOM      2  C   UNL     1       0.108  -0.745  -2.422  0.00  0.00    +0.115 A 
ATOM      3  C   UNL     1      -1.188  -0.685  -2.933  0.00  0.00    +0.164 A 
ATOM      4  C   UNL     1      -1.406  -1.043  -4.253  0.00  0.00    +0.159 A 
ATOM      5  N   UNL     1      -0.413  -1.438  -5.029  0.00  0.00    -0.249 NA
ATOM      6  C   UNL     1       0.837  -1.515  -4.598  0.00  0.00    +0.099 A 
ATOM      7  C   UNL     1       1.149  -1.169  -3.269  0.00  0.00    +0.119 A 
ATOM      8  N   UNL     1       2.285  -1.141  -2.550  0.00  0.00    -0.223 NA
ATOM      9  C   UNL     1       2.028  -0.729  -1.332  0.00  0.00    +0.167 A 
ENDROOT
BRANCH   9  10
ATOM     10  C   UNL     1       3.032  -0.565  -0.258  0.00  0.00    +0.190 A 
ATOM     11  C   UNL     1       4.472  -0.825  -0.380  0.00  0.00    +0.191 A 
ATOM     12  N   UNL     1       5.033  -0.570   0.770  0.00  0.00    -0.033 NA
ATOM     13  O   UNL     1       4.021  -0.146   1.665  0.00  0.00    -0.240 OA
ATOM     14  N   UNL     1       2.792  -0.159   0.962  0.00  0.00    -0.044 NA
ATOM     15  N   UNL     1       5.125  -1.267  -1.523  0.00  0.00    -0.339 N 
ATOM     16  H   UNL     1       4.622  -1.431  -2.336  0.00  0.00    +0.144 HD
ATOM     17  H   UNL     1       6.084  -1.411  -1.508  0.00  0.00    +0.144 HD
ENDBRANCH   9  10
BRANCH   6  18
ATOM     18  C   UNL     1       1.908  -1.966  -5.516  0.00  0.00    +0.002 A 
ATOM     19  C   UNL     1       3.188  -1.421  -5.418  0.00  0.00    +0.010 A 
ATOM     20  C   UNL     1       4.183  -1.845  -6.276  0.00  0.00    +0.001 A 
ATOM     21  C   UNL     1       3.912  -2.808  -7.231  0.00  0.00    +0.000 A 
ATOM     22  C   UNL     1       2.644  -3.352  -7.333  0.00  0.00    +0.001 A 
ATOM     23  C   UNL     1       1.643  -2.940  -6.478  0.00  0.00    +0.010 A 
ENDBRANCH   6  18
BRANCH   1  25
ATOM     24  C   UNL     1      -0.019   1.526   0.010  0.00  0.00    +0.027 C 
ATOM     25  C   UNL     1       0.002  -0.004   0.002  0.00  0.00    +0.120 C 
ENDBRANCH   1  25
BRANCH   3  26
ATOM     26  O   UNL     1      -2.222  -0.281  -2.148  0.00  0.00    -0.488 OA
BRANCH  26  27
ATOM     27  C   UNL     1      -3.518  -0.247  -2.749  0.00  0.00    +0.227 C 
BRANCH  27  28
ATOM     28  C   UNL     1      -4.545   0.228  -1.719  0.00  0.00    +0.022 C 
BRANCH  28  29
ATOM     29  C   UNL     1      -5.933   0.264  -2.362  0.00  0.00    -0.079 C 
BRANCH  29  30
ATOM     30  N   UNL     1      -6.919   0.721  -1.374  0.00  0.00    +0.379 N 
ATOM     31  H   UNL     1      -6.928   0.086  -0.590  0.00  0.00    -0.086 HD
ATOM     32  H   UNL     1      -6.672   1.645  -1.055  0.00  0.00    -0.086 HD
BRANCH  30  33
ATOM     33  C   UNL     1      -8.252   0.755  -1.991  0.00  0.00    -0.081 C 
BRANCH  33  34
ATOM     34  C   UNL     1      -9.279   1.230  -0.962  0.00  0.00    -0.004 C 
BRANCH  34  35
ATOM     35  C   UNL     1     -10.667   1.266  -1.605  0.00  0.00    +0.083 C 
BRANCH  35  36
ATOM     36  N   UNL     1     -11.653   1.723  -0.617  0.00  0.00    -0.298 NA
ATOM     37  C   UNL     1     -11.803   0.743   0.469  0.00  0.00    +0.112 C 
ATOM     38  C   UNL     1     -12.792   1.284   1.505  0.00  0.00    +0.175 C 
ATOM     39  O   UNL     1     -14.036   1.575   0.862  0.00  0.00    -0.377 OA
ATOM     40  C   UNL     1     -13.927   2.526  -0.201  0.00  0.00    +0.175 C 
ATOM     41  C   UNL     1     -12.949   1.998  -1.253  0.00  0.00    +0.112 C 
ENDBRANCH  35  36
ENDBRANCH  34  35
ENDBRANCH  33  34
ENDBRANCH  30  33
ENDBRANCH  29  30
ENDBRANCH  28  29
ENDBRANCH  27  28
ENDBRANCH  26  27
ENDBRANCH   3  26
TORSDOF 12
