REMARK  Name = ZINC16016676
REMARK  7 active torsions:
REMARK  status: ('A' for Active; 'I' for Inactive)
REMARK    1  A    between atoms: C_1  and  C_2
REMARK    2  A    between atoms: N_7  and  S_9
REMARK    3  A    between atoms: S_9  and  C_12
REMARK    4  A    between atoms: C_15  and  N_18
REMARK    5  A    between atoms: C_19  and  C_21
REMARK    6  A    between atoms: C_22  and  C_23
REMARK    7  A    between atoms: C_27  and  N_29
REMARK                            x       y       z     vdW  Elec       q    Type
REMARK                         _______ _______ _______ _____ _____    ______ ____
ROOT
ATOM      1  C   UNL     1      -2.338  12.254  -0.176  0.00  0.00    +0.106 A 
ATOM      2  C   UNL     1      -3.552  11.599  -0.073  0.00  0.00    +0.030 A 
ATOM      3  C   UNL     1      -3.590  10.221   0.008  0.00  0.00    +0.025 A 
ATOM      4  C   UNL     1      -2.408   9.492  -0.013  0.00  0.00    +0.034 A 
ATOM      5  C   UNL     1      -1.190  10.154  -0.110  0.00  0.00    +0.025 A 
ATOM      6  C   UNL     1      -1.159  11.532  -0.197  0.00  0.00    +0.030 A 
ENDROOT
BRANCH   4   7
ATOM      7  N   UNL     1      -2.443   8.097   0.070  0.00  0.00    -0.282 N 
ATOM      8  C   UNL     1      -3.449   7.413  -0.510  0.00  0.00    +0.241 C 
ATOM      9  O   UNL     1      -4.370   8.012  -1.033  0.00  0.00    -0.270 OA
ATOM     10  H   UNL     1      -1.743   7.622   0.544  0.00  0.00    +0.155 HD
BRANCH   8  11
ATOM     11  C   UNL     1      -3.433   5.949  -0.511  0.00  0.00    +0.068 C 
ATOM     12  C   UNL     1      -4.439   5.264  -1.091  0.00  0.00    +0.013 C 
BRANCH  12  13
ATOM     13  C   UNL     1      -4.423   3.792  -1.092  0.00  0.00    -0.023 A 
ATOM     14  C   UNL     1      -3.366   3.101  -0.493  0.00  0.00    +0.008 A 
ATOM     15  C   UNL     1      -3.361   1.722  -0.493  0.00  0.00    +0.003 A 
ATOM     16  C   UNL     1      -4.393   1.023  -1.095  0.00  0.00    +0.033 A 
ATOM     17  C   UNL     1      -5.443   1.700  -1.690  0.00  0.00    +0.127 A 
ATOM     18  C   UNL     1      -5.465   3.079  -1.693  0.00  0.00    +0.040 A 
BRANCH  17  19
ATOM     19  N   UNL     1      -6.544   0.943  -2.325  0.00  0.00    +0.056 N 
ATOM     20  O   UNL     1      -6.526  -0.275  -2.324  0.00  0.00    -0.126 OA
ATOM     21  O   UNL     1      -7.469   1.537  -2.849  0.00  0.00    -0.126 OA
ENDBRANCH  17  19
ENDBRANCH  12  13
ENDBRANCH   8  11
ENDBRANCH   4   7
BRANCH   1  22
ATOM     22  S   UNL     1      -2.294  14.012  -0.280  0.00  0.00    +0.061 S 
ATOM     23  O   UNL     1      -1.070  14.351  -0.917  0.00  0.00    -0.153 OA
ATOM     24  O   UNL     1      -3.557  14.421  -0.789  0.00  0.00    -0.153 OA
BRANCH  22  30
ATOM     25  C   UNL     1       0.439  14.406   3.978  0.00  0.00    +0.009 C 
ATOM     26  C   UNL     1      -0.860  14.074   3.241  0.00  0.00    +0.002 C 
ATOM     27  C   UNL     1      -2.056  14.507   4.092  0.00  0.00    +0.006 C 
ATOM     28  C   UNL     1      -3.355  14.145   3.369  0.00  0.00    +0.017 C 
ATOM     29  C   UNL     1      -3.417  14.896   2.031  0.00  0.00    +0.109 C 
ATOM     30  N   UNL     1      -2.198  14.592   1.268  0.00  0.00    -0.176 NA
ATOM     31  C   UNL     1      -0.893  14.819   1.903  0.00  0.00    +0.112 C 
ENDBRANCH  22  30
ENDBRANCH   1  22
TORSDOF 6
