REMARK  Name = ZINC16958298
REMARK  6 active torsions:
REMARK  status: ('A' for Active; 'I' for Inactive)
REMARK    1  A    between atoms: C_1  and  C_2
REMARK    2  A    between atoms: C_4  and  C_23
REMARK    3  A    between atoms: N_6  and  N_21
REMARK    4  A    between atoms: C_7  and  C_15
REMARK    5  A    between atoms: C_9  and  C_14
REMARK    6  A    between atoms: N_12  and  O_13
REMARK                            x       y       z     vdW  Elec       q    Type
REMARK                         _______ _______ _______ _____ _____    ______ ____
ROOT
ATOM      1  C   UNL     1       2.042   1.600  -1.200  0.00  0.00    +0.016 C 
ATOM      2  C   UNL     1       1.333   1.873   0.128  0.00  0.00    +0.060 C 
ATOM      3  C   UNL     1       2.118   1.223   1.275  0.00  0.00    +0.135 C 
ATOM      4  N   UNL     1       1.980  -0.235   1.175  0.00  0.00    -0.204 N 
ATOM      5  C   UNL     1       0.638  -0.832   1.196  0.00  0.00    +0.135 C 
ATOM      6  C   UNL     1      -0.185  -0.235   0.047  0.00  0.00    +0.060 C 
ATOM      7  C   UNL     1      -0.055   1.271   0.098  0.00  0.00    +0.067 C 
ATOM      8  N   UNL     1      -1.093   2.018   0.109  0.00  0.00    -0.096 NA
ATOM      9  C   UNL     1       0.346  -0.753  -1.292  0.00  0.00    +0.016 C 
ENDROOT
BRANCH   5  10
ATOM     10  C   UNL     1      -0.034  -0.527   2.510  0.00  0.00    -0.025 A 
ATOM     11  C   UNL     1      -1.212   0.194   2.532  0.00  0.00    +0.005 A 
ATOM     12  C   UNL     1      -1.831   0.470   3.737  0.00  0.00    +0.000 A 
ATOM     13  C   UNL     1      -1.266   0.032   4.920  0.00  0.00    +0.000 A 
ATOM     14  C   UNL     1      -0.084  -0.685   4.898  0.00  0.00    +0.000 A 
ATOM     15  C   UNL     1       0.532  -0.964   3.693  0.00  0.00    +0.005 A 
ENDBRANCH   5  10
BRANCH   3  16
ATOM     16  C   UNL     1       1.569   1.694   2.597  0.00  0.00    -0.025 A 
ATOM     17  C   UNL     1       0.537   2.613   2.629  0.00  0.00    +0.005 A 
ATOM     18  C   UNL     1       0.030   3.041   3.841  0.00  0.00    +0.000 A 
ATOM     19  C   UNL     1       0.561   2.557   5.022  0.00  0.00    +0.000 A 
ATOM     20  C   UNL     1       1.596   1.641   4.990  0.00  0.00    +0.000 A 
ATOM     21  C   UNL     1       2.100   1.210   3.778  0.00  0.00    +0.005 A 
ENDBRANCH   3  16
BRANCH   8  22
ATOM     22  O   UNL     1      -0.952   3.426   0.157  0.00  0.00    -0.409 OA
ATOM     23  H   UNL     1      -1.792   3.906   0.162  0.00  0.00    +0.328 HD
ENDBRANCH   8  22
BRANCH   4  24
ATOM     24  N   UNL     1       3.026  -0.984   1.072  0.00  0.00    +0.046 NA
ATOM     25  O   UNL     1       4.135  -0.482   1.056  0.00  0.00    -0.126 OA
ENDBRANCH   4  24
TORSDOF 4
