REMARK  Name = ZINC09504947
REMARK  10 active torsions:
REMARK  status: ('A' for Active; 'I' for Inactive)
REMARK    1  A    between atoms: C_1  and  C_2
REMARK    2  A    between atoms: C_2  and  O_3
REMARK    3  A    between atoms: O_3  and  C_4
REMARK    4  A    between atoms: C_4  and  C_6
REMARK    5  A    between atoms: C_7  and  C_31
REMARK    6  A    between atoms: C_8  and  C_28
REMARK    7  A    between atoms: C_9  and  N_11
REMARK    8  A    between atoms: C_12  and  C_14
REMARK    9  A    between atoms: N_17  and  S_20
REMARK   10  A    between atoms: S_20  and  C_23
REMARK                            x       y       z     vdW  Elec       q    Type
REMARK                         _______ _______ _______ _____ _____    ______ ____
ROOT
ATOM      1  N   UNL     1      -1.071   6.127   2.360  0.00  0.00    -0.279 N 
ATOM      2  C   UNL     1      -0.049   5.258   2.229  0.00  0.00    +0.221 C 
ATOM      3  O   UNL     1       0.868   5.276   3.022  0.00  0.00    -0.275 OA
ATOM      4  H   UNL     1      -1.804   6.112   1.726  0.00  0.00    +0.155 HD
ENDROOT
BRANCH   1   8
ATOM      5  C   UNL     1      -0.662   8.600   5.528  0.00  0.00    +0.102 A 
ATOM      6  C   UNL     1      -1.808   8.814   4.808  0.00  0.00    -0.015 A 
ATOM      7  C   UNL     1      -2.029   8.014   3.699  0.00  0.00    +0.069 A 
ATOM      8  C   UNL     1      -1.074   7.037   3.399  0.00  0.00    +0.085 A 
ATOM      9  S   UNL     1       0.110   7.257   4.646  0.00  0.00    -0.066 S 
ATOM     10  C   UNL     1      -2.789   9.886   5.205  0.00  0.00    +0.046 C 
BRANCH   7  11
ATOM     11  C   UNL     1      -3.229   8.182   2.869  0.00  0.00    +0.244 C 
ATOM     12  O   UNL     1      -4.242   7.561   3.131  0.00  0.00    -0.270 OA
ATOM     13  N   UNL     1      -3.208   9.024   1.817  0.00  0.00    -0.325 N 
ATOM     14  H   UNL     1      -2.401   9.519   1.608  0.00  0.00    +0.145 HD
ATOM     15  H   UNL     1      -4.001   9.135   1.269  0.00  0.00    +0.145 HD
ENDBRANCH   7  11
BRANCH   5  16
ATOM     16  C   UNL     1      -0.191   9.298   6.723  0.00  0.00    +0.346 C 
ATOM     17  O   UNL     1      -0.850  10.203   7.199  0.00  0.00    -0.244 OA
BRANCH  16  18
ATOM     18  O   UNL     1       0.977   8.940   7.298  0.00  0.00    -0.461 OA
BRANCH  18  20
ATOM     19  C   UNL     1       2.713   9.121   8.968  0.00  0.00    +0.048 C 
ATOM     20  C   UNL     1       1.376   9.665   8.462  0.00  0.00    +0.229 C 
ENDBRANCH  18  20
ENDBRANCH  16  18
ENDBRANCH   5  16
ENDBRANCH   1   8
BRANCH   2  21
ATOM     21  C   UNL     1      -0.046   4.264   1.096  0.00  0.00    +0.078 C 
ATOM     22  C   UNL     1       1.217   3.403   1.176  0.00  0.00    +0.030 C 
ATOM     23  C   UNL     1       1.234   2.417   0.003  0.00  0.00    +0.110 C 
ATOM     24  N   UNL     1      -0.020   1.652   0.011  0.00  0.00    -0.176 NA
ATOM     25  C   UNL     1      -1.295   2.383   0.021  0.00  0.00    +0.110 C 
ATOM     26  C   UNL     1      -1.283   3.369   1.199  0.00  0.00    +0.030 C 
BRANCH  24  27
ATOM     27  S   UNL     1       0.002  -0.004   0.002  0.00  0.00    +0.067 S 
ATOM     28  O   UNL     1      -1.243  -0.424  -0.539  0.00  0.00    -0.152 OA
ATOM     29  O   UNL     1       1.248  -0.390  -0.563  0.00  0.00    -0.152 OA
BRANCH  27  30
ATOM     30  C   UNL     1       0.025  -0.534   1.682  0.00  0.00    +0.143 A 
ATOM     31  C   UNL     1      -1.016  -0.800   2.508  0.00  0.00    +0.036 A 
ATOM     32  C   UNL     1      -0.758  -1.211   3.802  0.00  0.00    +0.010 A 
ATOM     33  C   UNL     1       0.529  -1.326   4.211  0.00  0.00    +0.047 A 
ATOM     34  S   UNL     1       1.427  -0.853   2.741  0.00  0.00    -0.077 S 
ENDBRANCH  27  30
ENDBRANCH  24  27
ENDBRANCH   2  21
TORSDOF 8
