REMARK  Name = ZINC28359999
REMARK  8 active torsions:
REMARK  status: ('A' for Active; 'I' for Inactive)
REMARK    1  A    between atoms: C_1  and  C_2
REMARK    2  A    between atoms: C_2  and  C_3
REMARK    3  A    between atoms: C_3  and  N_4
REMARK    4  A    between atoms: C_14  and  S_15
REMARK    5  A    between atoms: S_15  and  C_16
REMARK    6  A    between atoms: C_16  and  C_17
REMARK    7  A    between atoms: N_19  and  C_20
REMARK    8  A    between atoms: C_25  and  N_26
REMARK                            x       y       z     vdW  Elec       q    Type
REMARK                         _______ _______ _______ _____ _____    ______ ____
ROOT
ATOM      1  S   UNL     1      -2.656  -2.896   0.012  0.00  0.00    -0.078 S 
ENDROOT
BRANCH   1  12
ATOM      2  N   UNL     1       0.036  -2.764  -0.031  0.00  0.00    -0.287 N 
ATOM      3  C   UNL     1       1.238  -2.144  -0.053  0.00  0.00    +0.262 A 
ATOM      4  O   UNL     1       2.277  -2.780  -0.064  0.00  0.00    -0.267 OA
ATOM      5  C   UNL     1       1.244  -0.675  -0.062  0.00  0.00    +0.065 A 
ATOM      6  C   UNL     1       2.431   0.057  -0.085  0.00  0.00    +0.015 A 
ATOM      7  C   UNL     1       2.379   1.424  -0.092  0.00  0.00    +0.001 A 
ATOM      8  C   UNL     1       1.159   2.088  -0.078  0.00  0.00    +0.002 A 
ATOM      9  C   UNL     1      -0.018   1.396  -0.056  0.00  0.00    +0.028 A 
ATOM     10  C   UNL     1       0.001  -0.002  -0.048  0.00  0.00    +0.079 A 
ATOM     11  N   UNL     1      -1.137  -0.725  -0.026  0.00  0.00    -0.223 NA
ATOM     12  C   UNL     1      -1.119  -2.035  -0.017  0.00  0.00    +0.173 A 
BRANCH   2  13
ATOM     13  C   UNL     1      -0.028  -4.228  -0.021  0.00  0.00    +0.127 C 
BRANCH  13  15
ATOM     14  C   UNL     1      -0.095  -6.256   1.436  0.00  0.00    +0.005 C 
ATOM     15  C   UNL     1      -0.029  -4.728   1.425  0.00  0.00    +0.018 C 
ENDBRANCH  13  15
ENDBRANCH   2  13
ENDBRANCH   1  12
BRANCH   1  16
ATOM     16  C   UNL     1      -3.801  -1.494   0.021  0.00  0.00    +0.173 C 
BRANCH  16  17
ATOM     17  C   UNL     1      -5.219  -2.004   0.047  0.00  0.00    +0.228 C 
ATOM     18  O   UNL     1      -5.434  -3.198   0.058  0.00  0.00    -0.275 OA
ATOM     19  N   UNL     1      -6.248  -1.134   0.057  0.00  0.00    -0.283 N 
ATOM     20  H   UNL     1      -6.055  -0.054   0.140  0.00  0.00    +0.155 HD
BRANCH  19  21
ATOM     21  C   UNL     1      -7.563  -1.604  -0.036  0.00  0.00    +0.064 A 
ATOM     22  C   UNL     1      -7.824  -2.824  -0.646  0.00  0.00    +0.027 A 
ATOM     23  C   UNL     1      -9.122  -3.286  -0.737  0.00  0.00    +0.022 A 
ATOM     24  C   UNL     1     -10.163  -2.534  -0.221  0.00  0.00    +0.043 A 
ATOM     25  C   UNL     1      -9.906  -1.318   0.387  0.00  0.00    +0.054 A 
ATOM     26  C   UNL     1      -8.609  -0.854   0.485  0.00  0.00    +0.149 A 
ATOM     27 CL   UNL     1     -11.794  -3.117  -0.337  0.00  0.00    -0.083 Cl
BRANCH  26  28
ATOM     28  N   UNL     1      -8.334   0.444   1.141  0.00  0.00    +0.058 N 
ATOM     29  O   UNL     1      -9.238   1.059   1.677  0.00  0.00    -0.126 OA
ATOM     30  O   UNL     1      -7.203   0.898   1.144  0.00  0.00    -0.126 OA
ENDBRANCH  26  28
ENDBRANCH  19  21
ENDBRANCH  16  17
ENDBRANCH   1  16
TORSDOF 7
