REMARK  Name = ZINC21724121
REMARK  5 active torsions:
REMARK  status: ('A' for Active; 'I' for Inactive)
REMARK    1  A    between atoms: C_1  and  C_2
REMARK    2  A    between atoms: C_5  and  C_8
REMARK    3  A    between atoms: C_10  and  C_13
REMARK    4  A    between atoms: C_13  and  N_14
REMARK    5  A    between atoms: C_17  and  C_20
REMARK                            x       y       z     vdW  Elec       q    Type
REMARK                         _______ _______ _______ _____ _____    ______ ____
ROOT
ATOM      1  N   UNL     1      -7.126   5.236   1.377  0.00  0.00    +0.385 N 
ATOM      2  C   UNL     1      -7.214   4.425   0.157  0.00  0.00    -0.078 C 
ATOM      3  C   UNL     1      -6.009   3.485   0.078  0.00  0.00    -0.006 C 
ATOM      4  C   UNL     1      -4.721   4.314   0.070  0.00  0.00    +0.072 C 
ATOM      5  C   UNL     1      -4.677   5.185   1.329  0.00  0.00    -0.006 C 
ATOM      6  C   UNL     1      -5.921   6.076   1.371  0.00  0.00    -0.078 C 
ATOM      7  H   UNL     1      -7.050   4.548   2.232  0.00  0.00    -0.081 HD
ENDROOT
BRANCH   4   8
ATOM      8  C   UNL     1      -3.529   3.392   0.054  0.00  0.00    +0.222 C 
ATOM      9  O   UNL     1      -3.692   2.190   0.049  0.00  0.00    -0.275 OA
ATOM     10  N   UNL     1      -2.282   3.904   0.045  0.00  0.00    -0.264 N 
ATOM     11  C   UNL     1      -1.183   3.053   0.030  0.00  0.00    +0.164 A 
ATOM     12  N   UNL     1      -1.155   1.735   0.017  0.00  0.00    -0.233 NA
ATOM     13  C   UNL     1      -0.013   1.076   0.008  0.00  0.00    +0.120 A 
ATOM     14  C   UNL     1       1.143   1.785   0.001  0.00  0.00    +0.068 A 
ATOM     15  S   UNL     1       0.507   3.455   0.016  0.00  0.00    -0.061 S 
ATOM     16  H   UNL     1      -2.135   4.994   0.049  0.00  0.00    +0.157 HD
ENDBRANCH   4   8
BRANCH   1  17
ATOM     17  C   UNL     1      -8.335   6.051   1.557  0.00  0.00    +0.002 C 
BRANCH  17  20
ATOM     18  C   UNL     1      -8.003   8.011   4.545  0.00  0.00    +0.258 A 
ATOM     19  N   UNL     1      -7.790   7.867   3.249  0.00  0.00    -0.194 NA
ATOM     20  C   UNL     1      -8.320   6.677   2.927  0.00  0.00    +0.156 A 
ATOM     21  N   UNL     1      -8.822   6.164   4.011  0.00  0.00    -0.063 NA
ATOM     22  O   UNL     1      -8.649   6.908   4.953  0.00  0.00    -0.333 OA
BRANCH  18  27
ATOM     23  C   UNL     1      -6.456  12.493   7.806  0.00  0.00    +0.044 C 
ATOM     24  C   UNL     1      -6.862  11.319   6.952  0.00  0.00    -0.050 A 
ATOM     25  C   UNL     1      -7.527  10.249   7.523  0.00  0.00    +0.004 A 
ATOM     26  C   UNL     1      -7.901   9.172   6.747  0.00  0.00    +0.013 A 
ATOM     27  C   UNL     1      -7.606   9.162   5.383  0.00  0.00    +0.039 A 
ATOM     28  C   UNL     1      -6.929  10.243   4.814  0.00  0.00    +0.013 A 
ATOM     29  C   UNL     1      -6.566  11.316   5.601  0.00  0.00    +0.004 A 
ENDBRANCH  18  27
ENDBRANCH  17  20
ENDBRANCH   1  17
TORSDOF 4
