REMARK  Name = ZINC14719923
REMARK  12 active torsions:
REMARK  status: ('A' for Active; 'I' for Inactive)
REMARK    1  A    between atoms: C_1  and  C_2
REMARK    2  A    between atoms: C_2  and  C_3
REMARK    3  A    between atoms: C_3  and  C_4
REMARK    4  A    between atoms: C_4  and  N_5
REMARK    5  A    between atoms: N_5  and  C_6
REMARK    6  A    between atoms: C_7  and  N_19
REMARK    7  A    between atoms: N_8  and  C_15
REMARK    8  A    between atoms: C_15  and  C_16
REMARK    9  A    between atoms: C_16  and  C_17
REMARK   10  A    between atoms: C_16  and  C_18
REMARK   11  A    between atoms: C_20  and  C_22
REMARK   12  A    between atoms: C_25  and  N_28
REMARK                            x       y       z     vdW  Elec       q    Type
REMARK                         _______ _______ _______ _____ _____    ______ ____
ROOT
ATOM      1  N   UNL     1      -2.976  -2.249   0.134  0.00  0.00    -0.260 N 
ATOM      2  C   UNL     1      -3.406  -2.888   1.240  0.00  0.00    +0.251 C 
ATOM      3  O   UNL     1      -2.673  -2.994   2.205  0.00  0.00    -0.270 OA
ENDROOT
BRANCH   1   4
ATOM      4  C   UNL     1      -3.847  -2.071  -0.961  0.00  0.00    +0.140 A 
ATOM      5  C   UNL     1      -5.011  -1.342  -0.820  0.00  0.00    +0.127 A 
ATOM      6  N   UNL     1      -5.840  -1.186  -1.906  0.00  0.00    -0.280 N 
ATOM      7  C   UNL     1      -5.521  -1.736  -3.092  0.00  0.00    +0.331 A 
ATOM      8  O   UNL     1      -6.267  -1.587  -4.040  0.00  0.00    -0.246 OA
ATOM      9  N   UNL     1      -4.391  -2.449  -3.247  0.00  0.00    -0.273 N 
ATOM     10  H   UNL     1      -4.184  -2.836  -4.112  0.00  0.00    +0.173 HD
ATOM     11  C   UNL     1      -3.541  -2.627  -2.217  0.00  0.00    +0.277 A 
ATOM     12  O   UNL     1      -2.517  -3.271  -2.370  0.00  0.00    -0.266 OA
BRANCH   5  13
ATOM     13  N   UNL     1      -5.338  -0.780   0.391  0.00  0.00    -0.343 N 
ATOM     14  H   UNL     1      -4.778  -0.941   1.167  0.00  0.00    +0.144 HD
ATOM     15  H   UNL     1      -6.128  -0.224   0.469  0.00  0.00    +0.144 HD
ENDBRANCH   5  13
BRANCH   6  16
ATOM     16  C   UNL     1      -7.079  -0.415  -1.772  0.00  0.00    +0.131 C 
BRANCH  16  17
ATOM     17  C   UNL     1      -6.802   1.055  -2.092  0.00  0.00    +0.003 C 
ATOM     18  C   UNL     1      -6.400   1.190  -3.562  0.00  0.00    +0.009 C 
ATOM     19  C   UNL     1      -8.064   1.880  -1.831  0.00  0.00    +0.009 C 
ENDBRANCH  16  17
ENDBRANCH   6  16
ENDBRANCH   1   4
BRANCH   2  20
ATOM     20  C   UNL     1      -4.766  -3.459   1.281  0.00  0.00    +0.037 A 
ATOM     21  C   UNL     1      -5.418  -3.800   0.092  0.00  0.00    +0.015 A 
ATOM     22  C   UNL     1      -6.687  -4.333   0.134  0.00  0.00    +0.024 A 
ATOM     23  C   UNL     1      -7.320  -4.533   1.356  0.00  0.00    +0.036 A 
ATOM     24  C   UNL     1      -6.673  -4.195   2.541  0.00  0.00    +0.024 A 
ATOM     25  C   UNL     1      -5.403  -3.667   2.507  0.00  0.00    +0.015 A 
BRANCH  23  26
ATOM     26  N   UNL     1      -8.605  -5.072   1.394  0.00  0.00    -0.271 N 
ATOM     27  C   UNL     1      -9.418  -5.191   2.611  0.00  0.00    +0.114 C 
ATOM     28  C   UNL     1     -10.865  -5.418   2.119  0.00  0.00    +0.029 C 
ATOM     29  C   UNL     1     -10.630  -6.046   0.726  0.00  0.00    +0.098 C 
ATOM     30  C   UNL     1      -9.262  -5.545   0.321  0.00  0.00    +0.220 C 
ATOM     31  O   UNL     1      -8.820  -5.568  -0.809  0.00  0.00    -0.275 OA
ENDBRANCH  23  26
ENDBRANCH   2  20
BRANCH   1  32
ATOM     32  C   UNL     1      -1.604  -1.740   0.069  0.00  0.00    +0.114 C 
BRANCH  32  33
ATOM     33  C   UNL     1      -1.581  -0.278   0.520  0.00  0.00    +0.019 C 
BRANCH  33  35
ATOM     34  C   UNL     1      -0.125   1.716   0.902  0.00  0.00    +0.004 C 
ATOM     35  C   UNL     1      -0.148   0.254   0.452  0.00  0.00    -0.002 C 
ENDBRANCH  33  35
ENDBRANCH  32  33
ENDBRANCH   1  32
TORSDOF 9
