REMARK  Name = ZINC31654105
REMARK  11 active torsions:
REMARK  status: ('A' for Active; 'I' for Inactive)
REMARK    1  A    between atoms: C_1  and  C_2
REMARK    2  A    between atoms: C_2  and  C_4
REMARK    3  A    between atoms: C_2  and  N_7
REMARK    4  A    between atoms: N_7  and  C_8
REMARK    5  A    between atoms: N_7  and  C_24
REMARK    6  A    between atoms: C_8  and  C_9
REMARK    7  A    between atoms: N_11  and  C_12
REMARK    8  A    between atoms: C_12  and  C_13
REMARK    9  A    between atoms: C_13  and  C_14
REMARK   10  A    between atoms: C_17  and  S_20
REMARK   11  A    between atoms: S_20  and  N_23
REMARK                            x       y       z     vdW  Elec       q    Type
REMARK                         _______ _______ _______ _____ _____    ______ ____
ROOT
ATOM      1  C   UNL     1       5.425  -1.220   1.715  0.00  0.00    +0.196 C 
ATOM      2  O   UNL     1       5.486  -1.538   0.546  0.00  0.00    -0.278 OA
ATOM      3  N   UNL     1       6.327  -1.704   2.592  0.00  0.00    -0.317 N 
ATOM      4  H   UNL     1       6.272  -1.416   3.652  0.00  0.00    +0.149 HD
ENDROOT
BRANCH   1   5
ATOM      5  C   UNL     1       4.341  -0.286   2.187  0.00  0.00    +0.019 C 
BRANCH   5   6
ATOM      6  N   UNL     1       3.406  -0.024   1.085  0.00  0.00    +0.389 N 
ATOM      7  H   UNL     1       2.578   0.583   1.480  0.00  0.00    -0.080 HD
BRANCH   6   8
ATOM      8  C   UNL     1       4.056   0.742   0.013  0.00  0.00    -0.068 C 
ATOM      9  C   UNL     1       5.515   1.152   0.224  0.00  0.00    -0.017 C 
ATOM     10  C   UNL     1       4.405   2.203   0.301  0.00  0.00    -0.017 C 
ENDBRANCH   6   8
BRANCH   6  12
ATOM     11  C   UNL     1       2.087  -1.998   1.688  0.00  0.00    -0.013 C 
ATOM     12  C   UNL     1       2.839  -1.277   0.567  0.00  0.00    -0.068 C 
BRANCH  12  13
ATOM     13  C   UNL     1       1.872  -0.964  -0.577  0.00  0.00    -0.025 C 
ATOM     14  C   UNL     1       1.173  -2.145  -1.254  0.00  0.00    +0.002 C 
ATOM     15  C   UNL     1       2.284  -1.391  -1.987  0.00  0.00    +0.002 C 
ENDBRANCH  12  13
ENDBRANCH   6  12
ENDBRANCH   5   6
ENDBRANCH   1   5
BRANCH   3  16
ATOM     16  C   UNL     1       7.381  -2.612   2.133  0.00  0.00    +0.109 C 
BRANCH  16  17
ATOM     17  C   UNL     1       8.264  -3.009   3.318  0.00  0.00    +0.054 C 
BRANCH  17  18
ATOM     18  C   UNL     1       9.348  -3.943   2.846  0.00  0.00    -0.046 A 
ATOM     19  C   UNL     1       9.134  -5.309   2.852  0.00  0.00    +0.005 A 
ATOM     20  C   UNL     1      10.127  -6.166   2.415  0.00  0.00    +0.029 A 
ATOM     21  C   UNL     1      11.336  -5.658   1.981  0.00  0.00    +0.105 A 
ATOM     22  C   UNL     1      11.552  -4.292   1.980  0.00  0.00    +0.029 A 
ATOM     23  C   UNL     1      10.558  -3.435   2.412  0.00  0.00    +0.005 A 
BRANCH  21  24
ATOM     24  S   UNL     1      12.603  -6.750   1.428  0.00  0.00    +0.056 S 
ATOM     25  O   UNL     1      11.956  -7.946   1.014  0.00  0.00    -0.153 OA
ATOM     26  O   UNL     1      13.439  -5.997   0.560  0.00  0.00    -0.153 OA
BRANCH  24  27
ATOM     27  N   UNL     1      13.523  -7.142   2.748  0.00  0.00    -0.204 NA
ATOM     28  H   UNL     1      14.329  -7.826   2.444  0.00  0.00    +0.144 HD
ATOM     29  H   UNL     1      12.890  -7.633   3.503  0.00  0.00    +0.144 HD
ENDBRANCH  24  27
ENDBRANCH  21  24
ENDBRANCH  17  18
ENDBRANCH  16  17
ENDBRANCH   3  16
TORSDOF 10
