REMARK  Name = ZINC45285379
REMARK  13 active torsions:
REMARK  status: ('A' for Active; 'I' for Inactive)
REMARK    1  A    between atoms: C_1  and  C_2
REMARK    2  A    between atoms: C_2  and  C_3
REMARK    3  A    between atoms: C_3  and  C_4
REMARK    4  A    between atoms: C_4  and  C_5
REMARK    5  A    between atoms: C_5  and  N_6
REMARK    6  A    between atoms: N_6  and  C_7
REMARK    7  A    between atoms: C_8  and  N_20
REMARK    8  A    between atoms: N_9  and  C_16
REMARK    9  A    between atoms: C_16  and  C_17
REMARK   10  A    between atoms: C_17  and  C_18
REMARK   11  A    between atoms: C_18  and  C_19
REMARK   12  A    between atoms: C_21  and  C_23
REMARK   13  A    between atoms: C_27  and  C_33
REMARK                            x       y       z     vdW  Elec       q    Type
REMARK                         _______ _______ _______ _____ _____    ______ ____
ROOT
ATOM      1  N   UNL     1      -2.371  -4.149  -0.325  0.00  0.00    -0.263 N 
ATOM      2  C   UNL     1      -2.816  -4.431  -1.567  0.00  0.00    +0.241 C 
ATOM      3  O   UNL     1      -3.238  -3.542  -2.277  0.00  0.00    -0.273 OA
ENDROOT
BRANCH   2   4
ATOM      4  C   UNL     1      -2.791  -5.851  -2.072  0.00  0.00    +0.173 C 
ATOM      5  C   UNL     1      -4.043  -6.583  -1.534  0.00  0.00    +0.103 C 
ATOM      6  S   UNL     1      -5.058  -6.676  -3.078  0.00  0.00    -0.133 S 
ATOM      7  C   UNL     1      -3.629  -6.716  -4.237  0.00  0.00    +0.082 C 
ATOM      8  N   UNL     1      -2.677  -5.820  -3.533  0.00  0.00    -0.275 N 
ATOM      9  C   UNL     1      -1.961  -5.159  -4.483  0.00  0.00    +0.217 C 
ATOM     10  O   UNL     1      -0.929  -4.557  -4.275  0.00  0.00    -0.276 OA
ATOM     11  C   UNL     1      -2.630  -5.282  -5.832  0.00  0.00    +0.099 C 
ATOM     12  C   UNL     1      -3.975  -5.965  -5.533  0.00  0.00    +0.046 C 
ATOM     13  C   UNL     1      -3.095  -8.128  -4.487  0.00  0.00    +0.044 C 
ENDBRANCH   2   4
BRANCH   1  14
ATOM     14  C   UNL     1      -1.977  -5.194   0.538  0.00  0.00    +0.140 A 
ATOM     15  C   UNL     1      -2.758  -5.541   1.621  0.00  0.00    +0.127 A 
ATOM     16  N   UNL     1      -2.348  -6.564   2.444  0.00  0.00    -0.280 N 
ATOM     17  C   UNL     1      -1.199  -7.218   2.196  0.00  0.00    +0.331 A 
ATOM     18  O   UNL     1      -0.853  -8.119   2.936  0.00  0.00    -0.246 OA
ATOM     19  N   UNL     1      -0.425  -6.894   1.145  0.00  0.00    -0.273 N 
ATOM     20  H   UNL     1       0.399  -7.381   0.988  0.00  0.00    +0.173 HD
ATOM     21  C   UNL     1      -0.784  -5.904   0.305  0.00  0.00    +0.277 A 
ATOM     22  O   UNL     1      -0.078  -5.621  -0.648  0.00  0.00    -0.266 OA
BRANCH  15  23
ATOM     23  N   UNL     1      -3.932  -4.872   1.876  0.00  0.00    -0.343 N 
ATOM     24  H   UNL     1      -4.269  -4.225   1.237  0.00  0.00    +0.144 HD
ATOM     25  H   UNL     1      -4.422  -5.048   2.694  0.00  0.00    +0.144 HD
ENDBRANCH  15  23
BRANCH  16  26
ATOM     26  C   UNL     1      -3.167  -6.943   3.598  0.00  0.00    +0.128 C 
BRANCH  26  27
ATOM     27  C   UNL     1      -4.168  -8.022   3.180  0.00  0.00    +0.021 C 
BRANCH  27  28
ATOM     28  C   UNL     1      -5.024  -8.418   4.386  0.00  0.00    -0.002 C 
ATOM     29  C   UNL     1      -6.025  -9.496   3.968  0.00  0.00    +0.004 C 
ENDBRANCH  27  28
ENDBRANCH  26  27
ENDBRANCH  16  26
ENDBRANCH   1  14
BRANCH   1  30
ATOM     30  C   UNL     1      -2.296  -2.758   0.128  0.00  0.00    +0.114 C 
BRANCH  30  31
ATOM     31  C   UNL     1      -0.945  -2.163  -0.274  0.00  0.00    +0.019 C 
BRANCH  31  32
ATOM     32  C   UNL     1      -0.887  -0.695   0.152  0.00  0.00    +0.001 C 
BRANCH  32  34
ATOM     33  C   UNL     1       0.522   1.369   0.177  0.00  0.00    +0.004 C 
ATOM     34  C   UNL     1       0.464  -0.100  -0.250  0.00  0.00    -0.003 C 
ENDBRANCH  32  34
ENDBRANCH  31  32
ENDBRANCH  30  31
ENDBRANCH   1  30
TORSDOF 10
