REMARK  Name = ZINC10051077
REMARK  10 active torsions:
REMARK  status: ('A' for Active; 'I' for Inactive)
REMARK    1  A    between atoms: C_1  and  C_2
REMARK    2  A    between atoms: C_7  and  N_8
REMARK    3  A    between atoms: C_9  and  C_11
REMARK    4  A    between atoms: C_11  and  O_12
REMARK    5  A    between atoms: O_12  and  C_13
REMARK    6  A    between atoms: C_13  and  C_15
REMARK    7  A    between atoms: C_17  and  N_24
REMARK    8  A    between atoms: C_20  and  N_21
REMARK    9  A    between atoms: N_21  and  C_22
REMARK   10  A    between atoms: N_21  and  C_23
REMARK                            x       y       z     vdW  Elec       q    Type
REMARK                         _______ _______ _______ _____ _____    ______ ____
ROOT
ATOM      1  O   UNL     1       2.382   5.303  -0.009  0.00  0.00    -0.452 OA
ENDROOT
BRANCH   1   2
ATOM      2  C   UNL     1       2.414   3.955  -0.027  0.00  0.00    +0.342 C 
ATOM      3  O   UNL     1       3.480   3.373  -0.048  0.00  0.00    -0.245 OA
BRANCH   2   4
ATOM      4  C   UNL     1       1.155   3.189  -0.021  0.00  0.00    +0.082 A 
ATOM      5  C   UNL     1      -0.073   3.856   0.003  0.00  0.00    +0.049 A 
ATOM      6  C   UNL     1      -1.246   3.133   0.009  0.00  0.00    +0.127 A 
ATOM      7  C   UNL     1      -1.216   1.748  -0.015  0.00  0.00    +0.034 A 
ATOM      8  C   UNL     1      -0.011   1.075  -0.033  0.00  0.00    +0.026 A 
ATOM      9  C   UNL     1       1.183   1.786  -0.039  0.00  0.00    +0.043 A 
BRANCH   9  10
ATOM     10  N   UNL     1       2.396   1.112  -0.063  0.00  0.00    -0.335 N 
ATOM     11  C   UNL     1       2.538   0.241   1.111  0.00  0.00    +0.129 C 
ATOM     12  C   UNL     1       2.548   0.346  -1.308  0.00  0.00    +0.129 C 
ENDBRANCH   9  10
BRANCH   6  13
ATOM     13  N   UNL     1      -2.546   3.841   0.034  0.00  0.00    +0.056 N 
ATOM     14  O   UNL     1      -2.577   5.058   0.049  0.00  0.00    -0.126 OA
ATOM     15  O   UNL     1      -3.585   3.205   0.038  0.00  0.00    -0.126 OA
ENDBRANCH   6  13
ENDBRANCH   2   4
ENDBRANCH   1   2
BRANCH   1  16
ATOM     16  C   UNL     1       3.660   5.992  -0.017  0.00  0.00    +0.328 C 
BRANCH  16  18
ATOM     17  N   UNL     1       4.478   8.326   0.003  0.00  0.00    -0.282 N 
ATOM     18  C   UNL     1       3.429   7.481   0.005  0.00  0.00    +0.255 C 
ATOM     19  O   UNL     1       2.297   7.918   0.026  0.00  0.00    -0.272 OA
ATOM     20  H   UNL     1       5.381   7.978   0.067  0.00  0.00    +0.155 HD
BRANCH  17  27
ATOM     21  C   UNL     1       6.465  10.069   1.057  0.00  0.00    +0.046 C 
ATOM     22  C   UNL     1       5.209  10.592   0.408  0.00  0.00    -0.028 A 
ATOM     23  C   UNL     1       4.998  11.954   0.307  0.00  0.00    +0.020 A 
ATOM     24  C   UNL     1       3.842  12.434  -0.283  0.00  0.00    +0.018 A 
ATOM     25  C   UNL     1       2.898  11.553  -0.778  0.00  0.00    +0.017 A 
ATOM     26  C   UNL     1       3.106  10.191  -0.685  0.00  0.00    +0.024 A 
ATOM     27  C   UNL     1       4.265   9.706  -0.093  0.00  0.00    +0.036 A 
ATOM     28 BR   UNL     1       3.554  14.299  -0.412  0.00  0.00    -0.050 Br
ENDBRANCH  17  27
ENDBRANCH  16  18
ENDBRANCH   1  16
TORSDOF 7
