REMARK  Name = ZINC01118239
REMARK  9 active torsions:
REMARK  status: ('A' for Active; 'I' for Inactive)
REMARK    1  A    between atoms: C_1  and  C_2
REMARK    2  A    between atoms: C_5  and  N_9
REMARK    3  A    between atoms: C_6  and  C_8
REMARK    4  A    between atoms: N_9  and  C_10
REMARK    5  A    between atoms: C_10  and  N_12
REMARK    6  A    between atoms: N_12  and  N_13
REMARK    7  A    between atoms: C_14  and  C_16
REMARK    8  A    between atoms: N_19  and  S_22
REMARK    9  A    between atoms: S_22  and  C_25
REMARK                            x       y       z     vdW  Elec       q    Type
REMARK                         _______ _______ _______ _____ _____    ______ ____
ROOT
ATOM      1  N   UNL     1      -3.576   3.450  -0.165  0.00  0.00    -0.235 N 
ATOM      2  C   UNL     1      -4.745   4.114  -0.258  0.00  0.00    +0.232 C 
ATOM      3  O   UNL     1      -5.786   3.499  -0.348  0.00  0.00    -0.274 OA
ATOM      4  H   UNL     1      -2.743   3.942  -0.093  0.00  0.00    +0.173 HD
ENDROOT
BRANCH   2   5
ATOM      5  C   UNL     1      -4.759   5.621  -0.249  0.00  0.00    +0.079 C 
ATOM      6  C   UNL     1      -4.146   6.129   1.058  0.00  0.00    +0.030 C 
ATOM      7  C   UNL     1      -4.130   7.661   1.048  0.00  0.00    +0.110 C 
ATOM      8  N   UNL     1      -5.492   8.147   0.792  0.00  0.00    -0.177 NA
ATOM      9  C   UNL     1      -6.208   7.650  -0.391  0.00  0.00    +0.110 C 
ATOM     10  C   UNL     1      -6.201   6.119  -0.365  0.00  0.00    +0.030 C 
BRANCH   8  11
ATOM     11  S   UNL     1      -6.207   9.233   1.817  0.00  0.00    +0.061 S 
ATOM     12  O   UNL     1      -5.154   9.920   2.479  0.00  0.00    -0.153 OA
ATOM     13  O   UNL     1      -7.202   9.910   1.061  0.00  0.00    -0.153 OA
BRANCH  11  14
ATOM     14  C   UNL     1      -7.057   8.305   3.050  0.00  0.00    +0.106 A 
ATOM     15  C   UNL     1      -8.376   7.941   2.854  0.00  0.00    +0.030 A 
ATOM     16  C   UNL     1      -9.041   7.208   3.819  0.00  0.00    +0.022 A 
ATOM     17  C   UNL     1      -8.390   6.848   4.986  0.00  0.00    +0.041 A 
ATOM     18  C   UNL     1      -7.071   7.217   5.183  0.00  0.00    +0.022 A 
ATOM     19  C   UNL     1      -6.405   7.946   4.215  0.00  0.00    +0.030 A 
ATOM     20 CL   UNL     1      -9.226   5.933   6.200  0.00  0.00    -0.084 Cl
ENDBRANCH  11  14
ENDBRANCH   8  11
ENDBRANCH   2   5
BRANCH   1  21
ATOM     21  N   UNL     1      -3.563   2.049  -0.173  0.00  0.00    -0.246 N 
ATOM     22  H   UNL     1      -4.396   1.557  -0.245  0.00  0.00    +0.172 HD
BRANCH  21  23
ATOM     23  C   UNL     1      -2.394   1.385  -0.081  0.00  0.00    +0.151 C 
ATOM     24  S   UNL     1      -2.378  -0.327  -0.090  0.00  0.00    -0.017 S 
BRANCH  23  25
ATOM     25  N   UNL     1      -1.237   2.069   0.019  0.00  0.00    -0.296 N 
ATOM     26  H   UNL     1      -1.250   3.037   0.088  0.00  0.00    +0.154 HD
BRANCH  25  31
ATOM     27  C   UNL     1       3.702  -0.721   0.023  0.00  0.00    +0.044 C 
ATOM     28  C   UNL     1       2.391   0.021   0.024  0.00  0.00    -0.050 A 
ATOM     29  C   UNL     1       1.356  -0.406   0.836  0.00  0.00    +0.005 A 
ATOM     30  C   UNL     1       0.153   0.272   0.838  0.00  0.00    +0.024 A 
ATOM     31  C   UNL     1      -0.017   1.384   0.024  0.00  0.00    +0.036 A 
ATOM     32  C   UNL     1       1.024   1.810  -0.791  0.00  0.00    -0.029 A 
ATOM     33  C   UNL     1       2.224   1.128  -0.788  0.00  0.00    +0.008 A 
ATOM     34  C   UNL     1       0.843   3.016  -1.677  0.00  0.00    +0.045 C 
ENDBRANCH  25  31
ENDBRANCH  23  25
ENDBRANCH  21  23
ENDBRANCH   1  21
TORSDOF 7
