REMARK  Name = ZINC48302098
REMARK  10 active torsions:
REMARK  status: ('A' for Active; 'I' for Inactive)
REMARK    1  A    between atoms: C_1  and  C_2
REMARK    2  A    between atoms: C_2  and  C_4
REMARK    3  A    between atoms: C_2  and  N_20
REMARK    4  A    between atoms: N_10  and  S_11
REMARK    5  A    between atoms: S_11  and  N_14
REMARK    6  A    between atoms: C_21  and  O_23
REMARK    7  A    between atoms: O_23  and  C_24
REMARK    8  A    between atoms: C_24  and  C_25
REMARK    9  A    between atoms: C_24  and  C_26
REMARK   10  A    between atoms: C_24  and  C_27
REMARK                            x       y       z     vdW  Elec       q    Type
REMARK                         _______ _______ _______ _____ _____    ______ ____
ROOT
ATOM      1  C   UNL     1      -1.039  -0.537   0.085  0.00  0.00    +0.101 C 
ATOM      2  C   UNL     1      -1.652  -0.189   1.445  0.00  0.00    +0.022 C 
ATOM      3  C   UNL     1      -3.012  -0.878   1.578  0.00  0.00    +0.003 C 
ATOM      4  C   UNL     1      -3.952  -0.372   0.481  0.00  0.00    +0.017 C 
ATOM      5  C   UNL     1      -3.364  -0.722  -0.890  0.00  0.00    +0.111 C 
ATOM      6  N   UNL     1      -1.998  -0.188  -0.972  0.00  0.00    -0.162 NA
ENDROOT
BRANCH   6   7
ATOM      7  S   UNL     1      -1.548   0.791  -2.230  0.00  0.00    +0.100 S 
ATOM      8  O   UNL     1      -2.372   1.946  -2.160  0.00  0.00    -0.141 OA
ATOM      9  O   UNL     1      -0.129   0.865  -2.199  0.00  0.00    -0.141 OA
BRANCH   7  10
ATOM     10  N   UNL     1      -1.951   0.005  -3.630  0.00  0.00    -0.166 NA
ATOM     11  C   UNL     1      -1.044  -0.990  -4.218  0.00  0.00    +0.110 C 
ATOM     12  C   UNL     1      -1.817  -2.294  -4.436  0.00  0.00    +0.017 C 
ATOM     13  C   UNL     1      -3.065  -2.008  -5.275  0.00  0.00    +0.003 C 
ATOM     14  C   UNL     1      -3.972  -1.028  -4.526  0.00  0.00    +0.017 C 
ATOM     15  C   UNL     1      -3.225   0.286  -4.306  0.00  0.00    +0.110 C 
ENDBRANCH   7  10
ENDBRANCH   6   7
BRANCH   1  17
ATOM     16  C   UNL     1      -0.054   1.755  -0.059  0.00  0.00    +0.029 C 
ATOM     17  C   UNL     1       0.254   0.257  -0.112  0.00  0.00    +0.092 C 
BRANCH  17  18
ATOM     18  N   UNL     1       1.204  -0.085   0.949  0.00  0.00    -0.277 N 
ATOM     19  C   UNL     1       2.527   0.063   0.743  0.00  0.00    +0.401 C 
ATOM     20  O   UNL     1       2.933   0.480  -0.324  0.00  0.00    -0.226 OA
ATOM     21  H   UNL     1       0.880  -0.417   1.801  0.00  0.00    +0.152 HD
BRANCH  19  22
ATOM     22  O   UNL     1       3.401  -0.251   1.718  0.00  0.00    -0.445 OA
BRANCH  22  23
ATOM     23  C   UNL     1       4.788  -0.069   1.430  0.00  0.00    +0.107 C 
ATOM     24  C   UNL     1       5.053   1.401   1.100  0.00  0.00    +0.055 C 
ATOM     25  C   UNL     1       5.620  -0.475   2.649  0.00  0.00    +0.055 C 
ATOM     26  C   UNL     1       5.179  -0.939   0.234  0.00  0.00    +0.055 C 
ENDBRANCH  22  23
ENDBRANCH  19  22
ENDBRANCH  17  18
ENDBRANCH   1  17
TORSDOF 6
