REMARK  Name = ZINC05722675
REMARK  7 active torsions:
REMARK  status: ('A' for Active; 'I' for Inactive)
REMARK    1  A    between atoms: C_1  and  C_2
REMARK    2  A    between atoms: C_2  and  C_4
REMARK    3  A    between atoms: C_2  and  O_17
REMARK    4  A    between atoms: N_6  and  N_7
REMARK    5  A    between atoms: C_8  and  C_9
REMARK    6  A    between atoms: C_12  and  N_14
REMARK    7  A    between atoms: O_17  and  C_18
REMARK                            x       y       z     vdW  Elec       q    Type
REMARK                         _______ _______ _______ _____ _____    ______ ____
ROOT
ATOM      1  C   UNL     1       0.321  -5.103   0.223  0.00  0.00    +0.273 C 
ATOM      2  O   UNL     1      -0.856  -4.874   0.405  0.00  0.00    -0.270 OA
ATOM      3  N   UNL     1       1.217  -4.097   0.259  0.00  0.00    -0.204 N 
ATOM      4  H   UNL     1       2.158  -4.281   0.114  0.00  0.00    +0.177 HD
ENDROOT
BRANCH   1   6
ATOM      5  C   UNL     1       1.673  -6.985   1.105  0.00  0.00    +0.062 C 
ATOM      6  C   UNL     1       0.781  -6.513  -0.044  0.00  0.00    +0.257 C 
BRANCH   6   7
ATOM      7  O   UNL     1      -0.355  -7.373  -0.149  0.00  0.00    -0.480 OA
BRANCH   7   8
ATOM      8  C   UNL     1      -0.201  -8.515  -0.870  0.00  0.00    +0.123 A 
ATOM      9  C   UNL     1       1.046  -8.854  -1.375  0.00  0.00    +0.046 A 
ATOM     10  C   UNL     1       1.202 -10.017  -2.104  0.00  0.00    +0.005 A 
ATOM     11  C   UNL     1       0.115 -10.839  -2.338  0.00  0.00    +0.015 A 
ATOM     12  C   UNL     1      -1.130 -10.501  -1.840  0.00  0.00    +0.021 A 
ATOM     13  C   UNL     1      -1.290  -9.340  -1.106  0.00  0.00    +0.061 A 
ATOM     14 BR   UNL     1      -2.615 -11.627  -2.163  0.00  0.00    -0.050 Br
ENDBRANCH   7   8
ENDBRANCH   6   7
ENDBRANCH   1   6
BRANCH   3  15
ATOM     15  N   UNL     1       0.789  -2.787   0.507  0.00  0.00    -0.185 NA
ATOM     16  C   UNL     1       1.657  -1.812   0.543  0.00  0.00    +0.176 C 
BRANCH  16  17
ATOM     17  C   UNL     1       1.224  -0.485   0.794  0.00  0.00    +0.150 A 
ATOM     18  C   UNL     1       2.031   0.637   0.859  0.00  0.00    +0.053 A 
ATOM     19  C   UNL     1       1.184   1.721   1.127  0.00  0.00    +0.076 A 
ATOM     20  C   UNL     1      -0.076   1.234   1.213  0.00  0.00    +0.280 A 
ATOM     21  O   UNL     1      -0.047  -0.092   1.012  0.00  0.00    -0.433 OA
BRANCH  20  22
ATOM     22  N   UNL     1      -1.347   2.073   1.492  0.00  0.00    +0.093 N 
ATOM     23  O   UNL     1      -1.257   3.276   1.660  0.00  0.00    -0.123 OA
ATOM     24  O   UNL     1      -2.436   1.530   1.544  0.00  0.00    -0.123 OA
ENDBRANCH  20  22
ENDBRANCH  16  17
ENDBRANCH   3  15
TORSDOF 6
