REMARK  Name = ZINC06642405
REMARK  4 active torsions:
REMARK  status: ('A' for Active; 'I' for Inactive)
REMARK    1  A    between atoms: C_1  and  O_2
REMARK    2  A    between atoms: O_2  and  C_3
REMARK    3  A    between atoms: C_10  and  C_19
REMARK    4  A    between atoms: C_22  and  N_25
REMARK                            x       y       z     vdW  Elec       q    Type
REMARK                         _______ _______ _______ _____ _____    ______ ____
ROOT
ATOM      1  C   UNL     1       1.145   1.867  -3.619  0.00  0.00    +0.141 A 
ATOM      2  C   UNL     1       0.213   2.233  -4.572  0.00  0.00    +0.049 A 
ATOM      3  C   UNL     1      -1.109   2.406  -4.208  0.00  0.00    +0.024 A 
ATOM      4  C   UNL     1      -1.496   2.213  -2.897  0.00  0.00    +0.047 A 
ATOM      5  C   UNL     1      -0.568   1.844  -1.929  0.00  0.00    +0.002 A 
ATOM      6  C   UNL     1       0.755   1.670  -2.290  0.00  0.00    +0.075 A 
ATOM      7  N   UNL     1       1.736   1.298  -1.367  0.00  0.00    -0.334 N 
ATOM      8  C   UNL     1       1.391   1.696  -0.002  0.00  0.00    +0.105 C 
ATOM      9  C   UNL     1       0.049   1.071   0.385  0.00  0.00    +0.029 C 
ATOM     10  C   UNL     1      -1.051   1.638  -0.538  0.00  0.00    +0.050 C 
ATOM     11  C   UNL     1      -1.409   2.967   0.087  0.00  0.00    -0.023 C 
ATOM     12  C   UNL     1      -1.049   2.993   1.346  0.00  0.00    -0.030 C 
ATOM     13  C   UNL     1      -0.383   1.679   1.750  0.00  0.00    +0.033 C 
ATOM     14 CL   UNL     1      -3.160   2.432  -2.451  0.00  0.00    -0.083 Cl
ATOM     15  H   UNL     1       1.924   0.308  -1.419  0.00  0.00    +0.147 HD
ENDROOT
BRANCH   8  16
ATOM     16  C   UNL     1       1.286   3.198   0.072  0.00  0.00    -0.027 A 
ATOM     17  C   UNL     1       1.107   3.936  -1.082  0.00  0.00    +0.008 A 
ATOM     18  C   UNL     1       1.006   5.313  -1.013  0.00  0.00    +0.033 A 
ATOM     19  C   UNL     1       1.095   5.952   0.209  0.00  0.00    +0.126 A 
ATOM     20  C   UNL     1       1.280   5.214   1.363  0.00  0.00    +0.033 A 
ATOM     21  C   UNL     1       1.376   3.837   1.295  0.00  0.00    +0.008 A 
BRANCH  19  22
ATOM     22  N   UNL     1       0.992   7.427   0.283  0.00  0.00    +0.056 N 
ATOM     23  O   UNL     1       1.069   7.990   1.360  0.00  0.00    -0.126 OA
ATOM     24  O   UNL     1       0.829   8.078  -0.734  0.00  0.00    -0.126 OA
ENDBRANCH  19  22
ENDBRANCH   8  16
BRANCH   1  26
ATOM     25  C   UNL     1       2.778   1.913  -5.348  0.00  0.00    +0.277 C 
ATOM     26  O   UNL     1       2.447   1.697  -3.974  0.00  0.00    -0.493 OA
ENDBRANCH   1  26
TORSDOF 3
