REMARK  Name = ZINC08908701
REMARK  7 active torsions:
REMARK  status: ('A' for Active; 'I' for Inactive)
REMARK    1  A    between atoms: C_3  and  N_10
REMARK    2  A    between atoms: C_5  and  N_7
REMARK    3  A    between atoms: C_11  and  C_13
REMARK    4  A    between atoms: C_13  and  S_14
REMARK    5  A    between atoms: S_14  and  C_15
REMARK    6  A    between atoms: C_21  and  C_23
REMARK    7  A    between atoms: N_28  and  C_30
REMARK                            x       y       z     vdW  Elec       q    Type
REMARK                         _______ _______ _______ _____ _____    ______ ____
ROOT
ATOM      1  C   UNL     1       6.109   6.759  -0.435  0.00  0.00    +0.160 A 
ATOM      2  N   UNL     1       7.311   6.201  -0.458  0.00  0.00    -0.133 NA
ATOM      3  N   UNL     1       8.363   6.887  -0.571  0.00  0.00    -0.125 NA
ATOM      4  C   UNL     1       8.332   8.206  -0.675  0.00  0.00    +0.189 A 
ATOM      5  S   UNL     1       6.565   8.482  -0.606  0.00  0.00    -0.024 S 
ATOM      6  N   UNL     1       9.377   9.118  -0.805  0.00  0.00    -0.263 N 
ATOM      7  C   UNL     1      10.652   8.682  -0.842  0.00  0.00    +0.224 C 
ATOM      8  O   UNL     1      10.889   7.495  -0.761  0.00  0.00    -0.275 OA
ATOM      9  H   UNL     1       9.187  10.067  -0.870  0.00  0.00    +0.157 HD
ENDROOT
BRANCH   7  10
ATOM     10  C   UNL     1      11.782   9.669  -0.984  0.00  0.00    +0.102 C 
ATOM     11  C   UNL     1      11.714  10.396  -2.347  0.00  0.00    +0.110 C 
ATOM     12  C   UNL     1      13.162  10.550  -2.757  0.00  0.00    +0.221 C 
ATOM     13  O   UNL     1      13.564  11.305  -3.617  0.00  0.00    -0.275 OA
ATOM     14  N   UNL     1      13.939   9.729  -2.029  0.00  0.00    -0.271 N 
ATOM     15  C   UNL     1      13.142   8.942  -1.080  0.00  0.00    +0.127 C 
BRANCH  14  16
ATOM     16  C   UNL     1      15.330   9.636  -2.159  0.00  0.00    +0.036 A 
ATOM     17  C   UNL     1      16.010  10.512  -2.995  0.00  0.00    +0.026 A 
ATOM     18  C   UNL     1      17.382  10.419  -3.122  0.00  0.00    +0.040 A 
ATOM     19  C   UNL     1      18.080   9.454  -2.415  0.00  0.00    +0.124 A 
ATOM     20  C   UNL     1      17.404   8.580  -1.581  0.00  0.00    +0.040 A 
ATOM     21  C   UNL     1      16.032   8.673  -1.447  0.00  0.00    +0.026 A 
ATOM     22  F   UNL     1      19.422   9.364  -2.541  0.00  0.00    -0.205 F 
ENDBRANCH  14  16
ENDBRANCH   7  10
BRANCH   1  23
ATOM     23  S   UNL     1       4.518   6.017  -0.287  0.00  0.00    -0.088 S 
BRANCH  23  24
ATOM     24  C   UNL     1       4.872   4.243  -0.155  0.00  0.00    +0.172 C 
BRANCH  24  26
ATOM     25  N   UNL     1       3.595   2.139   0.092  0.00  0.00    -0.285 N 
ATOM     26  C   UNL     1       3.578   3.481  -0.021  0.00  0.00    +0.227 C 
ATOM     27  O   UNL     1       2.522   4.077  -0.015  0.00  0.00    -0.275 OA
ATOM     28  H   UNL     1       4.441   1.669   0.164  0.00  0.00    +0.155 HD
BRANCH  25  31
ATOM     29  C   UNL     1       0.123   1.161  -0.621  0.00  0.00    +0.004 A 
ATOM     30  C   UNL     1       1.308   1.871  -0.635  0.00  0.00    +0.023 A 
ATOM     31  C   UNL     1       2.394   1.422   0.105  0.00  0.00    +0.036 A 
ATOM     32  C   UNL     1       2.284   0.260   0.857  0.00  0.00    +0.056 A 
ATOM     33  C   UNL     1       1.097  -0.445   0.868  0.00  0.00    +0.128 A 
ATOM     34  C   UNL     1       0.017   0.005   0.130  0.00  0.00    +0.033 A 
BRANCH  33  35
ATOM     35  N   UNL     1       0.979  -1.684   1.670  0.00  0.00    +0.056 N 
ATOM     36  O   UNL     1       1.923  -2.078   2.315  0.00  0.00    -0.126 OA
ATOM     37  O   UNL     1      -0.060  -2.301   1.679  0.00  0.00    -0.126 OA
ENDBRANCH  33  35
ENDBRANCH  25  31
ENDBRANCH  24  26
ENDBRANCH  23  24
ENDBRANCH   1  23
TORSDOF 7
