REMARK  Name = ZINC01047478
REMARK  10 active torsions:
REMARK  status: ('A' for Active; 'I' for Inactive)
REMARK    1  A    between atoms: C_1  and  C_2
REMARK    2  A    between atoms: C_2  and  C_3
REMARK    3  A    between atoms: C_2  and  C_4
REMARK    4  A    between atoms: C_2  and  C_5
REMARK    5  A    between atoms: C_8  and  C_11
REMARK    6  A    between atoms: N_14  and  C_16
REMARK    7  A    between atoms: C_16  and  C_17
REMARK    8  A    between atoms: N_19  and  N_20
REMARK    9  A    between atoms: N_20  and  S_21
REMARK   10  A    between atoms: S_21  and  C_24
REMARK                            x       y       z     vdW  Elec       q    Type
REMARK                         _______ _______ _______ _____ _____    ______ ____
ROOT
ATOM      1  C   UNL     1      -1.199   5.303  -2.869  0.00  0.00    +0.265 C 
ENDROOT
BRANCH   1   5
ATOM      2  C   UNL     1       0.476   6.467  -5.749  0.00  0.00    +0.205 A 
ATOM      3  N   UNL     1      -0.716   6.118  -6.254  0.00  0.00    -0.108 NA
ATOM      4  N   UNL     1      -1.429   5.669  -5.277  0.00  0.00    -0.045 NA
ATOM      5  N   UNL     1      -0.736   5.723  -4.194  0.00  0.00    -0.154 N 
ATOM      6  N   UNL     1       0.427   6.212  -4.456  0.00  0.00    -0.130 NA
BRANCH   2  10
ATOM      7  C   UNL     1       3.765   8.099  -7.895  0.00  0.00    -0.042 A 
ATOM      8  C   UNL     1       2.594   7.787  -8.561  0.00  0.00    +0.005 A 
ATOM      9  C   UNL     1       1.524   7.257  -7.870  0.00  0.00    +0.012 A 
ATOM     10  C   UNL     1       1.624   7.036  -6.498  0.00  0.00    +0.023 A 
ATOM     11  C   UNL     1       2.804   7.357  -5.830  0.00  0.00    +0.012 A 
ATOM     12  C   UNL     1       3.870   7.882  -6.532  0.00  0.00    +0.005 A 
BRANCH   7  14
ATOM     13  C   UNL     1       4.511   9.997  -9.305  0.00  0.00    +0.015 C 
ATOM     14  C   UNL     1       4.931   8.677  -8.655  0.00  0.00    -0.013 C 
ATOM     15  C   UNL     1       6.093   8.930  -7.692  0.00  0.00    +0.015 C 
ATOM     16  C   UNL     1       5.372   7.692  -9.739  0.00  0.00    +0.015 C 
ENDBRANCH   7  14
ENDBRANCH   2  10
ENDBRANCH   1   5
BRANCH   1  17
ATOM     17  C   UNL     1      -0.870   3.847  -2.661  0.00  0.00    +0.251 C 
ATOM     18  O   UNL     1      -0.303   3.223  -3.533  0.00  0.00    -0.272 OA
ATOM     19  N   UNL     1      -1.204   3.239  -1.506  0.00  0.00    -0.230 N 
ATOM     20  H   UNL     1      -1.657   3.738  -0.808  0.00  0.00    +0.171 HD
BRANCH  19  21
ATOM     21  N   UNL     1      -0.897   1.885  -1.312  0.00  0.00    -0.108 NA
ATOM     22  H   UNL     1      -1.201   1.223  -1.952  0.00  0.00    +0.172 HD
BRANCH  21  23
ATOM     23  S   UNL     1      -0.017   1.417   0.010  0.00  0.00    +0.074 S 
ATOM     24  O   UNL     1       0.002  -0.004   0.002  0.00  0.00    -0.152 OA
ATOM     25  O   UNL     1       1.172   2.195   0.003  0.00  0.00    -0.152 OA
BRANCH  23  26
ATOM     26  C   UNL     1      -0.927   1.900   1.439  0.00  0.00    +0.107 A 
ATOM     27  C   UNL     1      -0.717   3.145   2.004  0.00  0.00    +0.030 A 
ATOM     28  C   UNL     1      -1.434   3.527   3.122  0.00  0.00    +0.022 A 
ATOM     29  C   UNL     1      -2.354   2.659   3.683  0.00  0.00    +0.041 A 
ATOM     30  C   UNL     1      -2.559   1.411   3.121  0.00  0.00    +0.022 A 
ATOM     31  C   UNL     1      -1.846   1.033   2.000  0.00  0.00    +0.030 A 
ATOM     32 CL   UNL     1      -3.251   3.135   5.091  0.00  0.00    -0.084 Cl
ENDBRANCH  23  26
ENDBRANCH  21  23
ENDBRANCH  19  21
ENDBRANCH   1  17
TORSDOF 7
