REMARK  Name = ZINC08816353
REMARK  11 active torsions:
REMARK  status: ('A' for Active; 'I' for Inactive)
REMARK    1  A    between atoms: C_1  and  C_2
REMARK    2  A    between atoms: N_6  and  C_7
REMARK    3  A    between atoms: C_7  and  C_8
REMARK    4  A    between atoms: C_11  and  C_14
REMARK    5  A    between atoms: N_16  and  N_17
REMARK    6  A    between atoms: C_18  and  C_19
REMARK    7  A    between atoms: C_18  and  C_20
REMARK    8  A    between atoms: C_23  and  O_26
REMARK    9  A    between atoms: O_26  and  C_27
REMARK   10  A    between atoms: C_27  and  C_28
REMARK   11  A    between atoms: C_31  and  C_33
REMARK                            x       y       z     vdW  Elec       q    Type
REMARK                         _______ _______ _______ _____ _____    ______ ____
ROOT
ATOM      1  C   UNL     1      -8.275  -0.919   5.656  0.00  0.00    +0.263 C 
ATOM      2  O   UNL     1      -9.346  -1.475   5.803  0.00  0.00    -0.268 OA
ATOM      3  N   UNL     1      -7.867  -0.558   4.423  0.00  0.00    -0.203 N 
ATOM      4  H   UNL     1      -7.012  -0.115   4.306  0.00  0.00    +0.178 HD
ENDROOT
BRANCH   1   8
ATOM      5  C   UNL     1      -5.821  -0.111   9.027  0.00  0.00    -0.026 A 
ATOM      6  C   UNL     1      -7.039  -0.744   9.198  0.00  0.00    +0.006 A 
ATOM      7  C   UNL     1      -7.841  -1.010   8.107  0.00  0.00    +0.013 A 
ATOM      8  C   UNL     1      -7.421  -0.638   6.829  0.00  0.00    +0.038 A 
ATOM      9  C   UNL     1      -6.188  -0.004   6.663  0.00  0.00    +0.013 A 
ATOM     10  C   UNL     1      -5.398   0.261   7.763  0.00  0.00    +0.006 A 
BRANCH   5  11
ATOM     11  C   UNL     1      -4.950   0.177  10.223  0.00  0.00    +0.179 C 
BRANCH  11  17
ATOM     12  C   UNL     1      -2.121  -0.156   8.999  0.00  0.00    +0.065 C 
ATOM     13  C   UNL     1      -2.819  -1.114   9.931  0.00  0.00    +0.039 A 
ATOM     14  C   UNL     1      -2.321  -2.285  10.390  0.00  0.00    +0.077 A 
ATOM     15  C   UNL     1      -3.283  -2.863  11.226  0.00  0.00    +0.236 A 
ATOM     16  N   UNL     1      -4.318  -2.065  11.271  0.00  0.00    -0.146 NA
ATOM     17  N   UNL     1      -4.052  -0.956  10.457  0.00  0.00    -0.262 N 
ATOM     18  N   UNL     1      -3.149  -4.152  11.941  0.00  0.00    +0.077 N 
ATOM     19  O   UNL     1      -2.130  -4.809  11.826  0.00  0.00    -0.125 OA
ATOM     20  O   UNL     1      -4.058  -4.556  12.644  0.00  0.00    -0.125 OA
ENDBRANCH  11  17
ENDBRANCH   5  11
ENDBRANCH   1   8
BRANCH   3  21
ATOM     21  N   UNL     1      -8.676  -0.825   3.311  0.00  0.00    -0.184 NA
ATOM     22  C   UNL     1      -8.339  -0.377   2.141  0.00  0.00    +0.063 C 
ATOM     23  C   UNL     1      -9.112  -0.804   0.919  0.00  0.00    +0.068 C 
BRANCH  22  24
ATOM     24  C   UNL     1      -7.200   0.549   2.006  0.00  0.00    -0.002 A 
ATOM     25  C   UNL     1      -6.948   1.499   2.999  0.00  0.00    +0.013 A 
ATOM     26  C   UNL     1      -5.882   2.363   2.869  0.00  0.00    +0.046 A 
ATOM     27  C   UNL     1      -5.059   2.291   1.752  0.00  0.00    +0.121 A 
ATOM     28  C   UNL     1      -5.309   1.351   0.759  0.00  0.00    +0.046 A 
ATOM     29  C   UNL     1      -6.369   0.480   0.884  0.00  0.00    +0.013 A 
BRANCH  27  30
ATOM     30  O   UNL     1      -4.010   3.145   1.627  0.00  0.00    -0.484 OA
BRANCH  30  31
ATOM     31  C   UNL     1      -3.204   3.016   0.454  0.00  0.00    +0.303 C 
BRANCH  31  32
ATOM     32  C   UNL     1      -2.098   4.038   0.490  0.00  0.00    +0.143 A 
ATOM     33  C   UNL     1      -0.873   3.854   1.031  0.00  0.00    +0.049 A 
ATOM     34  C   UNL     1      -0.156   5.045   0.846  0.00  0.00    +0.057 A 
ATOM     35  C   UNL     1      -0.992   5.910   0.196  0.00  0.00    +0.216 A 
ATOM     36  O   UNL     1      -2.167   5.279  -0.008  0.00  0.00    -0.450 OA
BRANCH  35  37
ATOM     37  C   UNL     1      -0.668   7.280  -0.207  0.00  0.00    +0.421 C 
ATOM     38  O   UNL     1       0.431   7.742   0.034  0.00  0.00    -0.237 OA
ATOM     39  O   UNL     1      -1.590   8.031  -0.845  0.00  0.00    -0.237 OA
ENDBRANCH  35  37
ENDBRANCH  31  32
ENDBRANCH  30  31
ENDBRANCH  27  30
ENDBRANCH  22  24
ENDBRANCH   3  21
TORSDOF 9
