REMARK  Name = ZINC16178510
REMARK  6 active torsions:
REMARK  status: ('A' for Active; 'I' for Inactive)
REMARK    1  A    between atoms: C_8  and  C_12
REMARK    2  A    between atoms: N_14  and  N_15
REMARK    3  A    between atoms: C_16  and  C_18
REMARK    4  A    between atoms: C_23  and  N_24
REMARK    5  A    between atoms: N_24  and  S_25
REMARK    6  A    between atoms: S_25  and  C_28
REMARK                            x       y       z     vdW  Elec       q    Type
REMARK                         _______ _______ _______ _____ _____    ______ ____
ROOT
ATOM      1  N   UNL     1      -7.236   3.256   0.133  0.00  0.00    -0.230 N 
ATOM      2  C   UNL     1      -8.436   2.760   0.494  0.00  0.00    +0.262 C 
ATOM      3  O   UNL     1      -8.499   1.726   1.131  0.00  0.00    -0.269 OA
ATOM      4  H   UNL     1      -7.186   4.081  -0.375  0.00  0.00    +0.173 HD
ENDROOT
BRANCH   2   5
ATOM      5  C   UNL     1      -9.671   3.470   0.117  0.00  0.00    +0.060 A 
ATOM      6  C   UNL     1      -9.604   4.662  -0.610  0.00  0.00    +0.015 A 
ATOM      7  C   UNL     1     -10.762   5.318  -0.962  0.00  0.00    +0.001 A 
ATOM      8  C   UNL     1     -11.997   4.809  -0.592  0.00  0.00    +0.002 A 
ATOM      9  C   UNL     1     -12.080   3.636   0.130  0.00  0.00    +0.025 A 
ATOM     10  C   UNL     1     -10.923   2.957   0.491  0.00  0.00    +0.060 A 
BRANCH  10  11
ATOM     11  N   UNL     1     -11.005   1.776   1.217  0.00  0.00    -0.215 N 
ATOM     12  H   UNL     1     -10.333   1.571   1.886  0.00  0.00    +0.174 HD
BRANCH  11  13
ATOM     13  S   UNL     1     -12.248   0.718   0.942  0.00  0.00    +0.079 S 
ATOM     14  O   UNL     1     -11.982  -0.436   1.727  0.00  0.00    -0.149 OA
ATOM     15  O   UNL     1     -13.451   1.464   1.067  0.00  0.00    -0.149 OA
BRANCH  13  16
ATOM     16  C   UNL     1     -12.141   0.216  -0.744  0.00  0.00    +0.146 A 
ATOM     17  C   UNL     1     -11.468  -0.831  -1.282  0.00  0.00    +0.036 A 
ATOM     18  C   UNL     1     -11.528  -1.036  -2.647  0.00  0.00    +0.010 A 
ATOM     19  C   UNL     1     -12.258  -0.184  -3.409  0.00  0.00    +0.047 A 
ATOM     20  S   UNL     1     -12.897   0.949  -2.186  0.00  0.00    -0.077 S 
ENDBRANCH  13  16
ENDBRANCH  11  13
ENDBRANCH  10  11
ENDBRANCH   2   5
BRANCH   1  23
ATOM     21  C   UNL     1      -4.862   3.078   0.130  0.00  0.00    +0.236 C 
ATOM     22  O   UNL     1      -4.799   4.109  -0.506  0.00  0.00    -0.274 OA
ATOM     23  N   UNL     1      -6.062   2.581   0.491  0.00  0.00    -0.234 N 
ATOM     24  H   UNL     1      -6.112   1.756   0.999  0.00  0.00    +0.173 HD
BRANCH  21  32
ATOM     25  C   UNL     1       1.244   2.105   0.143  0.00  0.00    +0.000 A 
ATOM     26  C   UNL     1       1.156   0.734   0.307  0.00  0.00    +0.004 A 
ATOM     27  C   UNL     1      -0.080   0.126   0.373  0.00  0.00    +0.046 A 
ATOM     28  C   UNL     1      -1.241   0.886   0.269  0.00  0.00    +0.124 A 
ATOM     29  C   UNL     1      -1.150   2.257   0.107  0.00  0.00    -0.005 A 
ATOM     30  C   UNL     1       0.094   2.863   0.043  0.00  0.00    +0.007 A 
ATOM     31  C   UNL     1      -2.383   3.118  -0.012  0.00  0.00    +0.055 C 
ATOM     32  C   UNL     1      -3.599   2.352   0.515  0.00  0.00    +0.118 C 
ATOM     33  C   UNL     1      -3.596   0.952  -0.112  0.00  0.00    +0.242 C 
ATOM     34  O   UNL     1      -2.440   0.253   0.353  0.00  0.00    -0.491 OA
ENDBRANCH  21  32
ENDBRANCH   1  23
TORSDOF 6
