REMARK  Name = ZINC13079154
REMARK  10 active torsions:
REMARK  status: ('A' for Active; 'I' for Inactive)
REMARK    1  A    between atoms: C_1  and  C_2
REMARK    2  A    between atoms: C_4  and  C_30
REMARK    3  A    between atoms: C_6  and  S_9
REMARK    4  A    between atoms: C_7  and  C_8
REMARK    5  A    between atoms: S_9  and  N_12
REMARK    6  A    between atoms: N_12  and  C_13
REMARK    7  A    between atoms: C_16  and  S_19
REMARK    8  A    between atoms: S_19  and  N_22
REMARK    9  A    between atoms: N_22  and  C_23
REMARK   10  A    between atoms: N_22  and  C_24
REMARK                            x       y       z     vdW  Elec       q    Type
REMARK                         _______ _______ _______ _____ _____    ______ ____
ROOT
ATOM      1  C   UNL     1       0.126   1.456   0.023  0.00  0.00    +0.048 A 
ATOM      2  C   UNL     1       1.272   2.237   0.095  0.00  0.00    +0.026 A 
ATOM      3  C   UNL     1       2.516   1.636   0.092  0.00  0.00    +0.030 A 
ATOM      4  C   UNL     1       2.620   0.259   0.018  0.00  0.00    +0.106 A 
ATOM      5  C   UNL     1       1.481  -0.521  -0.053  0.00  0.00    +0.030 A 
ATOM      6  C   UNL     1       0.234   0.073  -0.051  0.00  0.00    +0.026 A 
ENDROOT
BRANCH   4   7
ATOM      7  S   UNL     1       4.209  -0.503   0.014  0.00  0.00    +0.061 S 
ATOM      8  O   UNL     1       5.100   0.412   0.638  0.00  0.00    -0.153 OA
ATOM      9  O   UNL     1       4.024  -1.830   0.487  0.00  0.00    -0.153 OA
BRANCH   7  10
ATOM     10  N   UNL     1       4.689  -0.626  -1.567  0.00  0.00    -0.177 NA
ATOM     11  C   UNL     1       5.449   0.461  -2.189  0.00  0.00    +0.132 C 
BRANCH  10  12
ATOM     12  C   UNL     1       4.353  -1.823  -2.342  0.00  0.00    +0.080 C 
ATOM     13  C   UNL     1       5.640  -2.498  -2.821  0.00  0.00    +0.020 C 
ATOM     14  C   UNL     1       5.289  -3.748  -3.631  0.00  0.00    +0.002 C 
ATOM     15  C   UNL     1       4.442  -3.350  -4.841  0.00  0.00    +0.000 C 
ATOM     16  C   UNL     1       3.155  -2.674  -4.363  0.00  0.00    +0.002 C 
ATOM     17  C   UNL     1       3.506  -1.425  -3.553  0.00  0.00    +0.020 C 
ENDBRANCH  10  12
ENDBRANCH   7  10
ENDBRANCH   4   7
BRANCH   1  18
ATOM     18  N   UNL     1      -1.133   2.060   0.021  0.00  0.00    -0.216 N 
ATOM     19  H   UNL     1      -1.804   1.782  -0.623  0.00  0.00    +0.174 HD
BRANCH  18  20
ATOM     20  S   UNL     1      -1.482   3.253   1.116  0.00  0.00    +0.073 S 
ATOM     21  O   UNL     1      -0.443   4.216   1.011  0.00  0.00    -0.150 OA
ATOM     22  O   UNL     1      -2.852   3.585   0.931  0.00  0.00    -0.150 OA
BRANCH  20  28
ATOM     23  C   UNL     1      -3.034  -0.165   4.752  0.00  0.00    +0.044 C 
ATOM     24  C   UNL     1      -2.102   0.950   4.354  0.00  0.00    -0.045 A 
ATOM     25  C   UNL     1      -1.153   1.406   5.246  0.00  0.00    +0.018 A 
ATOM     26  C   UNL     1      -0.291   2.440   4.876  0.00  0.00    +0.065 A 
ATOM     27  C   UNL     1      -0.396   3.005   3.603  0.00  0.00    +0.044 A 
ATOM     28  C   UNL     1      -1.349   2.540   2.722  0.00  0.00    +0.112 A 
ATOM     29  C   UNL     1      -2.204   1.519   3.097  0.00  0.00    -0.021 A 
ATOM     30  C   UNL     1      -3.246   1.020   2.130  0.00  0.00    +0.046 C 
BRANCH  26  31
ATOM     31  C   UNL     1       0.727   2.933   5.826  0.00  0.00    +0.387 C 
ATOM     32  O   UNL     1       1.475   3.833   5.501  0.00  0.00    -0.241 OA
ATOM     33  O   UNL     1       0.825   2.385   7.053  0.00  0.00    -0.241 OA
ENDBRANCH  26  31
ENDBRANCH  20  28
ENDBRANCH  18  20
ENDBRANCH   1  18
TORSDOF 7
