REMARK  Name = ZINC48808666
REMARK  9 active torsions:
REMARK  status: ('A' for Active; 'I' for Inactive)
REMARK    1  A    between atoms: C_1  and  C_2
REMARK    2  A    between atoms: C_2  and  C_4
REMARK    3  A    between atoms: C_2  and  N_13
REMARK    4  A    between atoms: C_7  and  C_10
REMARK    5  A    between atoms: C_10  and  C_11
REMARK    6  A    between atoms: C_10  and  C_12
REMARK    7  A    between atoms: C_14  and  C_16
REMARK    8  A    between atoms: N_18  and  C_19
REMARK    9  A    between atoms: C_22  and  N_25
REMARK                            x       y       z     vdW  Elec       q    Type
REMARK                         _______ _______ _______ _____ _____    ______ ____
ROOT
ATOM      1  C   UNL     1       2.729  -1.081  -2.438  0.00  0.00    +0.303 C 
ATOM      2  O   UNL     1       2.085  -1.393  -3.418  0.00  0.00    -0.265 OA
ATOM      3  N   UNL     1       4.073  -1.179  -2.455  0.00  0.00    -0.278 N 
ATOM      4  H   UNL     1       4.592  -0.869  -1.696  0.00  0.00    +0.155 HD
ENDROOT
BRANCH   3   5
ATOM      5  C   UNL     1       4.720  -1.728  -3.567  0.00  0.00    +0.034 A 
ATOM      6  C   UNL     1       5.866  -2.495  -3.396  0.00  0.00    +0.025 A 
ATOM      7  C   UNL     1       6.504  -3.036  -4.493  0.00  0.00    +0.025 A 
ATOM      8  C   UNL     1       6.001  -2.815  -5.768  0.00  0.00    +0.038 A 
ATOM      9  C   UNL     1       4.856  -2.048  -5.940  0.00  0.00    +0.025 A 
ATOM     10  C   UNL     1       4.214  -1.511  -4.843  0.00  0.00    +0.025 A 
BRANCH   8  11
ATOM     11  N   UNL     1       6.649  -3.364  -6.882  0.00  0.00    -0.254 N 
ATOM     12  C   UNL     1       6.295  -3.108  -8.286  0.00  0.00    +0.134 C 
ATOM     13  C   UNL     1       7.312  -3.949  -9.082  0.00  0.00    +0.125 C 
ATOM     14  N   UNL     1       8.131  -4.589  -8.042  0.00  0.00    -0.297 N 
ATOM     15  C   UNL     1       7.694  -4.201  -6.837  0.00  0.00    +0.307 C 
ATOM     16  O   UNL     1       8.198  -4.577  -5.796  0.00  0.00    -0.252 OA
ATOM     17  H   UNL     1       8.873  -5.193  -8.204  0.00  0.00    +0.150 HD
ENDBRANCH   8  11
ENDBRANCH   3   5
BRANCH   1  19
ATOM     18  N   UNL     1       0.688  -0.489  -1.196  0.00  0.00    -0.301 N 
ATOM     19  C   UNL     1       2.032  -0.587  -1.213  0.00  0.00    +0.300 C 
ATOM     20  O   UNL     1       2.676  -0.275  -0.233  0.00  0.00    -0.265 OA
ATOM     21  H   UNL     1       0.173  -0.739  -1.979  0.00  0.00    +0.150 HD
BRANCH  18  23
ATOM     22  C   UNL     1      -0.031   1.525  -0.008  0.00  0.00    +0.033 C 
ATOM     23  C   UNL     1       0.004  -0.005   0.006  0.00  0.00    +0.101 C 
BRANCH  23  24
ATOM     24  C   UNL     1      -1.405  -0.539   0.032  0.00  0.00    -0.027 A 
ATOM     25  C   UNL     1      -2.140  -0.607  -1.137  0.00  0.00    +0.006 A 
ATOM     26  C   UNL     1      -3.432  -1.097  -1.113  0.00  0.00    +0.004 A 
ATOM     27  C   UNL     1      -3.989  -1.520   0.079  0.00  0.00    -0.045 A 
ATOM     28  C   UNL     1      -3.254  -1.454   1.248  0.00  0.00    +0.004 A 
ATOM     29  C   UNL     1      -1.960  -0.967   1.223  0.00  0.00    +0.006 A 
BRANCH  27  30
ATOM     30  C   UNL     1      -5.398  -2.053   0.105  0.00  0.00    +0.013 C 
ATOM     31  C   UNL     1      -5.389  -3.495   0.618  0.00  0.00    +0.012 C 
ATOM     32  C   UNL     1      -6.254  -1.188   1.033  0.00  0.00    +0.012 C 
ENDBRANCH  27  30
ENDBRANCH  23  24
ENDBRANCH  18  23
ENDBRANCH   1  19
TORSDOF 6
