REMARK  Name = ZINC33033728
REMARK  7 active torsions:
REMARK  status: ('A' for Active; 'I' for Inactive)
REMARK    1  A    between atoms: C_3  and  N_29
REMARK    2  A    between atoms: C_4  and  N_17
REMARK    3  A    between atoms: C_6  and  C_7
REMARK    4  A    between atoms: N_9  and  C_10
REMARK    5  A    between atoms: C_10  and  C_11
REMARK    6  A    between atoms: N_17  and  S_18
REMARK    7  A    between atoms: S_18  and  C_21
REMARK                            x       y       z     vdW  Elec       q    Type
REMARK                         _______ _______ _______ _____ _____    ______ ____
ROOT
ATOM      1  C   UNL     1      -7.360   2.369   0.361  0.00  0.00    +0.015 A 
ATOM      2  C   UNL     1      -8.646   2.803   0.597  0.00  0.00    +0.026 A 
ATOM      3  C   UNL     1      -9.722   2.149   0.010  0.00  0.00    +0.052 A 
ATOM      4  C   UNL     1      -9.503   1.047  -0.822  0.00  0.00    +0.070 A 
ATOM      5  C   UNL     1      -8.214   0.612  -1.066  0.00  0.00    +0.039 A 
ATOM      6  C   UNL     1      -7.133   1.269  -0.469  0.00  0.00    +0.039 A 
ENDROOT
BRANCH   3   7
ATOM      7  N   UNL     1     -11.021   2.591   0.251  0.00  0.00    -0.332 N 
ATOM      8  C   UNL     1     -11.046   3.589   1.329  0.00  0.00    +0.086 C 
ATOM      9  C   UNL     1     -12.495   3.990   1.617  0.00  0.00    -0.063 C 
ATOM     10  N   UNL     1     -13.104   4.526   0.392  0.00  0.00    +0.381 N 
ATOM     11  C   UNL     1     -13.079   3.528  -0.686  0.00  0.00    -0.063 C 
ATOM     12  C   UNL     1     -11.630   3.128  -0.974  0.00  0.00    +0.086 C 
ATOM     13  H   UNL     1     -14.150   4.803   0.594  0.00  0.00    -0.086 HD
ATOM     14  H   UNL     1     -12.546   5.416   0.064  0.00  0.00    -0.086 HD
ENDBRANCH   3   7
BRANCH   6  15
ATOM     15  C   UNL     1      -5.756   0.805  -0.722  0.00  0.00    +0.244 C 
ATOM     16  O   UNL     1      -5.560  -0.153  -1.445  0.00  0.00    -0.270 OA
ATOM     17  N   UNL     1      -4.715   1.442  -0.150  0.00  0.00    -0.309 N 
ATOM     18  H   UNL     1      -4.892   2.308   0.504  0.00  0.00    +0.149 HD
BRANCH  17  19
ATOM     19  C   UNL     1      -3.347   0.981  -0.401  0.00  0.00    +0.136 C 
BRANCH  19  20
ATOM     20  C   UNL     1      -2.362   1.870   0.360  0.00  0.00    +0.135 C 
ATOM     21  C   UNL     1      -0.916   1.472   0.005  0.00  0.00    +0.035 C 
ATOM     22  C   UNL     1      -0.281   1.094   1.366  0.00  0.00    +0.031 C 
ATOM     23  C   UNL     1      -1.214   1.816   2.372  0.00  0.00    +0.160 C 
ATOM     24  O   UNL     1      -2.522   1.677   1.776  0.00  0.00    -0.375 OA
ENDBRANCH  19  20
ENDBRANCH  17  19
ENDBRANCH   6  15
BRANCH   4  25
ATOM     25  N   UNL     1     -10.588   0.389  -1.413  0.00  0.00    -0.214 N 
ATOM     26  H   UNL     1     -11.024   0.775  -2.346  0.00  0.00    +0.174 HD
BRANCH  25  27
ATOM     27  S   UNL     1     -11.215  -0.972  -0.708  0.00  0.00    +0.072 S 
ATOM     28  O   UNL     1     -12.300  -1.391  -1.525  0.00  0.00    -0.150 OA
ATOM     29  O   UNL     1     -10.114  -1.820  -0.410  0.00  0.00    -0.150 OA
BRANCH  27  30
ATOM     30  C   UNL     1     -11.908  -0.485   0.838  0.00  0.00    +0.110 A 
ATOM     31  C   UNL     1     -13.231  -0.088   0.907  0.00  0.00    +0.032 A 
ATOM     32  C   UNL     1     -13.776   0.294   2.118  0.00  0.00    +0.042 A 
ATOM     33  C   UNL     1     -12.997   0.279   3.263  0.00  0.00    +0.142 A 
ATOM     34  C   UNL     1     -11.672  -0.119   3.193  0.00  0.00    +0.078 A 
ATOM     35  C   UNL     1     -11.131  -0.506   1.980  0.00  0.00    +0.051 A 
ATOM     36 CL   UNL     1     -10.694  -0.138   4.627  0.00  0.00    -0.081 Cl
ATOM     37  F   UNL     1     -13.530   0.652   4.447  0.00  0.00    -0.204 F 
ENDBRANCH  27  30
ENDBRANCH  25  27
ENDBRANCH   4  25
TORSDOF 7
