REMARK  Name = ZINC21264562
REMARK  6 active torsions:
REMARK  status: ('A' for Active; 'I' for Inactive)
REMARK    1  A    between atoms: C_4  and  C_7
REMARK    2  A    between atoms: C_7  and  C_8
REMARK    3  A    between atoms: C_14  and  C_16
REMARK    4  A    between atoms: C_16  and  N_17
REMARK    5  A    between atoms: N_20  and  C_23
REMARK    6  A    between atoms: C_26  and  N_29
REMARK                            x       y       z     vdW  Elec       q    Type
REMARK                         _______ _______ _______ _____ _____    ______ ____
ROOT
ATOM      1  C   UNL     1       4.207  -0.924   1.383  0.00  0.00    +0.108 A 
ATOM      2  N   UNL     1       3.973  -1.957   2.167  0.00  0.00    -0.144 NA
ATOM      3  N   UNL     1       4.451  -1.962   3.337  0.00  0.00    -0.126 NA
ATOM      4  C   UNL     1       5.179  -0.963   3.796  0.00  0.00    +0.188 A 
ATOM      5  S   UNL     1       5.205   0.081   2.473  0.00  0.00    -0.035 S 
ATOM      6  N   UNL     1       5.774  -0.812   5.044  0.00  0.00    -0.262 N 
ATOM      7  C   UNL     1       5.638  -1.776   5.976  0.00  0.00    +0.233 C 
ATOM      8  O   UNL     1       4.997  -2.775   5.726  0.00  0.00    -0.274 OA
ATOM      9  H   UNL     1       6.286  -0.013   5.244  0.00  0.00    +0.157 HD
ENDROOT
BRANCH   1  10
ATOM     10  C   UNL     1       3.764  -0.666  -0.034  0.00  0.00    +0.100 C 
BRANCH  10  14
ATOM     11  C   UNL     1       0.021   1.393  -0.005  0.00  0.00    +0.000 A 
ATOM     12  C   UNL     1       1.204   2.109   0.001  0.00  0.00    +0.000 A 
ATOM     13  C   UNL     1       2.415   1.442  -0.008  0.00  0.00    +0.004 A 
ATOM     14  C   UNL     1       2.443   0.060  -0.023  0.00  0.00    -0.041 A 
ATOM     15  C   UNL     1       1.261  -0.655  -0.029  0.00  0.00    +0.004 A 
ATOM     16  C   UNL     1       0.050   0.011  -0.021  0.00  0.00    +0.000 A 
ENDBRANCH  10  14
ENDBRANCH   1  10
BRANCH   7  17
ATOM     17  C   UNL     1       6.282  -1.613   7.329  0.00  0.00    +0.181 C 
BRANCH  17  18
ATOM     18  N   UNL     1       5.989  -2.791   8.156  0.00  0.00    -0.291 NA
ATOM     19  C   UNL     1       6.622  -3.995   7.602  0.00  0.00    +0.104 C 
ATOM     20  C   UNL     1       6.147  -5.224   8.385  0.00  0.00    +0.120 C 
ATOM     21  N   UNL     1       6.397  -4.992   9.815  0.00  0.00    -0.327 N 
ATOM     22  C   UNL     1       5.910  -3.739  10.413  0.00  0.00    +0.120 C 
ATOM     23  C   UNL     1       6.394  -2.569   9.551  0.00  0.00    +0.104 C 
BRANCH  21  24
ATOM     24  C   UNL     1       7.077  -5.937  10.587  0.00  0.00    +0.030 A 
ATOM     25  C   UNL     1       7.403  -5.654  11.907  0.00  0.00    +0.025 A 
ATOM     26  C   UNL     1       8.076  -6.590  12.667  0.00  0.00    +0.034 A 
ATOM     27  C   UNL     1       8.425  -7.809  12.115  0.00  0.00    +0.126 A 
ATOM     28  C   UNL     1       8.102  -8.095  10.801  0.00  0.00    +0.034 A 
ATOM     29  C   UNL     1       7.425  -7.164  10.037  0.00  0.00    +0.025 A 
BRANCH  27  30
ATOM     30  N   UNL     1       9.146  -8.810  12.932  0.00  0.00    +0.056 N 
ATOM     31  O   UNL     1       9.429  -8.562  14.081  0.00  0.00    -0.126 OA
ATOM     32  O   UNL     1       9.452  -9.877  12.451  0.00  0.00    -0.126 OA
ENDBRANCH  27  30
ENDBRANCH  21  24
ENDBRANCH  17  18
ENDBRANCH   7  17
TORSDOF 6
