REMARK  Name = ZINC08253630
REMARK  8 active torsions:
REMARK  status: ('A' for Active; 'I' for Inactive)
REMARK    1  A    between atoms: C_1  and  N_2
REMARK    2  A    between atoms: N_2  and  C_3
REMARK    3  A    between atoms: N_2  and  C_4
REMARK    4  A    between atoms: C_7  and  N_10
REMARK    5  A    between atoms: C_15  and  O_35
REMARK    6  A    between atoms: C_17  and  O_34
REMARK    7  A    between atoms: C_20  and  C_25
REMARK    8  A    between atoms: N_27  and  C_28
REMARK                            x       y       z     vdW  Elec       q    Type
REMARK                         _______ _______ _______ _____ _____    ______ ____
ROOT
ATOM      1  N   UNL     1      -5.283   4.053   1.095  0.00  0.00    -0.294 N 
ATOM      2  C   UNL     1      -4.316   3.074   1.077  0.00  0.00    +0.154 C 
ATOM      3  N   UNL     1      -3.919   2.383   0.047  0.00  0.00    -0.256 NA
ATOM      4  C   UNL     1      -2.917   1.361   0.188  0.00  0.00    +0.153 C 
ATOM      5  C   UNL     1      -2.012   1.176  -0.991  0.00  0.00    +0.168 C 
ATOM      6  C   UNL     1      -0.638   1.807  -0.786  0.00  0.00    +0.146 C 
ATOM      7  C   UNL     1      -0.032   1.227   0.497  0.00  0.00    +0.048 C 
ATOM      8  C   UNL     1      -0.865   1.692   1.685  0.00  0.00    +0.093 C 
ATOM      9  C   UNL     1      -2.316   1.252   1.577  0.00  0.00    +0.093 C 
ATOM     10  S   UNL     1      -3.351   2.492   2.459  0.00  0.00    -0.084 S 
ATOM     11  H   UNL     1      -5.547   4.459   1.935  0.00  0.00    +0.154 HD
ENDROOT
BRANCH   1  15
ATOM     12  C   UNL     1      -7.077   5.278  -2.466  0.00  0.00    +0.029 A 
ATOM     13  C   UNL     1      -6.689   3.955  -2.303  0.00  0.00    +0.025 A 
ATOM     14  C   UNL     1      -6.095   3.549  -1.124  0.00  0.00    +0.025 A 
ATOM     15  C   UNL     1      -5.886   4.465  -0.101  0.00  0.00    +0.033 A 
ATOM     16  C   UNL     1      -6.279   5.787  -0.262  0.00  0.00    +0.025 A 
ATOM     17  C   UNL     1      -6.868   6.194  -1.442  0.00  0.00    +0.025 A 
BRANCH  12  19
ATOM     18  C   UNL     1      -7.901   4.723  -4.739  0.00  0.00    +0.129 C 
ATOM     19  N   UNL     1      -7.679   5.689  -3.660  0.00  0.00    -0.336 N 
ATOM     20  C   UNL     1      -8.089   7.085  -3.831  0.00  0.00    +0.129 C 
ENDBRANCH  12  19
ENDBRANCH   1  15
BRANCH   8  21
ATOM     21  C   UNL     1      -0.270   1.127   2.949  0.00  0.00    +0.222 C 
ATOM     22  O   UNL     1      -0.932   0.399   3.659  0.00  0.00    -0.275 OA
ATOM     23  N   UNL     1       0.998   1.429   3.291  0.00  0.00    -0.285 N 
ATOM     24  H   UNL     1       1.508   2.058   2.756  0.00  0.00    +0.155 HD
BRANCH  23  25
ATOM     25  C   UNL     1       1.580   0.837   4.418  0.00  0.00    +0.033 A 
ATOM     26  C   UNL     1       0.808   0.574   5.542  0.00  0.00    +0.023 A 
ATOM     27  C   UNL     1       1.383  -0.015   6.650  0.00  0.00    +0.002 A 
ATOM     28  C   UNL     1       2.729  -0.333   6.646  0.00  0.00    +0.000 A 
ATOM     29  C   UNL     1       3.502  -0.068   5.530  0.00  0.00    +0.002 A 
ATOM     30  C   UNL     1       2.931   0.517   4.416  0.00  0.00    +0.023 A 
ENDBRANCH  23  25
ENDBRANCH   8  21
BRANCH   6  31
ATOM     31  O   UNL     1       0.205   1.500  -1.898  0.00  0.00    -0.389 OA
ATOM     32  H   UNL     1       1.101   1.856  -1.822  0.00  0.00    +0.210 HD
ENDBRANCH   6  31
BRANCH   5  33
ATOM     33  O   UNL     1      -2.623   1.767  -2.139  0.00  0.00    -0.387 OA
ATOM     34  H   UNL     1      -2.123   1.646  -2.957  0.00  0.00    +0.210 HD
ENDBRANCH   5  33
TORSDOF 6
