REMARK  Name = ZINC21615135
REMARK  14 active torsions:
REMARK  status: ('A' for Active; 'I' for Inactive)
REMARK    1  A    between atoms: C_1  and  C_2
REMARK    2  A    between atoms: C_2  and  C_3
REMARK    3  A    between atoms: C_3  and  C_4
REMARK    4  A    between atoms: C_4  and  C_5
REMARK    5  A    between atoms: C_5  and  C_6
REMARK    6  A    between atoms: C_6  and  N_7
REMARK    7  A    between atoms: C_17  and  S_18
REMARK    8  A    between atoms: S_18  and  C_19
REMARK    9  A    between atoms: C_19  and  C_21
REMARK   10  A    between atoms: C_19  and  C_22
REMARK   11  A    between atoms: C_22  and  C_24
REMARK   12  A    between atoms: C_25  and  N_34
REMARK   13  A    between atoms: N_26  and  C_33
REMARK   14  A    between atoms: N_29  and  C_32
REMARK                            x       y       z     vdW  Elec       q    Type
REMARK                         _______ _______ _______ _____ _____    ______ ____
ROOT
ATOM      1  S   UNL     1       2.070  -4.491   0.804  0.00  0.00    -0.076 S 
ENDROOT
BRANCH   1  12
ATOM      2  N   UNL     1       3.898  -6.358   1.466  0.00  0.00    -0.287 N 
ATOM      3  C   UNL     1       5.143  -6.872   1.591  0.00  0.00    +0.262 A 
ATOM      4  O   UNL     1       5.323  -7.988   2.043  0.00  0.00    -0.267 OA
ATOM      5  C   UNL     1       6.271  -6.030   1.167  0.00  0.00    +0.065 A 
ATOM      6  C   UNL     1       7.591  -6.467   1.261  0.00  0.00    +0.015 A 
ATOM      7  C   UNL     1       8.604  -5.643   0.852  0.00  0.00    +0.001 A 
ATOM      8  C   UNL     1       8.329  -4.379   0.345  0.00  0.00    +0.002 A 
ATOM      9  C   UNL     1       7.044  -3.927   0.242  0.00  0.00    +0.028 A 
ATOM     10  C   UNL     1       5.987  -4.745   0.652  0.00  0.00    +0.079 A 
ATOM     11  N   UNL     1       4.705  -4.339   0.567  0.00  0.00    -0.223 NA
ATOM     12  C   UNL     1       3.715  -5.106   0.951  0.00  0.00    +0.173 A 
BRANCH   2  13
ATOM     13  C   UNL     1       2.738  -7.152   1.878  0.00  0.00    +0.127 C 
BRANCH  13  14
ATOM     14  C   UNL     1       2.244  -7.987   0.695  0.00  0.00    +0.022 C 
BRANCH  14  15
ATOM     15  C   UNL     1       1.033  -8.816   1.125  0.00  0.00    +0.002 C 
BRANCH  15  16
ATOM     16  C   UNL     1       0.539  -9.650  -0.058  0.00  0.00    -0.000 C 
BRANCH  16  18
ATOM     17  C   UNL     1      -1.166 -11.315  -0.811  0.00  0.00    +0.004 C 
ATOM     18  C   UNL     1      -0.672 -10.480   0.373  0.00  0.00    -0.003 C 
ENDBRANCH  16  18
ENDBRANCH  15  16
ENDBRANCH  14  15
ENDBRANCH  13  14
ENDBRANCH   2  13
ENDBRANCH   1  12
BRANCH   1  19
ATOM     19  C   UNL     1       2.407  -2.857   0.102  0.00  0.00    +0.122 C 
ATOM     20  C   UNL     1       3.021  -3.016  -1.290  0.00  0.00    +0.028 C 
BRANCH  19  21
ATOM     21  C   UNL     1       1.120  -2.080  -0.002  0.00  0.00    +0.185 C 
ATOM     22  O   UNL     1       0.060  -2.668  -0.084  0.00  0.00    -0.291 OA
BRANCH  21  23
ATOM     23  C   UNL     1       1.146  -0.669  -0.004  0.00  0.00    +0.121 A 
ATOM     24  C   UNL     1      -0.044   0.079   0.027  0.00  0.00    +0.116 A 
ATOM     25  N   UNL     1       0.032   1.442   0.024  0.00  0.00    -0.284 N 
ATOM     26  C   UNL     1       1.216   2.075  -0.007  0.00  0.00    +0.333 A 
ATOM     27  O   UNL     1       1.230   3.290  -0.009  0.00  0.00    -0.246 OA
ATOM     28  N   UNL     1       2.384   1.415  -0.038  0.00  0.00    -0.263 N 
ATOM     29  C   UNL     1       2.417   0.066  -0.038  0.00  0.00    +0.269 A 
ATOM     30  O   UNL     1       3.478  -0.530  -0.066  0.00  0.00    -0.267 OA
ATOM     31  C   UNL     1       3.640   2.168  -0.072  0.00  0.00    +0.157 C 
ATOM     32  C   UNL     1      -1.203   2.230   0.050  0.00  0.00    +0.155 C 
BRANCH  24  33
ATOM     33  N   UNL     1      -1.252  -0.546   0.060  0.00  0.00    -0.344 N 
ATOM     34  H   UNL     1      -2.178   0.048   0.084  0.00  0.00    +0.144 HD
ATOM     35  H   UNL     1      -1.303  -1.645   0.062  0.00  0.00    +0.144 HD
ENDBRANCH  24  33
ENDBRANCH  21  23
ENDBRANCH  19  21
ENDBRANCH   1  19
TORSDOF 10
