REMARK  Name = ZINC09857765
REMARK  11 active torsions:
REMARK  status: ('A' for Active; 'I' for Inactive)
REMARK    1  A    between atoms: C_7  and  C_31
REMARK    2  A    between atoms: N_9  and  C_12
REMARK    3  A    between atoms: C_12  and  C_13
REMARK    4  A    between atoms: N_15  and  C_16
REMARK    5  A    between atoms: C_16  and  C_17
REMARK    6  A    between atoms: C_17  and  C_18
REMARK    7  A    between atoms: C_18  and  N_19
REMARK    8  A    between atoms: N_19  and  C_20
REMARK    9  A    between atoms: N_19  and  C_26
REMARK   10  A    between atoms: C_20  and  C_21
REMARK   11  A    between atoms: C_31  and  C_32
REMARK                            x       y       z     vdW  Elec       q    Type
REMARK                         _______ _______ _______ _____ _____    ______ ____
ROOT
ATOM      1  C   UNL     1       5.009  -5.175   0.692  0.00  0.00    +0.235 C 
ATOM      2  O   UNL     1       4.210  -4.711   1.478  0.00  0.00    -0.274 OA
ATOM      3  N   UNL     1       6.261  -5.466   1.097  0.00  0.00    -0.314 N 
ATOM      4  H   UNL     1       6.900  -5.838   0.469  0.00  0.00    +0.149 HD
ENDROOT
BRANCH   1   5
ATOM      5  C   UNL     1       4.602  -5.425  -0.737  0.00  0.00    +0.243 C 
BRANCH   5  14
ATOM      6  C   UNL     1      -1.158  -2.739  -1.801  0.00  0.00    +0.001 A 
ATOM      7  C   UNL     1      -0.179  -1.778  -2.021  0.00  0.00    +0.001 A 
ATOM      8  C   UNL     1       1.155  -2.084  -1.864  0.00  0.00    +0.014 A 
ATOM      9  C   UNL     1       1.520  -3.373  -1.480  0.00  0.00    +0.050 A 
ATOM     10  C   UNL     1       0.522  -4.348  -1.257  0.00  0.00    +0.011 A 
ATOM     11  C   UNL     1      -0.822  -4.009  -1.424  0.00  0.00    +0.010 A 
ATOM     12  C   UNL     1       0.935  -5.693  -0.855  0.00  0.00    +0.074 A 
ATOM     13  N   UNL     1       2.196  -5.970  -0.710  0.00  0.00    -0.172 NA
ATOM     14  N   UNL     1       3.204  -5.028  -0.923  0.00  0.00    -0.220 N 
ATOM     15  C   UNL     1       2.924  -3.762  -1.296  0.00  0.00    +0.275 A 
ATOM     16  O   UNL     1       3.820  -2.956  -1.477  0.00  0.00    -0.266 OA
BRANCH  12  17
ATOM     17  C   UNL     1      -0.103  -6.758  -0.609  0.00  0.00    +0.093 C 
BRANCH  17  18
ATOM     18  C   UNL     1       0.579  -8.041  -0.210  0.00  0.00    -0.039 A 
ATOM     19  C   UNL     1       0.966  -8.966  -1.168  0.00  0.00    +0.023 A 
ATOM     20  C   UNL     1       1.588 -10.133  -0.765  0.00  0.00    +0.111 A 
ATOM     21  N   UNL     1       1.815 -10.369   0.512  0.00  0.00    -0.263 NA
ATOM     22  C   UNL     1       1.462  -9.512   1.450  0.00  0.00    +0.111 A 
ATOM     23  C   UNL     1       0.840  -8.322   1.122  0.00  0.00    +0.023 A 
ENDBRANCH  17  18
ENDBRANCH  12  17
ENDBRANCH   5  14
ENDBRANCH   1   5
BRANCH   3  24
ATOM     24  C   UNL     1       6.657  -5.223   2.486  0.00  0.00    +0.102 C 
BRANCH  24  25
ATOM     25  C   UNL     1       8.117  -5.638   2.681  0.00  0.00    +0.000 C 
BRANCH  25  26
ATOM     26  C   UNL     1       8.530  -5.384   4.132  0.00  0.00    -0.076 C 
BRANCH  26  27
ATOM     27  N   UNL     1       9.865  -5.950   4.367  0.00  0.00    +0.386 N 
ATOM     28  H   UNL     1       9.937  -6.844   3.905  0.00  0.00    -0.081 HD
BRANCH  27  29
ATOM     29  C   UNL     1      10.885  -5.039   3.831  0.00  0.00    -0.068 C 
ATOM     30  C   UNL     1      10.642  -4.801   2.326  0.00  0.00    -0.015 C 
ATOM     31  C   UNL     1      12.066  -4.727   1.719  0.00  0.00    -0.002 C 
ATOM     32  C   UNL     1      12.836  -5.804   2.523  0.00  0.00    -0.002 C 
ATOM     33  C   UNL     1      12.280  -5.676   3.956  0.00  0.00    -0.015 C 
ENDBRANCH  27  29
BRANCH  27  34
ATOM     34  C   UNL     1      10.075  -6.126   5.810  0.00  0.00    -0.003 C 
BRANCH  34  35
ATOM     35  C   UNL     1      11.341  -6.909   6.042  0.00  0.00    +0.089 A 
ATOM     36  C   UNL     1      12.539  -6.390   6.368  0.00  0.00    +0.042 A 
ATOM     37  C   UNL     1      13.437  -7.476   6.487  0.00  0.00    +0.041 A 
ATOM     38  C   UNL     1      12.734  -8.593   6.226  0.00  0.00    +0.195 A 
ATOM     39  O   UNL     1      11.464  -8.244   5.963  0.00  0.00    -0.470 OA
ENDBRANCH  34  35
ENDBRANCH  27  34
ENDBRANCH  26  27
ENDBRANCH  25  26
ENDBRANCH  24  25
ENDBRANCH   3  24
TORSDOF 11
