REMARK  Name = ZINC36499808
REMARK  12 active torsions:
REMARK  status: ('A' for Active; 'I' for Inactive)
REMARK    1  A    between atoms: C_1  and  C_2
REMARK    2  A    between atoms: C_2  and  C_3
REMARK    3  A    between atoms: C_3  and  C_4
REMARK    4  A    between atoms: C_4  and  N_5
REMARK    5  A    between atoms: C_6  and  C_8
REMARK    6  A    between atoms: C_8  and  C_10
REMARK    7  A    between atoms: C_8  and  N_13
REMARK    8  A    between atoms: C_11  and  C_12
REMARK    9  A    between atoms: N_13  and  C_14
REMARK   10  A    between atoms: C_14  and  C_15
REMARK   11  A    between atoms: C_20  and  C_22
REMARK   12  A    between atoms: C_24  and  N_29
REMARK                            x       y       z     vdW  Elec       q    Type
REMARK                         _______ _______ _______ _____ _____    ______ ____
ROOT
ATOM      1  N   UNL     1      -4.604  -6.046  -0.080  0.00  0.00    -0.275 N 
ATOM      2  C   UNL     1      -4.748  -6.816  -1.177  0.00  0.00    +0.252 C 
ATOM      3  O   UNL     1      -4.700  -8.027  -1.080  0.00  0.00    -0.270 OA
ENDROOT
BRANCH   2   4
ATOM      4  C   UNL     1      -4.966  -6.189  -2.494  0.00  0.00    +0.086 A 
ATOM      5  C   UNL     1      -5.003  -4.798  -2.613  0.00  0.00    +0.049 A 
ATOM      6  C   UNL     1      -5.207  -4.219  -3.847  0.00  0.00    +0.127 A 
ATOM      7  C   UNL     1      -5.374  -5.010  -4.971  0.00  0.00    +0.036 A 
ATOM      8  C   UNL     1      -5.339  -6.386  -4.868  0.00  0.00    +0.054 A 
ATOM      9  C   UNL     1      -5.129  -6.986  -3.635  0.00  0.00    +0.191 A 
ATOM     10  O   UNL     1      -5.089  -8.338  -3.534  0.00  0.00    -0.287 OA
BRANCH   6  11
ATOM     11  N   UNL     1      -5.247  -2.744  -3.971  0.00  0.00    +0.056 N 
ATOM     12  O   UNL     1      -5.102  -2.051  -2.991  0.00  0.00    -0.126 OA
ATOM     13  O   UNL     1      -5.425  -2.233  -5.052  0.00  0.00    -0.126 OA
ENDBRANCH   6  11
ENDBRANCH   2   4
BRANCH   1  14
ATOM     14  C   UNL     1      -5.274  -4.745  -0.004  0.00  0.00    +0.186 C 
BRANCH  14  16
ATOM     15  N   UNL     1      -4.635  -2.356  -0.037  0.00  0.00    -0.314 N 
ATOM     16  C   UNL     1      -4.247  -3.646  -0.086  0.00  0.00    +0.238 C 
ATOM     17  O   UNL     1      -3.071  -3.921  -0.197  0.00  0.00    -0.273 OA
ATOM     18  H   UNL     1      -5.576  -2.136   0.052  0.00  0.00    +0.149 HD
BRANCH  15  19
ATOM     19  C   UNL     1      -3.637  -1.287  -0.116  0.00  0.00    +0.104 C 
BRANCH  19  20
ATOM     20  C   UNL     1      -4.337   0.071  -0.037  0.00  0.00    +0.018 C 
BRANCH  20  22
ATOM     21  C   UNL     1      -3.994   2.546  -0.042  0.00  0.00    +0.004 C 
ATOM     22  C   UNL     1      -3.294   1.188  -0.121  0.00  0.00    -0.002 C 
ENDBRANCH  20  22
ENDBRANCH  19  20
ENDBRANCH  15  19
ENDBRANCH  14  16
BRANCH  14  23
ATOM     23  C   UNL     1      -6.020  -4.640   1.301  0.00  0.00    +0.000 C 
ATOM     24  C   UNL     1      -7.330  -4.619   1.307  0.00  0.00    -0.032 C 
ATOM     25  C   UNL     1      -8.092  -4.820   0.023  0.00  0.00    +0.035 C 
ENDBRANCH  14  23
ENDBRANCH   1  14
BRANCH   1  26
ATOM     26  C   UNL     1      -3.776  -6.510   1.036  0.00  0.00    +0.183 C 
BRANCH  26  27
ATOM     27  C   UNL     1      -4.662  -7.068   2.120  0.00  0.00    +0.122 A 
ATOM     28  C   UNL     1      -5.121  -8.330   2.189  0.00  0.00    +0.046 A 
ATOM     29  C   UNL     1      -5.908  -8.417   3.360  0.00  0.00    +0.041 A 
ATOM     30  C   UNL     1      -5.883  -7.203   3.937  0.00  0.00    +0.195 A 
ATOM     31  O   UNL     1      -5.122  -6.391   3.185  0.00  0.00    -0.466 OA
ENDBRANCH  26  27
ENDBRANCH   1  26
TORSDOF 10
