REMARK  Name = ZINC12583701
REMARK  6 active torsions:
REMARK  status: ('A' for Active; 'I' for Inactive)
REMARK    1  A    between atoms: C_3  and  O_9
REMARK    2  A    between atoms: O_9  and  C_10
REMARK    3  A    between atoms: C_10  and  C_11
REMARK    4  A    between atoms: N_13  and  N_14
REMARK    5  A    between atoms: C_15  and  C_16
REMARK    6  A    between atoms: C_19  and  N_21
REMARK                            x       y       z     vdW  Elec       q    Type
REMARK                         _______ _______ _______ _____ _____    ______ ____
ROOT
ATOM      1  C   UNL     1       3.713  -0.860  -0.038  0.00  0.00    +0.270 C 
ATOM      2  O   UNL     1       4.660  -0.110  -0.043  0.00  0.00    -0.270 OA
ATOM      3  N   UNL     1       3.909  -2.193  -0.047  0.00  0.00    -0.204 N 
ATOM      4  H   UNL     1       3.148  -2.795  -0.043  0.00  0.00    +0.177 HD
ENDROOT
BRANCH   3   5
ATOM      5  N   UNL     1       5.108  -2.668  -0.061  0.00  0.00    -0.187 NA
ATOM      6  C   UNL     1       5.303  -3.993  -0.070  0.00  0.00    +0.145 C 
BRANCH   6   7
ATOM      7  C   UNL     1       6.586  -4.501  -0.085  0.00  0.00    +0.034 A 
ATOM      8  C   UNL     1       7.032  -5.915  -0.097  0.00  0.00    +0.019 A 
ATOM      9  C   UNL     1       8.351  -6.105  -0.111  0.00  0.00    +0.041 A 
ATOM     10  C   UNL     1       9.212  -4.994  -0.114  0.00  0.00    +0.164 A 
ATOM     11  S   UNL     1       8.143  -3.629  -0.103  0.00  0.00    -0.064 S 
BRANCH  10  12
ATOM     12  N   UNL     1      10.707  -4.990  -0.130  0.00  0.00    +0.063 N 
ATOM     13  O   UNL     1      11.369  -6.129  -0.143  0.00  0.00    -0.126 OA
ATOM     14  O   UNL     1      11.363  -3.848  -0.131  0.00  0.00    -0.126 OA
ENDBRANCH  10  12
ENDBRANCH   6   7
ENDBRANCH   3   5
BRANCH   1  15
ATOM     15  C   UNL     1       2.312  -0.304  -0.022  0.00  0.00    +0.326 C 
BRANCH  15  16
ATOM     16  O   UNL     1       2.366   1.124  -0.015  0.00  0.00    -0.482 OA
BRANCH  16  19
ATOM     17  C   UNL     1      -1.218   1.751   0.017  0.00  0.00    +0.019 A 
ATOM     18  C   UNL     1      -0.013   1.076   0.008  0.00  0.00    +0.048 A 
ATOM     19  C   UNL     1       1.179   1.786   0.000  0.00  0.00    +0.135 A 
ATOM     20  C   UNL     1       1.157   3.174   0.008  0.00  0.00    +0.061 A 
ATOM     21  C   UNL     1      -0.051   3.845   0.022  0.00  0.00    +0.034 A 
ATOM     22  C   UNL     1      -1.238   3.134   0.030  0.00  0.00    +0.019 A 
ATOM     23 BR   UNL     1      -2.890   4.054   0.050  0.00  0.00    -0.050 Br
ATOM     24 BR   UNL     1       2.779   4.146  -0.003  0.00  0.00    -0.046 Br
ENDBRANCH  16  19
ENDBRANCH  15  16
ENDBRANCH   1  15
TORSDOF 6
