REMARK  Name = ZINC59240473
REMARK  9 active torsions:
REMARK  status: ('A' for Active; 'I' for Inactive)
REMARK    1  A    between atoms: C_1  and  C_2
REMARK    2  A    between atoms: C_3  and  C_14
REMARK    3  A    between atoms: C_5  and  N_11
REMARK    4  A    between atoms: C_7  and  N_8
REMARK    5  A    between atoms: N_16  and  C_17
REMARK    6  A    between atoms: C_20  and  S_23
REMARK    7  A    between atoms: S_23  and  N_26
REMARK    8  A    between atoms: N_26  and  C_27
REMARK    9  A    between atoms: C_27  and  C_28
REMARK                            x       y       z     vdW  Elec       q    Type
REMARK                         _______ _______ _______ _____ _____    ______ ____
ROOT
ATOM      1  C   UNL     1      -1.172  -0.577  -2.620  0.00  0.00    +0.249 C 
ATOM      2  O   UNL     1      -1.814   0.450  -2.721  0.00  0.00    -0.270 OA
ATOM      3  N   UNL     1      -0.737  -1.212  -3.727  0.00  0.00    -0.281 N 
ATOM      4  H   UNL     1      -0.147  -1.977  -3.647  0.00  0.00    +0.155 HD
ENDROOT
BRANCH   1   7
ATOM      5  C   UNL     1      -2.345   0.634  -0.268  0.00  0.00    +0.047 C 
ATOM      6  C   UNL     1      -1.428  -0.555  -0.142  0.00  0.00    -0.008 A 
ATOM      7  C   UNL     1      -0.867  -1.131  -1.284  0.00  0.00    +0.044 A 
ATOM      8  C   UNL     1      -0.018  -2.231  -1.158  0.00  0.00    +0.046 A 
ATOM      9  C   UNL     1       0.263  -2.743   0.093  0.00  0.00    +0.129 A 
ATOM     10  C   UNL     1      -0.296  -2.167   1.220  0.00  0.00    +0.065 A 
ATOM     11  C   UNL     1      -1.135  -1.073   1.102  0.00  0.00    +0.132 A 
BRANCH  11  12
ATOM     12  N   UNL     1      -1.724  -0.461   2.314  0.00  0.00    +0.057 N 
ATOM     13  O   UNL     1      -1.566  -0.983   3.393  0.00  0.00    -0.126 OA
ATOM     14  O   UNL     1      -2.363   0.562   2.225  0.00  0.00    -0.126 OA
ENDBRANCH  11  12
BRANCH   9  15
ATOM     15  N   UNL     1       1.163  -3.910   0.228  0.00  0.00    +0.057 N 
ATOM     16  O   UNL     1       1.651  -4.414  -0.756  0.00  0.00    -0.126 OA
ATOM     17  O   UNL     1       1.409  -4.359   1.323  0.00  0.00    -0.126 OA
ENDBRANCH   9  15
ENDBRANCH   1   7
BRANCH   3  18
ATOM     18  C   UNL     1      -1.138  -0.766  -4.991  0.00  0.00    +0.034 A 
ATOM     19  C   UNL     1      -1.288   0.593  -5.234  0.00  0.00    +0.025 A 
ATOM     20  C   UNL     1      -1.684   1.030  -6.483  0.00  0.00    +0.030 A 
ATOM     21  C   UNL     1      -1.931   0.116  -7.491  0.00  0.00    +0.105 A 
ATOM     22  C   UNL     1      -1.782  -1.238  -7.252  0.00  0.00    +0.030 A 
ATOM     23  C   UNL     1      -1.381  -1.681  -6.007  0.00  0.00    +0.025 A 
BRANCH  21  24
ATOM     24  S   UNL     1      -2.436   0.677  -9.083  0.00  0.00    +0.058 S 
ATOM     25  O   UNL     1      -3.131  -0.403  -9.692  0.00  0.00    -0.153 OA
ATOM     26  O   UNL     1      -3.029   1.954  -8.893  0.00  0.00    -0.153 OA
BRANCH  24  27
ATOM     27  N   UNL     1      -1.063   0.920  -9.975  0.00  0.00    -0.187 NA
ATOM     28  H   UNL     1      -0.827   1.814 -10.269  0.00  0.00    +0.148 HD
BRANCH  27  29
ATOM     29  C   UNL     1      -0.203  -0.215 -10.321  0.00  0.00    +0.137 C 
BRANCH  29  30
ATOM     30  C   UNL     1       0.763   0.198 -11.433  0.00  0.00    +0.134 C 
ATOM     31  C   UNL     1       1.659  -1.000 -11.839  0.00  0.00    +0.035 C 
ATOM     32  C   UNL     1       2.038  -0.606 -13.292  0.00  0.00    +0.031 C 
ATOM     33  C   UNL     1       0.761   0.111 -13.781  0.00  0.00    +0.160 C 
ATOM     34  O   UNL     1       0.036   0.545 -12.622  0.00  0.00    -0.375 OA
ENDBRANCH  29  30
ENDBRANCH  27  29
ENDBRANCH  24  27
ENDBRANCH  21  24
ENDBRANCH   3  18
TORSDOF 8
