REMARK  Name = ZINC63478868
REMARK  11 active torsions:
REMARK  status: ('A' for Active; 'I' for Inactive)
REMARK    1  A    between atoms: C_1  and  C_2
REMARK    2  A    between atoms: C_5  and  N_8
REMARK    3  A    between atoms: N_8  and  C_9
REMARK    4  A    between atoms: N_8  and  S_21
REMARK    5  A    between atoms: C_9  and  C_10
REMARK    6  A    between atoms: N_12  and  C_13
REMARK    7  A    between atoms: C_16  and  C_20
REMARK    8  A    between atoms: C_18  and  C_19
REMARK    9  A    between atoms: S_21  and  C_24
REMARK   10  A    between atoms: C_25  and  C_31
REMARK   11  A    between atoms: C_28  and  C_30
REMARK                            x       y       z     vdW  Elec       q    Type
REMARK                         _______ _______ _______ _____ _____    ______ ____
ROOT
ATOM      1  N   UNL     1       0.184  -3.938  -0.110  0.00  0.00    -0.194 N 
ENDROOT
BRANCH   1   6
ATOM      2  C   UNL     1      -0.234   1.606  -1.224  0.00  0.00    +0.044 C 
ATOM      3  C   UNL     1      -0.123   0.133  -0.928  0.00  0.00    -0.050 A 
ATOM      4  C   UNL     1      -0.841  -0.778  -1.681  0.00  0.00    +0.005 A 
ATOM      5  C   UNL     1      -0.742  -2.129  -1.412  0.00  0.00    +0.025 A 
ATOM      6  C   UNL     1       0.082  -2.573  -0.385  0.00  0.00    +0.052 A 
ATOM      7  C   UNL     1       0.802  -1.655   0.369  0.00  0.00    +0.025 A 
ATOM      8  C   UNL     1       0.702  -0.305   0.091  0.00  0.00    +0.005 A 
ENDBRANCH   1   6
BRANCH   1   9
ATOM      9  S   UNL     1      -0.286  -4.524   1.366  0.00  0.00    +0.075 S 
ATOM     10  O   UNL     1       0.489  -5.690   1.606  0.00  0.00    -0.150 OA
ATOM     11  O   UNL     1      -0.294  -3.417   2.258  0.00  0.00    -0.150 OA
BRANCH   9  12
ATOM     12  C   UNL     1      -1.959  -5.054   1.207  0.00  0.00    +0.134 C 
ATOM     13  C   UNL     1      -3.060  -4.448   1.655  0.00  0.00    +0.085 C 
ATOM     14  N   UNL     1      -4.163  -5.162   1.339  0.00  0.00    -0.157 NA
ATOM     15  N   UNL     1      -3.939  -6.203   0.718  0.00  0.00    -0.178 NA
ATOM     16  C   UNL     1      -2.482  -6.304   0.523  0.00  0.00    +0.176 C 
ATOM     17  C   UNL     1      -1.935  -7.562   1.201  0.00  0.00    +0.041 C 
ATOM     18  C   UNL     1      -3.072  -3.143   2.410  0.00  0.00    +0.069 C 
ENDBRANCH   9  12
ENDBRANCH   1   9
BRANCH   1  19
ATOM     19  C   UNL     1       0.709  -4.853  -1.127  0.00  0.00    +0.227 C 
BRANCH  19  20
ATOM     20  C   UNL     1       2.214  -4.872  -1.057  0.00  0.00    +0.236 C 
ATOM     21  O   UNL     1       2.792  -4.190  -0.238  0.00  0.00    -0.274 OA
ATOM     22  N   UNL     1       2.918  -5.649  -1.905  0.00  0.00    -0.284 N 
ATOM     23  H   UNL     1       2.460  -6.147  -2.600  0.00  0.00    +0.155 HD
BRANCH  22  24
ATOM     24  C   UNL     1       4.309  -5.736  -1.782  0.00  0.00    +0.036 A 
ATOM     25  C   UNL     1       5.032  -4.661  -1.281  0.00  0.00    +0.024 A 
ATOM     26  C   UNL     1       6.405  -4.750  -1.161  0.00  0.00    +0.005 A 
ATOM     27  C   UNL     1       7.060  -5.908  -1.541  0.00  0.00    -0.050 A 
ATOM     28  C   UNL     1       6.343  -6.979  -2.041  0.00  0.00    +0.008 A 
ATOM     29  C   UNL     1       4.969  -6.899  -2.157  0.00  0.00    -0.029 A 
ATOM     30  C   UNL     1       4.187  -8.069  -2.696  0.00  0.00    +0.045 C 
ATOM     31  C   UNL     1       8.558  -6.002  -1.409  0.00  0.00    +0.044 C 
ENDBRANCH  22  24
ENDBRANCH  19  20
ENDBRANCH   1  19
TORSDOF 6
