REMARK  Name = ZINC36347785
REMARK  8 active torsions:
REMARK  status: ('A' for Active; 'I' for Inactive)
REMARK    1  A    between atoms: C_1  and  C_2
REMARK    2  A    between atoms: C_2  and  O_3
REMARK    3  A    between atoms: O_3  and  C_4
REMARK    4  A    between atoms: C_6  and  C_11
REMARK    5  A    between atoms: C_9  and  O_10
REMARK    6  A    between atoms: C_11  and  N_12
REMARK    7  A    between atoms: C_21  and  C_23
REMARK    8  A    between atoms: C_26  and  N_29
REMARK                            x       y       z     vdW  Elec       q    Type
REMARK                         _______ _______ _______ _____ _____    ______ ____
ROOT
ATOM      1  N   UNL     1       1.141  -5.151   1.445  0.00  0.00    +0.391 N 
ATOM      2  C   UNL     1      -0.013  -5.744   2.125  0.00  0.00    -0.075 C 
ATOM      3  C   UNL     1       0.336  -6.134   3.556  0.00  0.00    +0.003 C 
ATOM      4  C   UNL     1       1.346  -5.138   4.132  0.00  0.00    +0.119 C 
ATOM      5  N   UNL     1       2.702  -5.593   3.807  0.00  0.00    -0.352 N 
ATOM      6  C   UNL     1       3.761  -5.654   4.661  0.00  0.00    +0.086 A 
ATOM      7  C   UNL     1       4.831  -6.107   3.975  0.00  0.00    +0.019 A 
ATOM      8  C   UNL     1       4.414  -6.338   2.648  0.00  0.00    +0.021 A 
ATOM      9  C   UNL     1       3.107  -6.022   2.575  0.00  0.00    +0.009 A 
ATOM     10  C   UNL     1       2.230  -6.132   1.351  0.00  0.00    +0.011 C 
ATOM     11  H   UNL     1       1.458  -4.347   1.967  0.00  0.00    -0.080 HD
ENDROOT
BRANCH  10  12
ATOM     12  C   UNL     1       3.051  -5.856   0.118  0.00  0.00    -0.055 A 
ATOM     13  C   UNL     1       3.190  -6.832  -0.852  0.00  0.00    +0.004 A 
ATOM     14  C   UNL     1       3.943  -6.579  -1.983  0.00  0.00    +0.033 A 
ATOM     15  C   UNL     1       4.557  -5.351  -2.145  0.00  0.00    +0.126 A 
ATOM     16  C   UNL     1       4.418  -4.375  -1.175  0.00  0.00    +0.033 A 
ATOM     17  C   UNL     1       3.661  -4.627  -0.046  0.00  0.00    +0.004 A 
BRANCH  15  18
ATOM     18  N   UNL     1       5.364  -5.080  -3.356  0.00  0.00    +0.056 N 
ATOM     19  O   UNL     1       5.487  -5.933  -4.204  0.00  0.00    -0.126 OA
ATOM     20  O   UNL     1       5.901  -4.006  -3.497  0.00  0.00    -0.126 OA
ENDBRANCH  15  18
ENDBRANCH  10  12
BRANCH   1  21
ATOM     21  C   UNL     1       0.747  -4.730   0.094  0.00  0.00    -0.042 C 
BRANCH  21  24
ATOM     22  C   UNL     1      -0.897  -1.337   0.332  0.00  0.00    +0.162 A 
ATOM     23  C   UNL     1       0.070  -2.326   0.244  0.00  0.00    +0.051 A 
ATOM     24  C   UNL     1      -0.305  -3.655   0.189  0.00  0.00    -0.060 A 
ATOM     25  C   UNL     1      -1.644  -4.001   0.222  0.00  0.00    +0.005 A 
ATOM     26  C   UNL     1      -2.613  -3.019   0.309  0.00  0.00    +0.049 A 
ATOM     27  C   UNL     1      -2.243  -1.685   0.370  0.00  0.00    +0.158 A 
BRANCH  27  28
ATOM     28  O   UNL     1      -3.195  -0.718   0.462  0.00  0.00    -0.503 OA
ATOM     29  H   UNL     1      -3.508  -0.391  -0.393  0.00  0.00    +0.292 HD
ENDBRANCH  27  28
BRANCH  22  30
ATOM     30  O   UNL     1      -0.529  -0.028   0.387  0.00  0.00    -0.489 OA
BRANCH  30  32
ATOM     31  C   UNL     1       1.087   1.768   0.415  0.00  0.00    +0.048 C 
ATOM     32  C   UNL     1       0.870   0.255   0.343  0.00  0.00    +0.226 C 
ENDBRANCH  30  32
ENDBRANCH  22  30
ENDBRANCH  21  24
ENDBRANCH   1  21
TORSDOF 7
