REMARK  Name = ZINC59294002
REMARK  9 active torsions:
REMARK  status: ('A' for Active; 'I' for Inactive)
REMARK    1  A    between atoms: C_1  and  O_2
REMARK    2  A    between atoms: O_2  and  C_3
REMARK    3  A    between atoms: C_3  and  C_5
REMARK    4  A    between atoms: C_6  and  N_37
REMARK    5  A    between atoms: C_11  and  C_12
REMARK    6  A    between atoms: C_19  and  C_27
REMARK    7  A    between atoms: C_20  and  C_22
REMARK    8  A    between atoms: N_29  and  C_30
REMARK    9  A    between atoms: C_30  and  C_31
REMARK                            x       y       z     vdW  Elec       q    Type
REMARK                         _______ _______ _______ _____ _____    ______ ____
ROOT
ATOM      1  C   UNL     1       0.137  -2.272  -1.686  0.00  0.00    +0.090 C 
ATOM      2  C   UNL     1       0.838  -2.971  -2.610  0.00  0.00    +0.115 C 
ATOM      3  N   UNL     1       1.171  -4.322  -2.473  0.00  0.00    -0.257 N 
ATOM      4  C   UNL     1       1.869  -5.008  -3.400  0.00  0.00    +0.271 A 
ATOM      5  O   UNL     1       2.248  -4.465  -4.421  0.00  0.00    -0.266 OA
ATOM      6  C   UNL     1       2.162  -6.419  -3.151  0.00  0.00    +0.082 A 
ATOM      7  C   UNL     1       2.842  -7.312  -3.926  0.00  0.00    +0.066 C 
ATOM      8  S   UNL     1       1.389  -6.658  -1.559  0.00  0.00    -0.065 S 
ATOM      9  C   UNL     1       0.773  -5.000  -1.339  0.00  0.00    +0.099 A 
ATOM     10  C   UNL     1       0.066  -4.444  -0.321  0.00  0.00    +0.060 C 
ATOM     11  C   UNL     1      -0.313  -2.980  -0.424  0.00  0.00    +0.133 C 
ENDROOT
BRANCH   7  12
ATOM     12  C   UNL     1       3.528  -6.868  -5.080  0.00  0.00    +0.129 A 
ATOM     13  C   UNL     1       4.261  -7.657  -5.944  0.00  0.00    +0.049 A 
ATOM     14  C   UNL     1       4.760  -6.801  -6.939  0.00  0.00    +0.042 A 
ATOM     15  C   UNL     1       4.323  -5.555  -6.651  0.00  0.00    +0.195 A 
ATOM     16  O   UNL     1       3.578  -5.599  -5.536  0.00  0.00    -0.463 OA
ENDBRANCH   7  12
BRANCH  11  17
ATOM     17  C   UNL     1      -1.814  -2.879  -0.336  0.00  0.00    +0.117 A 
ATOM     18  C   UNL     1      -2.506  -2.293   0.658  0.00  0.00    +0.045 A 
ATOM     19  C   UNL     1      -3.877  -2.427   0.338  0.00  0.00    +0.041 A 
ATOM     20  C   UNL     1      -3.940  -3.087  -0.833  0.00  0.00    +0.195 A 
ATOM     21  O   UNL     1      -2.688  -3.352  -1.239  0.00  0.00    -0.467 OA
ENDBRANCH  11  17
BRANCH  10  22
ATOM     22  C   UNL     1      -0.300  -5.205   0.801  0.00  0.00    +0.244 C 
ATOM     23  O   UNL     1       0.017  -6.380   0.870  0.00  0.00    -0.270 OA
ATOM     24  N   UNL     1      -1.002  -4.636   1.801  0.00  0.00    -0.307 N 
ATOM     25  H   UNL     1      -1.255  -3.701   1.746  0.00  0.00    +0.149 HD
BRANCH  24  26
ATOM     26  C   UNL     1      -1.384  -5.430   2.971  0.00  0.00    +0.139 C 
BRANCH  26  27
ATOM     27  C   UNL     1      -2.156  -4.566   3.935  0.00  0.00    -0.030 A 
ATOM     28  C   UNL     1      -1.487  -3.857   4.915  0.00  0.00    +0.005 A 
ATOM     29  C   UNL     1      -2.195  -3.064   5.799  0.00  0.00    +0.000 A 
ATOM     30  C   UNL     1      -3.571  -2.979   5.702  0.00  0.00    +0.000 A 
ATOM     31  C   UNL     1      -4.240  -3.687   4.721  0.00  0.00    +0.000 A 
ATOM     32  C   UNL     1      -3.532  -4.477   3.834  0.00  0.00    +0.005 A 
ENDBRANCH  26  27
ENDBRANCH  24  26
ENDBRANCH  10  22
BRANCH   2  33
ATOM     33  N   UNL     1       1.242  -2.318  -3.744  0.00  0.00    -0.344 N 
ATOM     34  H   UNL     1       1.620  -1.426  -3.682  0.00  0.00    +0.144 HD
ATOM     35  H   UNL     1       1.151  -2.746  -4.610  0.00  0.00    +0.144 HD
ENDBRANCH   2  33
BRANCH   1  36
ATOM     36  C   UNL     1      -0.162  -0.917  -1.891  0.00  0.00    +0.339 C 
ATOM     37  O   UNL     1       0.096  -0.391  -2.958  0.00  0.00    -0.245 OA
BRANCH  36  39
ATOM     38  C   UNL     1      -1.013   1.179  -1.181  0.00  0.00    +0.280 C 
ATOM     39  O   UNL     1      -0.736  -0.196  -0.903  0.00  0.00    -0.465 OA
ENDBRANCH  36  39
ENDBRANCH   1  36
TORSDOF 8
