REMARK  Name = ZINC58825988
REMARK  4 active torsions:
REMARK  status: ('A' for Active; 'I' for Inactive)
REMARK    1  A    between atoms: C_3  and  S_6
REMARK    2  A    between atoms: S_6  and  N_9
REMARK    3  A    between atoms: N_9  and  C_10
REMARK    4  A    between atoms: N_18  and  C_19
REMARK                            x       y       z     vdW  Elec       q    Type
REMARK                         _______ _______ _______ _____ _____    ______ ____
ROOT
ATOM      1  C   UNL     1       4.761   1.197   2.473  0.00  0.00    +0.080 C 
ATOM      2  C   UNL     1       3.484   1.262   3.315  0.00  0.00    +0.039 C 
ATOM      3  C   UNL     1       3.365  -0.014   4.155  0.00  0.00    +0.111 C 
ATOM      4  N   UNL     1       4.597  -0.180   4.939  0.00  0.00    -0.285 N 
ATOM      5  C   UNL     1       5.888  -0.166   4.237  0.00  0.00    +0.111 C 
ATOM      6  C   UNL     1       5.978   1.111   3.396  0.00  0.00    +0.039 C 
ATOM      7  C   UNL     1       4.543  -0.342   6.275  0.00  0.00    +0.306 C 
ATOM      8  O   UNL     1       3.478  -0.259   6.856  0.00  0.00    -0.252 OA
ATOM      9  N   UNL     1       5.670  -0.597   6.969  0.00  0.00    -0.268 N 
ATOM     10  H   UNL     1       6.529  -0.599   6.516  0.00  0.00    +0.156 HD
ENDROOT
BRANCH   9  11
ATOM     11  C   UNL     1       5.603  -0.858   8.343  0.00  0.00    +0.055 A 
ATOM     12  C   UNL     1       4.396  -1.224   8.923  0.00  0.00    +0.044 A 
ATOM     13  C   UNL     1       4.333  -1.482  10.279  0.00  0.00    +0.043 A 
ATOM     14  C   UNL     1       5.471  -1.375  11.059  0.00  0.00    +0.021 A 
ATOM     15  C   UNL     1       6.674  -1.011  10.485  0.00  0.00    +0.023 A 
ATOM     16  C   UNL     1       6.745  -0.758   9.127  0.00  0.00    +0.062 A 
ATOM     17 CL   UNL     1       8.259  -0.307   8.406  0.00  0.00    -0.082 Cl
ATOM     18 CL   UNL     1       2.824  -1.940  11.005  0.00  0.00    -0.083 Cl
ENDBRANCH   9  11
BRANCH   1  19
ATOM     19  N   UNL     1       4.861   2.400   1.644  0.00  0.00    -0.186 NA
ATOM     20  H   UNL     1       5.254   3.209   2.008  0.00  0.00    +0.148 HD
BRANCH  19  21
ATOM     21  S   UNL     1       4.302   2.381   0.085  0.00  0.00    +0.065 S 
ATOM     22  O   UNL     1       4.844   1.218  -0.526  0.00  0.00    -0.153 OA
ATOM     23  O   UNL     1       4.513   3.685  -0.438  0.00  0.00    -0.153 OA
BRANCH  21  26
ATOM     24  C   UNL     1       0.257   2.651   0.281  0.00  0.00    +0.010 A 
ATOM     25  C   UNL     1       1.573   3.072   0.233  0.00  0.00    +0.036 A 
ATOM     26  C   UNL     1       2.558   2.144   0.160  0.00  0.00    +0.142 A 
ATOM     27  S   UNL     1       1.629   0.619   0.158  0.00  0.00    -0.077 S 
ATOM     28  C   UNL     1      -0.009   1.322   0.255  0.00  0.00    +0.047 A 
ENDBRANCH  21  26
ENDBRANCH  19  21
ENDBRANCH   1  19
TORSDOF 4
