REMARK  Name = ZINC20618094
REMARK  5 active torsions:
REMARK  status: ('A' for Active; 'I' for Inactive)
REMARK    1  A    between atoms: C_1  and  C_2
REMARK    2  A    between atoms: C_2  and  C_4
REMARK    3  A    between atoms: C_2  and  N_14
REMARK    4  A    between atoms: C_15  and  C_17
REMARK    5  A    between atoms: C_20  and  N_23
REMARK                            x       y       z     vdW  Elec       q    Type
REMARK                         _______ _______ _______ _____ _____    ______ ____
ROOT
ATOM      1  C   UNL     1      -4.511   1.236   1.296  0.00  0.00    +0.037 A 
ATOM      2  C   UNL     1      -4.942   0.079   1.952  0.00  0.00    +0.015 A 
ATOM      3  C   UNL     1      -6.218  -0.394   1.744  0.00  0.00    +0.028 A 
ATOM      4  C   UNL     1      -7.075   0.272   0.874  0.00  0.00    +0.067 A 
ATOM      5  C   UNL     1      -6.648   1.421   0.214  0.00  0.00    +0.028 A 
ATOM      6  C   UNL     1      -5.375   1.902   0.422  0.00  0.00    +0.015 A 
ENDROOT
BRANCH   4   7
ATOM      7  N   UNL     1      -8.364  -0.212   0.661  0.00  0.00    -0.226 NA
ATOM      8  C   UNL     1      -8.598  -1.570   0.657  0.00  0.00    +0.155 C 
ATOM      9  N   UNL     1      -9.746  -2.164   0.575  0.00  0.00    -0.318 N 
ATOM     10  C   UNL     1      -9.869  -3.609   0.603  0.00  0.00    +0.108 C 
ATOM     11  C   UNL     1     -10.818  -4.011   1.756  0.00  0.00    +0.189 C 
ATOM     12  S   UNL     1     -10.093  -5.611   2.310  0.00  0.00    -0.028 S 
ATOM     13  O   UNL     1     -10.524  -6.667   1.462  0.00  0.00    -0.174 OA
ATOM     14  O   UNL     1     -10.255  -5.726   3.717  0.00  0.00    -0.174 OA
ATOM     15  C   UNL     1      -8.334  -5.199   1.928  0.00  0.00    +0.182 C 
ATOM     16  C   UNL     1      -8.506  -4.313   0.680  0.00  0.00    +0.097 C 
ATOM     17  S   UNL     1      -7.381  -2.869   0.755  0.00  0.00    -0.084 S 
ATOM     18  H   UNL     1     -10.645  -1.537   0.482  0.00  0.00    +0.148 HD
ENDBRANCH   4   7
BRANCH   1  20
ATOM     19  N   UNL     1      -2.315   1.105   2.364  0.00  0.00    -0.308 N 
ATOM     20  C   UNL     1      -3.146   1.749   1.521  0.00  0.00    +0.244 C 
ATOM     21  O   UNL     1      -2.772   2.753   0.946  0.00  0.00    -0.270 OA
ATOM     22  H   UNL     1      -2.654   0.197   2.884  0.00  0.00    +0.149 HD
BRANCH  19  24
ATOM     23  C   UNL     1      -0.028   1.083   1.496  0.00  0.00    +0.028 C 
ATOM     24  C   UNL     1      -0.960   1.615   2.587  0.00  0.00    +0.076 C 
BRANCH  24  25
ATOM     25  C   UNL     1      -0.459   1.149   3.956  0.00  0.00    -0.010 C 
ATOM     26  C   UNL     1      -0.443  -0.380   4.000  0.00  0.00    +0.012 C 
ATOM     27  C   UNL     1       0.058  -0.845   5.369  0.00  0.00    -0.010 C 
ATOM     28  C   UNL     1       1.473  -0.313   5.602  0.00  0.00    +0.007 C 
ATOM     29  C   UNL     1       1.457   1.216   5.558  0.00  0.00    -0.010 C 
ATOM     30  C   UNL     1       0.956   1.682   4.189  0.00  0.00    +0.012 C 
ATOM     31  C   UNL     1       0.526   1.748   6.649  0.00  0.00    +0.007 C 
ATOM     32  C   UNL     1      -0.890   1.216   6.416  0.00  0.00    -0.010 C 
ATOM     33  C   UNL     1      -0.873  -0.313   6.460  0.00  0.00    +0.007 C 
ATOM     34  C   UNL     1      -1.390   1.681   5.047  0.00  0.00    +0.012 C 
ENDBRANCH  24  25
ENDBRANCH  19  24
ENDBRANCH   1  20
TORSDOF 4
