REMARK  Name = ZINC21691950
REMARK  9 active torsions:
REMARK  status: ('A' for Active; 'I' for Inactive)
REMARK    1  A    between atoms: C_1  and  C_2
REMARK    2  A    between atoms: C_2  and  C_4
REMARK    3  A    between atoms: C_2  and  O_17
REMARK    4  A    between atoms: N_6  and  C_7
REMARK    5  A    between atoms: C_11  and  N_13
REMARK    6  A    between atoms: O_17  and  C_18
REMARK    7  A    between atoms: C_18  and  C_20
REMARK    8  A    between atoms: C_29  and  N_32
REMARK    9  A    between atoms: C_33  and  C_35
REMARK                            x       y       z     vdW  Elec       q    Type
REMARK                         _______ _______ _______ _____ _____    ______ ____
ROOT
ATOM      1  O   UNL     1       0.692  -0.480   1.160  0.00  0.00    -0.452 OA
ENDROOT
BRANCH   1   3
ATOM      2  C   UNL     1      -0.033   1.520   0.013  0.00  0.00    +0.062 C 
ATOM      3  C   UNL     1      -0.002  -0.010   0.002  0.00  0.00    +0.259 C 
BRANCH   3   4
ATOM      4  C   UNL     1       0.708  -0.488  -1.238  0.00  0.00    +0.258 C 
ATOM      5  O   UNL     1       1.758  -1.088  -1.142  0.00  0.00    -0.271 OA
ATOM      6  N   UNL     1       0.176  -0.250  -2.453  0.00  0.00    -0.282 N 
ATOM      7  H   UNL     1      -0.695   0.170  -2.527  0.00  0.00    +0.155 HD
BRANCH   6   8
ATOM      8  C   UNL     1       0.882  -0.608  -3.609  0.00  0.00    +0.036 A 
ATOM      9  C   UNL     1       0.803   0.185  -4.745  0.00  0.00    +0.026 A 
ATOM     10  C   UNL     1       1.499  -0.170  -5.884  0.00  0.00    +0.042 A 
ATOM     11  C   UNL     1       2.275  -1.317  -5.893  0.00  0.00    +0.154 A 
ATOM     12  C   UNL     1       2.355  -2.109  -4.760  0.00  0.00    +0.163 A 
ATOM     13  C   UNL     1       1.665  -1.754  -3.617  0.00  0.00    +0.059 A 
ATOM     14  F   UNL     1       2.955  -1.663  -7.008  0.00  0.00    -0.203 F 
BRANCH  12  15
ATOM     15  N   UNL     1       3.185  -3.335  -4.772  0.00  0.00    +0.059 N 
ATOM     16  O   UNL     1       3.256  -4.027  -3.784  0.00  0.00    -0.126 OA
ATOM     17  O   UNL     1       3.793  -3.643  -5.771  0.00  0.00    -0.126 OA
ENDBRANCH  12  15
ENDBRANCH   6   8
ENDBRANCH   3   4
ENDBRANCH   1   3
BRANCH   1  18
ATOM     18  C   UNL     1      -0.042  -0.707   2.260  0.00  0.00    +0.314 C 
ATOM     19  O   UNL     1      -1.235  -0.512   2.241  0.00  0.00    -0.250 OA
BRANCH  18  20
ATOM     20  C   UNL     1       0.620  -1.204   3.519  0.00  0.00    +0.070 C 
ATOM     21  C   UNL     1       1.296  -2.548   3.243  0.00  0.00    +0.021 C 
ATOM     22  C   UNL     1       1.969  -3.053   4.521  0.00  0.00    -0.008 C 
ATOM     23  C   UNL     1       3.019  -2.039   4.979  0.00  0.00    +0.007 C 
ATOM     24  C   UNL     1       2.343  -0.695   5.256  0.00  0.00    -0.008 C 
ATOM     25  C   UNL     1       1.670  -0.190   3.978  0.00  0.00    +0.021 C 
ATOM     26  C   UNL     1       1.290  -0.869   6.352  0.00  0.00    +0.029 C 
ATOM     27  C   UNL     1       0.239  -1.883   5.893  0.00  0.00    +0.036 C 
ATOM     28  C   UNL     1       0.915  -3.228   5.617  0.00  0.00    +0.029 C 
ATOM     29  C   UNL     1      -0.433  -1.378   4.615  0.00  0.00    +0.043 C 
BRANCH  27  30
ATOM     30  N   UNL     1      -0.769  -2.050   6.943  0.00  0.00    -0.310 N 
ATOM     31  C   UNL     1      -0.405  -2.488   8.164  0.00  0.00    +0.210 C 
ATOM     32  O   UNL     1       0.758  -2.744   8.394  0.00  0.00    -0.276 OA
ATOM     33  C   UNL     1      -1.442  -2.660   9.243  0.00  0.00    +0.109 C 
ATOM     34  H   UNL     1      -1.699  -1.845   6.758  0.00  0.00    +0.149 HD
ENDBRANCH  27  30
ENDBRANCH  18  20
ENDBRANCH   1  18
TORSDOF 7
