REMARK  Name = ZINC15219212
REMARK  11 active torsions:
REMARK  status: ('A' for Active; 'I' for Inactive)
REMARK    1  A    between atoms: C_1  and  C_2
REMARK    2  A    between atoms: C_2  and  O_3
REMARK    3  A    between atoms: O_3  and  C_4
REMARK    4  A    between atoms: C_6  and  C_18
REMARK    5  A    between atoms: C_9  and  O_10
REMARK    6  A    between atoms: O_10  and  C_11
REMARK    7  A    between atoms: C_11  and  C_13
REMARK    8  A    between atoms: N_19  and  N_20
REMARK    9  A    between atoms: C_21  and  C_23
REMARK   10  A    between atoms: C_23  and  N_24
REMARK   11  A    between atoms: C_25  and  C_27
REMARK                            x       y       z     vdW  Elec       q    Type
REMARK                         _______ _______ _______ _____ _____    ______ ____
ROOT
ATOM      1  C   UNL     1       9.573  -5.285   5.520  0.00  0.00    +0.138 C 
ATOM      2  N   UNL     1       8.440  -4.949   4.985  0.00  0.00    -0.188 NA
ENDROOT
BRANCH   1   5
ATOM      3  C   UNL     1      11.170  -8.304   7.080  0.00  0.00    +0.163 A 
ATOM      4  C   UNL     1      10.990  -7.019   6.605  0.00  0.00    +0.059 A 
ATOM      5  C   UNL     1       9.771  -6.655   6.029  0.00  0.00    -0.002 A 
ATOM      6  C   UNL     1       8.737  -7.591   5.940  0.00  0.00    +0.013 A 
ATOM      7  C   UNL     1       8.925  -8.873   6.412  0.00  0.00    +0.051 A 
ATOM      8  C   UNL     1      10.136  -9.234   6.984  0.00  0.00    +0.173 A 
BRANCH   3   9
ATOM      9  O   UNL     1      12.356  -8.662   7.642  0.00  0.00    -0.489 OA
BRANCH   9  11
ATOM     10  C   UNL     1      14.623  -8.242   8.366  0.00  0.00    +0.048 C 
ATOM     11  C   UNL     1      13.371  -7.658   7.708  0.00  0.00    +0.226 C 
ENDBRANCH   9  11
ENDBRANCH   3   9
BRANCH   8  12
ATOM     12  O   UNL     1      10.315 -10.497   7.453  0.00  0.00    -0.416 OA
BRANCH  12  13
ATOM     13  C   UNL     1      10.165 -10.685   8.780  0.00  0.00    +0.380 C 
ATOM     14  O   UNL     1       9.787  -9.768   9.485  0.00  0.00    -0.241 OA
BRANCH  13  15
ATOM     15  C   UNL     1      10.458 -11.992   9.373  0.00  0.00    +0.212 A 
ATOM     16  C   UNL     1      10.348 -12.316  10.696  0.00  0.00    +0.056 A 
ATOM     17  C   UNL     1      10.726 -13.662  10.813  0.00  0.00    +0.042 A 
ATOM     18  C   UNL     1      11.045 -14.096   9.573  0.00  0.00    +0.196 A 
ATOM     19  O   UNL     1      10.877 -13.088   8.707  0.00  0.00    -0.456 OA
ENDBRANCH  13  15
ENDBRANCH  12  13
ENDBRANCH   8  12
ENDBRANCH   1   5
BRANCH   2  20
ATOM     20  N   UNL     1       8.252  -3.648   4.501  0.00  0.00    -0.206 N 
ATOM     21  C   UNL     1       7.075  -3.298   3.946  0.00  0.00    +0.249 C 
ATOM     22  O   UNL     1       6.178  -4.111   3.864  0.00  0.00    -0.272 OA
ATOM     23  H   UNL     1       8.969  -2.998   4.567  0.00  0.00    +0.177 HD
BRANCH  21  24
ATOM     24  C   UNL     1       6.873  -1.898   3.426  0.00  0.00    +0.202 C 
BRANCH  24  25
ATOM     25  N   UNL     1       5.521  -1.772   2.875  0.00  0.00    -0.303 N 
ATOM     26  C   UNL     1       5.114  -0.600   2.349  0.00  0.00    +0.245 C 
ATOM     27  O   UNL     1       5.869   0.353   2.333  0.00  0.00    -0.270 OA
ATOM     28  H   UNL     1       4.919  -2.533   2.888  0.00  0.00    +0.150 HD
BRANCH  26  29
ATOM     29  C   UNL     1       3.752  -0.473   1.794  0.00  0.00    +0.040 A 
ATOM     30  C   UNL     1       2.884  -1.567   1.812  0.00  0.00    +0.017 A 
ATOM     31  C   UNL     1       1.613  -1.446   1.294  0.00  0.00    +0.050 A 
ATOM     32  C   UNL     1       1.191  -0.240   0.752  0.00  0.00    +0.166 A 
ATOM     33  C   UNL     1       2.053   0.857   0.731  0.00  0.00    +0.167 A 
ATOM     34  C   UNL     1       3.329   0.742   1.249  0.00  0.00    +0.062 A 
ATOM     35  O   UNL     1       1.405   1.910   0.153  0.00  0.00    -0.453 OA
ATOM     36  C   UNL     1       0.007   1.568   0.192  0.00  0.00    +0.466 C 
ATOM     37  O   UNL     1       0.006   0.128   0.187  0.00  0.00    -0.453 OA
ENDBRANCH  26  29
ENDBRANCH  24  25
ENDBRANCH  21  24
ENDBRANCH   2  20
TORSDOF 10
