REMARK  Name = ZINC12150000
REMARK  8 active torsions:
REMARK  status: ('A' for Active; 'I' for Inactive)
REMARK    1  A    between atoms: C_1  and  C_2
REMARK    2  A    between atoms: C_2  and  C_4
REMARK    3  A    between atoms: C_2  and  C_14
REMARK    4  A    between atoms: C_4  and  C_5
REMARK    5  A    between atoms: C_16  and  C_19
REMARK    6  A    between atoms: N_21  and  C_22
REMARK    7  A    between atoms: N_21  and  C_23
REMARK    8  A    between atoms: C_23  and  C_24
REMARK                            x       y       z     vdW  Elec       q    Type
REMARK                         _______ _______ _______ _____ _____    ______ ____
ROOT
ATOM      1  C   UNL     1       1.479  -4.299  -0.584  0.00  0.00    +0.087 A 
ATOM      2  C   UNL     1       0.409  -5.218  -0.658  0.00  0.00    +0.081 A 
ATOM      3  C   UNL     1       1.020  -6.412  -0.929  0.00  0.00    +0.222 A 
ATOM      4  O   UNL     1       2.340  -6.151  -0.988  0.00  0.00    -0.350 OA
ATOM      5  N   UNL     1       2.568  -4.979  -0.795  0.00  0.00    -0.082 NA
ENDROOT
BRANCH   3   6
ATOM      6  C   UNL     1       0.366  -7.721  -1.113  0.00  0.00    +0.285 C 
ATOM      7  O   UNL     1      -0.824  -7.842  -0.895  0.00  0.00    -0.267 OA
ATOM      8  N   UNL     1       1.088  -8.783  -1.523  0.00  0.00    -0.291 N 
ATOM      9  C   UNL     1       2.536  -8.658  -1.706  0.00  0.00    +0.133 C 
BRANCH   8  10
ATOM     10  C   UNL     1       0.424 -10.062  -1.786  0.00  0.00    +0.182 C 
BRANCH  10  11
ATOM     11  C   UNL     1      -0.007 -10.118  -3.228  0.00  0.00    +0.126 A 
ATOM     12  N   UNL     1       0.710 -10.685  -4.235  0.00  0.00    -0.341 N 
ATOM     13  H   UNL     1       1.601 -11.131  -4.150  0.00  0.00    +0.167 HD
ATOM     14  C   UNL     1      -0.020 -10.532  -5.397  0.00  0.00    +0.066 A 
ATOM     15  C   UNL     1       0.183 -10.895  -6.721  0.00  0.00    +0.028 A 
ATOM     16  C   UNL     1      -0.770 -10.584  -7.668  0.00  0.00    +0.002 A 
ATOM     17  C   UNL     1      -1.929  -9.912  -7.305  0.00  0.00    +0.002 A 
ATOM     18  C   UNL     1      -2.146  -9.548  -6.007  0.00  0.00    +0.030 A 
ATOM     19  C   UNL     1      -1.194  -9.852  -5.030  0.00  0.00    +0.089 A 
ATOM     20  N   UNL     1      -1.123  -9.634  -3.692  0.00  0.00    -0.231 NA
ENDBRANCH  10  11
ENDBRANCH   8  10
ENDBRANCH   3   6
BRANCH   1  22
ATOM     21  C   UNL     1       0.105  -2.267  -0.948  0.00  0.00    +0.014 C 
ATOM     22  C   UNL     1       1.380  -2.821  -0.308  0.00  0.00    +0.042 C 
BRANCH  22  23
ATOM     23  C   UNL     1       1.335  -2.586   1.203  0.00  0.00    +0.044 C 
BRANCH  23  24
ATOM     24  C   UNL     1       1.359  -1.105   1.482  0.00  0.00    -0.043 A 
ATOM     25  C   UNL     1       0.173  -0.400   1.570  0.00  0.00    +0.007 A 
ATOM     26  C   UNL     1       0.191   0.958   1.827  0.00  0.00    +0.050 A 
ATOM     27  C   UNL     1       1.398   1.616   1.996  0.00  0.00    +0.166 A 
ATOM     28  C   UNL     1       2.593   0.906   1.907  0.00  0.00    +0.166 A 
ATOM     29  C   UNL     1       2.568  -0.455   1.650  0.00  0.00    +0.053 A 
ATOM     30  O   UNL     1       3.630   1.770   2.108  0.00  0.00    -0.453 OA
ATOM     31  C   UNL     1       3.077   3.086   1.916  0.00  0.00    +0.466 C 
ATOM     32  O   UNL     1       1.687   2.925   2.254  0.00  0.00    -0.453 OA
ENDBRANCH  23  24
ENDBRANCH  22  23
ENDBRANCH   1  22
TORSDOF 6
