REMARK  Name = ZINC24539327
REMARK  6 active torsions:
REMARK  status: ('A' for Active; 'I' for Inactive)
REMARK    1  A    between atoms: C_3  and  C_14
REMARK    2  A    between atoms: C_6  and  C_7
REMARK    3  A    between atoms: C_7  and  N_8
REMARK    4  A    between atoms: N_16  and  N_17
REMARK    5  A    between atoms: C_18  and  C_19
REMARK    6  A    between atoms: C_22  and  N_25
REMARK                            x       y       z     vdW  Elec       q    Type
REMARK                         _______ _______ _______ _____ _____    ______ ____
ROOT
ATOM      1  C   UNL     1      -2.706   2.942   4.742  0.00  0.00    +0.263 C 
ATOM      2  O   UNL     1      -3.587   2.270   5.243  0.00  0.00    -0.268 OA
ATOM      3  N   UNL     1      -2.361   4.121   5.295  0.00  0.00    -0.203 N 
ATOM      4  H   UNL     1      -1.564   4.729   4.842  0.00  0.00    +0.178 HD
ENDROOT
BRANCH   1   7
ATOM      5  C   UNL     1      -0.357   2.780   1.817  0.00  0.00    +0.005 A 
ATOM      6  C   UNL     1      -1.003   3.234   2.948  0.00  0.00    +0.013 A 
ATOM      7  C   UNL     1      -2.014   2.465   3.526  0.00  0.00    +0.038 A 
ATOM      8  C   UNL     1      -2.370   1.244   2.951  0.00  0.00    +0.013 A 
ATOM      9  C   UNL     1      -1.720   0.805   1.816  0.00  0.00    +0.005 A 
ATOM     10  C   UNL     1      -0.718   1.572   1.248  0.00  0.00    -0.033 A 
BRANCH  10  11
ATOM     11  C   UNL     1      -0.013   1.086   0.008  0.00  0.00    +0.119 C 
BRANCH  11  12
ATOM     12  N   UNL     1      -0.723   1.572  -1.182  0.00  0.00    -0.294 NA
ATOM     13  C   UNL     1      -2.057   0.963  -1.285  0.00  0.00    +0.113 C 
ATOM     14  C   UNL     1      -2.784   1.541  -2.502  0.00  0.00    +0.175 C 
ATOM     15  O   UNL     1      -1.994   1.317  -3.674  0.00  0.00    -0.377 OA
ATOM     16  C   UNL     1      -0.689   1.897  -3.608  0.00  0.00    +0.175 C 
ATOM     17  C   UNL     1       0.059   1.323  -2.401  0.00  0.00    +0.113 C 
ENDBRANCH  11  12
ENDBRANCH  10  11
ENDBRANCH   1   7
BRANCH   3  18
ATOM     18  N   UNL     1      -3.017   4.573   6.448  0.00  0.00    -0.187 NA
ATOM     19  C   UNL     1      -2.684   5.709   6.980  0.00  0.00    +0.138 C 
BRANCH  19  20
ATOM     20  C   UNL     1      -3.375   6.185   8.194  0.00  0.00    -0.005 A 
ATOM     21  C   UNL     1      -4.392   5.418   8.768  0.00  0.00    +0.012 A 
ATOM     22  C   UNL     1      -5.030   5.868   9.905  0.00  0.00    +0.033 A 
ATOM     23  C   UNL     1      -4.673   7.079  10.471  0.00  0.00    +0.126 A 
ATOM     24  C   UNL     1      -3.670   7.846   9.904  0.00  0.00    +0.033 A 
ATOM     25  C   UNL     1      -3.019   7.407   8.770  0.00  0.00    +0.012 A 
BRANCH  23  26
ATOM     26  N   UNL     1      -5.367   7.557  11.688  0.00  0.00    +0.056 N 
ATOM     27  O   UNL     1      -5.054   8.623  12.188  0.00  0.00    -0.126 OA
ATOM     28  O   UNL     1      -6.250   6.885  12.189  0.00  0.00    -0.126 OA
ENDBRANCH  23  26
ENDBRANCH  19  20
ENDBRANCH   3  18
TORSDOF 6
