REMARK  Name = ZINC04222523
REMARK  12 active torsions:
REMARK  status: ('A' for Active; 'I' for Inactive)
REMARK    1  A    between atoms: C_1  and  C_2
REMARK    2  A    between atoms: C_2  and  C_3
REMARK    3  A    between atoms: C_3  and  C_4
REMARK    4  A    between atoms: C_4  and  N_5
REMARK    5  A    between atoms: C_14  and  C_38
REMARK    6  A    between atoms: C_15  and  C_17
REMARK    7  A    between atoms: C_17  and  C_18
REMARK    8  A    between atoms: C_26  and  C_28
REMARK    9  A    between atoms: C_31  and  O_37
REMARK   10  A    between atoms: C_33  and  C_34
REMARK   11  A    between atoms: C_33  and  C_35
REMARK   12  A    between atoms: C_35  and  O_36
REMARK                            x       y       z     vdW  Elec       q    Type
REMARK                         _______ _______ _______ _____ _____    ______ ____
ROOT
ATOM      1  N   UNL     1      -0.645  -0.546   9.520  0.00  0.00    -0.323 N 
ATOM      2  C   UNL     1      -1.038  -1.804   9.091  0.00  0.00    +0.159 A 
ATOM      3  N   UNL     1      -1.532  -2.164   7.923  0.00  0.00    -0.229 NA
ATOM      4  C   UNL     1      -1.868  -3.425   7.654  0.00  0.00    +0.058 A 
ATOM      5  C   UNL     1      -1.670  -4.320   8.654  0.00  0.00    +0.015 A 
ATOM      6  S   UNL     1      -1.006  -3.313   9.953  0.00  0.00    -0.057 S 
ATOM      7  C   UNL     1      -1.949  -5.781   8.635  0.00  0.00    +0.049 C 
ATOM      8  C   UNL     1      -2.844  -6.106   7.424  0.00  0.00    +0.011 C 
ATOM      9  C   UNL     1      -2.281  -5.402   6.187  0.00  0.00    -0.019 C 
ATOM     10  C   UNL     1      -2.443  -3.883   6.322  0.00  0.00    +0.054 C 
ATOM     11  C   UNL     1      -3.053  -5.837   4.937  0.00  0.00    +0.010 C 
ATOM     12  C   UNL     1      -2.977  -7.352   4.764  0.00  0.00    +0.032 C 
ATOM     13  C   UNL     1      -3.609  -8.020   5.989  0.00  0.00    +0.123 C 
ATOM     14  C   UNL     1      -2.810  -7.625   7.229  0.00  0.00    +0.021 C 
ATOM     15  C   UNL     1      -3.415  -8.306   8.459  0.00  0.00    +0.016 C 
ATOM     16  C   UNL     1      -0.798  -5.748   6.032  0.00  0.00    +0.012 C 
ATOM     17  H   UNL     1      -0.720   0.215   8.924  0.00  0.00    +0.148 HD
ENDROOT
BRANCH  13  18
ATOM     18  O   UNL     1      -3.578  -9.439   5.830  0.00  0.00    -0.391 OA
ATOM     19  H   UNL     1      -4.057  -9.759   5.054  0.00  0.00    +0.210 HD
ENDBRANCH  13  18
BRANCH   1  20
ATOM     20  C   UNL     1      -0.117  -0.367  10.875  0.00  0.00    +0.103 C 
BRANCH  20  21
ATOM     21  C   UNL     1       0.239   1.105  11.093  0.00  0.00    +0.018 C 
BRANCH  21  23
ATOM     22  C   UNL     1       1.146   2.765  12.725  0.00  0.00    +0.004 C 
ATOM     23  C   UNL     1       0.790   1.293  12.508  0.00  0.00    -0.002 C 
ENDBRANCH  21  23
ENDBRANCH  20  21
ENDBRANCH   1  20
BRANCH  10  24
ATOM     24  C   UNL     1      -1.699  -3.187   5.180  0.00  0.00    +0.106 C 
BRANCH  24  25
ATOM     25  C   UNL     1      -2.054  -1.723   5.168  0.00  0.00    +0.216 C 
ATOM     26  O   UNL     1      -2.826  -1.279   5.991  0.00  0.00    -0.276 OA
ATOM     27  N   UNL     1      -1.514  -0.906   4.241  0.00  0.00    -0.298 N 
ATOM     28  C   UNL     1      -1.852   0.524   4.217  0.00  0.00    +0.126 C 
ATOM     29  C   UNL     1      -2.380   0.879   2.822  0.00  0.00    +0.126 C 
ATOM     30  N   UNL     1      -1.444   0.355   1.817  0.00  0.00    -0.299 N 
ATOM     31  C   UNL     1      -1.111  -1.076   1.838  0.00  0.00    +0.126 C 
ATOM     32  C   UNL     1      -0.578  -1.430   3.237  0.00  0.00    +0.126 C 
ATOM     33  C   UNL     1      -0.905   1.172   0.891  0.00  0.00    +0.213 C 
ATOM     34  O   UNL     1      -1.108   2.366   0.943  0.00  0.00    -0.276 OA
ATOM     35  C   UNL     1      -0.049   0.600  -0.210  0.00  0.00    +0.109 C 
ENDBRANCH  24  25
ENDBRANCH  10  24
BRANCH  14  36
ATOM     36  C   UNL     1      -1.359  -8.082   7.065  0.00  0.00    +0.165 C 
BRANCH  36  37
ATOM     37  O   UNL     1      -1.309  -9.510   7.049  0.00  0.00    -0.394 OA
ATOM     38  H   UNL     1      -0.417  -9.871   6.947  0.00  0.00    +0.209 HD
ENDBRANCH  36  37
ENDBRANCH  14  36
TORSDOF 8
