REMARK  Name = ZINC38925735
REMARK  4 active torsions:
REMARK  status: ('A' for Active; 'I' for Inactive)
REMARK    1  A    between atoms: C_7  and  O_35
REMARK    2  A    between atoms: C_9  and  C_16
REMARK    3  A    between atoms: C_16  and  N_18
REMARK    4  A    between atoms: C_22  and  C_25
REMARK                            x       y       z     vdW  Elec       q    Type
REMARK                         _______ _______ _______ _____ _____    ______ ____
ROOT
ATOM      1  C   UNL     1       2.899  -4.050  -0.307  0.00  0.00    +0.253 C 
ATOM      2  O   UNL     1       2.142  -4.642   0.439  0.00  0.00    -0.273 OA
ENDROOT
BRANCH   1  10
ATOM      3  C   UNL     1      -0.017   1.383   0.010  0.00  0.00    +0.001 A 
ATOM      4  C   UNL     1       1.160   2.114   0.002  0.00  0.00    +0.005 A 
ATOM      5  C   UNL     1       2.376   1.458  -0.029  0.00  0.00    -0.024 A 
ATOM      6  C   UNL     1       2.386   0.085  -0.065  0.00  0.00    +0.045 A 
ATOM      7  C   UNL     1       1.207  -0.662  -0.021  0.00  0.00    +0.004 A 
ATOM      8  C   UNL     1       0.002  -0.004   0.002  0.00  0.00    +0.008 A 
ATOM      9  C   UNL     1       1.357  -2.157   0.038  0.00  0.00    +0.167 C 
ATOM     10  C   UNL     1       2.631  -2.612  -0.668  0.00  0.00    +0.196 C 
ATOM     11  C   UNL     1       3.838  -1.786  -0.292  0.00  0.00    +0.235 C 
ATOM     12  O   UNL     1       4.921  -2.306  -0.132  0.00  0.00    -0.274 OA
ATOM     13  N   UNL     1       3.681  -0.453  -0.139  0.00  0.00    -0.270 N 
ATOM     14  C   UNL     1       4.650   0.629  -0.064  0.00  0.00    +0.118 C 
ATOM     15  C   UNL     1       3.813   1.926  -0.022  0.00  0.00    +0.056 C 
BRANCH   9  16
ATOM     16  O   UNL     1       1.407  -2.569   1.405  0.00  0.00    -0.386 OA
ATOM     17  H   UNL     1       0.619  -2.338   1.915  0.00  0.00    +0.210 HD
ENDBRANCH   9  16
ENDBRANCH   1  10
BRANCH   1  18
ATOM     18  N   UNL     1       3.961  -4.672  -0.803  0.00  0.00    -0.156 NA
ATOM     19  C   UNL     1       4.198  -5.946  -0.484  0.00  0.00    +0.163 A 
ATOM     20  N   UNL     1       3.470  -6.765   0.321  0.00  0.00    -0.339 N 
ATOM     21  H   UNL     1       2.662  -6.443   0.750  0.00  0.00    +0.167 HD
ATOM     22  C   UNL     1       3.894  -8.043   0.513  0.00  0.00    +0.031 A 
ATOM     23  C   UNL     1       5.017  -8.417  -0.111  0.00  0.00    +0.070 A 
ATOM     24  S   UNL     1       5.466  -6.929  -0.986  0.00  0.00    -0.060 S 
BRANCH  22  25
ATOM     25  C   UNL     1       3.131  -8.998   1.394  0.00  0.00    +0.012 C 
ATOM     26  C   UNL     1       1.714  -9.178   0.844  0.00  0.00    +0.016 C 
ATOM     27  C   UNL     1       0.939 -10.148   1.738  0.00  0.00    -0.010 C 
ATOM     28  C   UNL     1       1.653 -11.501   1.761  0.00  0.00    +0.007 C 
ATOM     29  C   UNL     1       3.070 -11.321   2.311  0.00  0.00    -0.010 C 
ATOM     30  C   UNL     1       3.844 -10.351   1.417  0.00  0.00    +0.016 C 
ATOM     31  C   UNL     1       2.997 -10.758   3.732  0.00  0.00    +0.007 C 
ATOM     32  C   UNL     1       2.283  -9.405   3.708  0.00  0.00    -0.010 C 
ATOM     33  C   UNL     1       0.867  -9.585   3.159  0.00  0.00    +0.007 C 
ATOM     34  C   UNL     1       3.058  -8.435   2.814  0.00  0.00    +0.016 C 
ENDBRANCH  22  25
ENDBRANCH   1  18
TORSDOF 4
