REMARK  Name = ZINC04854979
REMARK  8 active torsions:
REMARK  status: ('A' for Active; 'I' for Inactive)
REMARK    1  A    between atoms: C_3  and  O_24
REMARK    2  A    between atoms: C_6  and  N_7
REMARK    3  A    between atoms: C_8  and  C_10
REMARK    4  A    between atoms: C_10  and  S_11
REMARK    5  A    between atoms: S_11  and  C_12
REMARK    6  A    between atoms: C_15  and  C_18
REMARK    7  A    between atoms: N_16  and  N_17
REMARK    8  A    between atoms: O_24  and  C_25
REMARK                            x       y       z     vdW  Elec       q    Type
REMARK                         _______ _______ _______ _____ _____    ______ ____
ROOT
ATOM      1  C   UNL     1      -4.732   2.139  -0.505  0.00  0.00    +0.173 C 
ENDROOT
BRANCH   1   3
ATOM      2  N   UNL     1      -7.111   2.418   0.110  0.00  0.00    -0.285 N 
ATOM      3  C   UNL     1      -5.870   2.045   0.478  0.00  0.00    +0.227 C 
ATOM      4  O   UNL     1      -5.668   1.632   1.601  0.00  0.00    -0.275 OA
ATOM      5  H   UNL     1      -7.260   2.811  -0.764  0.00  0.00    +0.155 HD
BRANCH   2  11
ATOM      6  C   UNL     1      -9.443   1.916   0.497  0.00  0.00    +0.027 A 
ATOM      7  C   UNL     1     -10.501   1.736   1.366  0.00  0.00    +0.047 A 
ATOM      8  C   UNL     1     -10.311   1.890   2.731  0.00  0.00    +0.127 A 
ATOM      9  C   UNL     1      -9.057   2.219   3.225  0.00  0.00    +0.047 A 
ATOM     10  C   UNL     1      -7.997   2.394   2.358  0.00  0.00    +0.027 A 
ATOM     11  C   UNL     1      -8.186   2.240   0.991  0.00  0.00    +0.034 A 
BRANCH   8  12
ATOM     12  O   UNL     1     -11.354   1.718   3.586  0.00  0.00    -0.434 OA
BRANCH  12  13
ATOM     13  C   UNL     1     -12.617   1.380   3.008  0.00  0.00    +0.541 C 
ATOM     14  F   UNL     1     -13.014   2.394   2.130  0.00  0.00    -0.166 F 
ATOM     15  F   UNL     1     -12.502   0.175   2.308  0.00  0.00    -0.166 F 
ENDBRANCH  12  13
ENDBRANCH   8  12
ENDBRANCH   2  11
ENDBRANCH   1   3
BRANCH   1  16
ATOM     16  S   UNL     1      -3.205   1.568   0.282  0.00  0.00    -0.075 S 
BRANCH  16  17
ATOM     17  C   UNL     1      -2.075   1.781  -1.053  0.00  0.00    +0.209 A 
ATOM     18  N   UNL     1      -2.359   2.234  -2.252  0.00  0.00    -0.121 NA
ATOM     19  N   UNL     1      -1.296   2.257  -2.974  0.00  0.00    -0.132 NA
ATOM     20  C   UNL     1      -0.277   1.828  -2.283  0.00  0.00    +0.154 A 
ATOM     21  N   UNL     1      -0.738   1.504  -1.037  0.00  0.00    -0.228 N 
BRANCH  20  22
ATOM     22  C   UNL     1       1.144   1.708  -2.769  0.00  0.00    +0.059 C 
ATOM     23  C   UNL     1       1.657   3.086  -3.191  0.00  0.00    +0.011 C 
ATOM     24  C   UNL     1       3.100   2.964  -3.684  0.00  0.00    +0.001 C 
ATOM     25  C   UNL     1       3.151   2.013  -4.881  0.00  0.00    +0.000 C 
ATOM     26  C   UNL     1       2.639   0.634  -4.460  0.00  0.00    +0.001 C 
ATOM     27  C   UNL     1       1.195   0.756  -3.966  0.00  0.00    +0.011 C 
ENDBRANCH  20  22
BRANCH  21  28
ATOM     28  N   UNL     1      -0.010   1.011   0.009  0.00  0.00    -0.295 N 
ATOM     29  H   UNL     1       0.004   0.003  -0.004  0.00  0.00    +0.163 HD
ATOM     30  H   UNL     1       0.926   1.387   0.006  0.00  0.00    +0.163 HD
ENDBRANCH  21  28
ENDBRANCH  16  17
ENDBRANCH   1  16
TORSDOF 8
