REMARK  Name = ZINC59322125
REMARK  7 active torsions:
REMARK  status: ('A' for Active; 'I' for Inactive)
REMARK    1  A    between atoms: C_1  and  C_2
REMARK    2  A    between atoms: C_4  and  N_26
REMARK    3  A    between atoms: C_7  and  N_8
REMARK    4  A    between atoms: C_9  and  C_11
REMARK    5  A    between atoms: N_16  and  C_18
REMARK    6  A    between atoms: C_21  and  O_24
REMARK    7  A    between atoms: O_24  and  C_25
REMARK                            x       y       z     vdW  Elec       q    Type
REMARK                         _______ _______ _______ _____ _____    ______ ____
ROOT
ATOM      1  N   UNL     1       0.013  -0.007   2.419  0.00  0.00    -0.285 N 
ATOM      2  C   UNL     1      -0.072  -0.686   3.580  0.00  0.00    +0.222 C 
ATOM      3  O   UNL     1      -0.069  -1.899   3.574  0.00  0.00    -0.275 OA
ATOM      4  H   UNL     1       0.074   0.961   2.427  0.00  0.00    +0.155 HD
ENDROOT
BRANCH   1  11
ATOM      5  C   UNL     1      -1.267   1.204   0.185  0.00  0.00    +0.046 C 
ATOM      6  C   UNL     1      -0.600  -0.144   0.087  0.00  0.00    -0.027 A 
ATOM      7  C   UNL     1      -0.593  -0.826  -1.114  0.00  0.00    +0.038 A 
ATOM      8  C   UNL     1       0.019  -2.063  -1.205  0.00  0.00    +0.127 A 
ATOM      9  C   UNL     1       0.626  -2.620  -0.094  0.00  0.00    +0.034 A 
ATOM     10  C   UNL     1       0.623  -1.943   1.109  0.00  0.00    +0.026 A 
ATOM     11  C   UNL     1       0.014  -0.698   1.202  0.00  0.00    +0.036 A 
BRANCH   8  12
ATOM     12  N   UNL     1       0.024  -2.792  -2.493  0.00  0.00    +0.056 N 
ATOM     13  O   UNL     1      -0.507  -2.306  -3.465  0.00  0.00    -0.126 OA
ATOM     14  O   UNL     1       0.559  -3.873  -2.574  0.00  0.00    -0.126 OA
ENDBRANCH   8  12
ENDBRANCH   1  11
BRANCH   2  15
ATOM     15  C   UNL     1      -0.172   0.061   4.884  0.00  0.00    +0.102 C 
ATOM     16  C   UNL     1       1.113   0.879   5.154  0.00  0.00    +0.110 C 
ATOM     17  C   UNL     1       1.317   0.767   6.648  0.00  0.00    +0.221 C 
ATOM     18  O   UNL     1       2.042   1.484   7.306  0.00  0.00    -0.275 OA
ATOM     19  N   UNL     1       0.578  -0.241   7.142  0.00  0.00    -0.271 N 
ATOM     20  C   UNL     1      -0.182  -0.915   6.082  0.00  0.00    +0.127 C 
BRANCH  19  21
ATOM     21  C   UNL     1       0.536  -0.602   8.495  0.00  0.00    +0.036 A 
ATOM     22  C   UNL     1       1.193   0.174   9.441  0.00  0.00    +0.027 A 
ATOM     23  C   UNL     1       1.151  -0.182  10.775  0.00  0.00    +0.047 A 
ATOM     24  C   UNL     1       0.453  -1.314  11.169  0.00  0.00    +0.120 A 
ATOM     25  C   UNL     1      -0.203  -2.089  10.225  0.00  0.00    +0.047 A 
ATOM     26  C   UNL     1      -0.167  -1.731   8.892  0.00  0.00    +0.027 A 
BRANCH  24  27
ATOM     27  O   UNL     1       0.413  -1.664  12.483  0.00  0.00    -0.495 OA
ATOM     28  C   UNL     1      -0.324  -2.842  12.818  0.00  0.00    +0.277 C 
ENDBRANCH  24  27
ENDBRANCH  19  21
ENDBRANCH   2  15
TORSDOF 5
