REMARK  Name = ZINC38547408
REMARK  6 active torsions:
REMARK  status: ('A' for Active; 'I' for Inactive)
REMARK    1  A    between atoms: C_1  and  C_2
REMARK    2  A    between atoms: N_8  and  C_9
REMARK    3  A    between atoms: C_9  and  C_11
REMARK    4  A    between atoms: C_9  and  C_17
REMARK    5  A    between atoms: C_21  and  N_22
REMARK    6  A    between atoms: C_23  and  C_25
REMARK                            x       y       z     vdW  Elec       q    Type
REMARK                         _______ _______ _______ _____ _____    ______ ____
ROOT
ATOM      1  C   UNL     1      -0.634  -2.896   4.723  0.00  0.00    +0.009 A 
ATOM      2  C   UNL     1      -1.646  -2.286   5.465  0.00  0.00    -0.030 A 
ATOM      3  C   UNL     1      -2.229  -3.039   6.436  0.00  0.00    -0.005 A 
ATOM      4  S   UNL     1      -1.385  -4.595   6.332  0.00  0.00    -0.078 S 
ATOM      5  C   UNL     1      -0.283  -4.183   4.987  0.00  0.00    +0.078 A 
ATOM      6  C   UNL     1      -3.324  -2.635   7.369  0.00  0.00    +0.043 C 
ATOM      7  C   UNL     1      -3.460  -1.105   7.319  0.00  0.00    +0.005 C 
ATOM      8  C   UNL     1      -3.485  -0.661   5.854  0.00  0.00    +0.005 C 
ATOM      9  C   UNL     1      -2.103  -0.850   5.227  0.00  0.00    +0.036 C 
ENDROOT
BRANCH   5  10
ATOM     10  N   UNL     1       0.686  -4.976   4.370  0.00  0.00    -0.273 N 
ATOM     11  C   UNL     1       0.961  -6.204   4.853  0.00  0.00    +0.284 C 
ATOM     12  O   UNL     1       0.363  -6.622   5.827  0.00  0.00    -0.266 OA
ATOM     13  H   UNL     1       1.162  -4.642   3.593  0.00  0.00    +0.156 HD
BRANCH  11  14
ATOM     14  C   UNL     1       1.979  -7.036   4.205  0.00  0.00    +0.189 A 
ATOM     15  C   UNL     1       2.349  -8.294   4.586  0.00  0.00    +0.054 A 
ATOM     16  C   UNL     1       3.347  -8.709   3.691  0.00  0.00    +0.042 A 
ATOM     17  C   UNL     1       3.540  -7.700   2.813  0.00  0.00    +0.196 A 
ATOM     18  O   UNL     1       2.710  -6.695   3.123  0.00  0.00    -0.458 OA
ENDBRANCH  11  14
ENDBRANCH   5  10
BRANCH   1  19
ATOM     19  C   UNL     1       0.064  -2.133   3.628  0.00  0.00    +0.136 C 
BRANCH  19  27
ATOM     20  C   UNL     1       0.995   1.050  -0.280  0.00  0.00    +0.044 C 
ATOM     21  C   UNL     1       0.807  -0.439  -0.138  0.00  0.00    -0.046 A 
ATOM     22  C   UNL     1       0.877  -1.272  -1.247  0.00  0.00    +0.021 A 
ATOM     23  C   UNL     1       0.701  -2.631  -1.084  0.00  0.00    +0.084 A 
ATOM     24  N   UNL     1       0.469  -3.145   0.109  0.00  0.00    -0.350 N 
ATOM     25  C   UNL     1       0.395  -2.385   1.190  0.00  0.00    +0.097 A 
ATOM     26  C   UNL     1       0.568  -1.007   1.100  0.00  0.00    +0.045 A 
ATOM     27  N   UNL     1       0.148  -2.968   2.427  0.00  0.00    -0.320 N 
ATOM     28  H   UNL     1       0.031  -3.929   2.495  0.00  0.00    +0.148 HD
ATOM     29  H   UNL     1       0.349  -4.104   0.196  0.00  0.00    +0.166 HD
ENDBRANCH  19  27
BRANCH  19  30
ATOM     30  C   UNL     1       1.454  -1.763   4.080  0.00  0.00    -0.005 A 
ATOM     31  C   UNL     1       1.681  -0.567   4.743  0.00  0.00    +0.009 A 
ATOM     32  C   UNL     1       2.975  -0.269   5.141  0.00  0.00    +0.020 A 
ATOM     33  C   UNL     1       3.989  -1.167   4.865  0.00  0.00    +0.111 A 
ATOM     34  N   UNL     1       3.736  -2.296   4.231  0.00  0.00    -0.263 NA
ATOM     35  C   UNL     1       2.516  -2.615   3.844  0.00  0.00    +0.116 A 
ENDBRANCH  19  30
ENDBRANCH   1  19
TORSDOF 5
