REMARK  Name = ZINC14698295
REMARK  7 active torsions:
REMARK  status: ('A' for Active; 'I' for Inactive)
REMARK    1  A    between atoms: C_1  and  C_2
REMARK    2  A    between atoms: C_5  and  C_31
REMARK    3  A    between atoms: N_8  and  S_10
REMARK    4  A    between atoms: S_10  and  C_13
REMARK    5  A    between atoms: C_16  and  N_19
REMARK    6  A    between atoms: C_20  and  C_22
REMARK    7  A    between atoms: C_25  and  N_28
REMARK                            x       y       z     vdW  Elec       q    Type
REMARK                         _______ _______ _______ _____ _____    ______ ____
ROOT
ATOM      1  C   UNL     1       2.555  -3.283  -0.211  0.00  0.00    +0.106 A 
ATOM      2  C   UNL     1       2.228  -4.487  -0.806  0.00  0.00    +0.030 A 
ATOM      3  C   UNL     1       2.653  -4.763  -2.091  0.00  0.00    +0.025 A 
ATOM      4  C   UNL     1       3.410  -3.829  -2.785  0.00  0.00    +0.034 A 
ATOM      5  C   UNL     1       3.738  -2.620  -2.185  0.00  0.00    +0.025 A 
ATOM      6  C   UNL     1       3.304  -2.348  -0.902  0.00  0.00    +0.030 A 
ENDROOT
BRANCH   4   7
ATOM      7  N   UNL     1       3.843  -4.106  -4.086  0.00  0.00    -0.282 N 
ATOM      8  C   UNL     1       3.075  -4.847  -4.909  0.00  0.00    +0.248 C 
ATOM      9  O   UNL     1       1.965  -5.195  -4.555  0.00  0.00    -0.270 OA
ATOM     10  H   UNL     1       4.696  -3.764  -4.396  0.00  0.00    +0.155 HD
BRANCH   8  11
ATOM     11  C   UNL     1       3.582  -5.238  -6.241  0.00  0.00    +0.037 A 
ATOM     12  C   UNL     1       4.858  -4.845  -6.648  0.00  0.00    +0.015 A 
ATOM     13  C   UNL     1       5.325  -5.213  -7.893  0.00  0.00    +0.033 A 
ATOM     14  C   UNL     1       4.532  -5.970  -8.737  0.00  0.00    +0.126 A 
ATOM     15  C   UNL     1       3.266  -6.362  -8.340  0.00  0.00    +0.033 A 
ATOM     16  C   UNL     1       2.789  -6.006  -7.095  0.00  0.00    +0.015 A 
BRANCH  14  17
ATOM     17  N   UNL     1       5.040  -6.360 -10.072  0.00  0.00    +0.056 N 
ATOM     18  O   UNL     1       6.145  -6.019 -10.422  0.00  0.00    -0.126 OA
ATOM     19  O   UNL     1       4.348  -7.021 -10.812  0.00  0.00    -0.126 OA
ENDBRANCH  14  17
ENDBRANCH   8  11
ENDBRANCH   4   7
BRANCH   1  20
ATOM     20  S   UNL     1       2.010  -2.935   1.428  0.00  0.00    +0.061 S 
ATOM     21  O   UNL     1       2.904  -1.964   1.955  0.00  0.00    -0.153 OA
ATOM     22  O   UNL     1       1.790  -4.190   2.057  0.00  0.00    -0.153 OA
BRANCH  20  28
ATOM     23  C   UNL     1      -0.641   1.120  -0.087  0.00  0.00    +0.009 C 
ATOM     24  C   UNL     1      -0.409  -0.391  -0.035  0.00  0.00    +0.002 C 
ATOM     25  C   UNL     1      -1.756  -1.112   0.048  0.00  0.00    +0.009 C 
ATOM     26  C   UNL     1      -1.527  -2.625   0.067  0.00  0.00    +0.002 C 
ATOM     27  C   UNL     1      -0.703  -2.997   1.304  0.00  0.00    +0.112 C 
ATOM     28  N   UNL     1       0.531  -2.200   1.306  0.00  0.00    -0.176 NA
ATOM     29  C   UNL     1       0.429  -0.738   1.200  0.00  0.00    +0.112 C 
ATOM     30  C   UNL     1      -2.876  -3.345   0.116  0.00  0.00    +0.009 C 
ENDBRANCH  20  28
ENDBRANCH   1  20
TORSDOF 5
