REMARK  Name = ZINC00705287
REMARK  7 active torsions:
REMARK  status: ('A' for Active; 'I' for Inactive)
REMARK    1  A    between atoms: C_1  and  O_2
REMARK    2  A    between atoms: O_2  and  C_3
REMARK    3  A    between atoms: C_5  and  C_10
REMARK    4  A    between atoms: C_8  and  O_9
REMARK    5  A    between atoms: C_11  and  N_19
REMARK    6  A    between atoms: C_20  and  C_21
REMARK    7  A    between atoms: C_23  and  N_28
REMARK                            x       y       z     vdW  Elec       q    Type
REMARK                         _______ _______ _______ _____ _____    ______ ____
ROOT
ATOM      1  C   UNL     1      -0.626   3.493   0.026  0.00  0.00    +0.116 A 
ATOM      2  C   UNL     1       0.858   3.433   0.012  0.00  0.00    +0.165 A 
ATOM      3  N   UNL     1       1.165   2.079   0.002  0.00  0.00    -0.284 N 
ATOM      4  C   UNL     1       2.356   1.424  -0.013  0.00  0.00    +0.095 A 
ATOM      5  C   UNL     1       2.403   0.063  -0.021  0.00  0.00    +0.018 A 
ATOM      6  C   UNL     1       1.219  -0.672  -0.013  0.00  0.00    +0.005 A 
ATOM      7  C   UNL     1       0.002  -0.004   0.002  0.00  0.00    +0.047 A 
ATOM      8  C   UNL     1      -0.017   1.392   0.010  0.00  0.00    +0.140 A 
ATOM      9  N   UNL     1      -1.054   2.250   0.019  0.00  0.00    -0.226 NA
ENDROOT
BRANCH   1  12
ATOM     10  C   UNL     1      -3.453   5.873  -0.630  0.00  0.00    +0.162 A 
ATOM     11  C   UNL     1      -2.677   4.733  -0.649  0.00  0.00    +0.059 A 
ATOM     12  C   UNL     1      -1.457   4.708   0.040  0.00  0.00    +0.008 A 
ATOM     13  C   UNL     1      -1.027   5.846   0.737  0.00  0.00    +0.014 A 
ATOM     14  C   UNL     1      -1.805   6.981   0.747  0.00  0.00    +0.050 A 
ATOM     15  C   UNL     1      -3.018   7.003   0.068  0.00  0.00    +0.158 A 
BRANCH  10  17
ATOM     16  C   UNL     1      -5.022   4.709  -1.985  0.00  0.00    +0.277 C 
ATOM     17  O   UNL     1      -4.639   5.899  -1.293  0.00  0.00    -0.491 OA
ENDBRANCH  10  17
BRANCH  15  18
ATOM     18  O   UNL     1      -3.781   8.125   0.081  0.00  0.00    -0.503 OA
ATOM     19  H   UNL     1      -3.590   8.739  -0.641  0.00  0.00    +0.292 HD
ENDBRANCH  15  18
ENDBRANCH   1  12
BRANCH   2  20
ATOM     20  N   UNL     1       1.702   4.448   0.009  0.00  0.00    -0.235 NA
ATOM     21  C   UNL     1       2.117   4.965  -1.145  0.00  0.00    +0.122 C 
BRANCH  21  22
ATOM     22  C   UNL     1       3.018   6.047  -1.147  0.00  0.00    +0.014 A 
ATOM     23  C   UNL     1       3.461   6.599  -2.368  0.00  0.00    +0.047 A 
ATOM     24  C   UNL     1       4.332   7.645  -2.363  0.00  0.00    +0.173 A 
ATOM     25  C   UNL     1       4.788   8.174  -1.153  0.00  0.00    +0.210 A 
ATOM     26  C   UNL     1       4.357   7.636   0.059  0.00  0.00    +0.073 A 
ATOM     27  C   UNL     1       3.479   6.590   0.072  0.00  0.00    +0.053 A 
ATOM     28 CL   UNL     1       2.938   5.926   1.581  0.00  0.00    -0.083 Cl
ATOM     29  O   UNL     1       5.654   9.214  -1.157  0.00  0.00    -0.285 OA
BRANCH  24  30
ATOM     30  N   UNL     1       4.797   8.225  -3.643  0.00  0.00    +0.060 N 
ATOM     31  O   UNL     1       4.368   7.728  -4.785  0.00  0.00    -0.126 OA
ATOM     32  O   UNL     1       5.639   9.237  -3.640  0.00  0.00    -0.126 OA
ENDBRANCH  24  30
ENDBRANCH  21  22
ENDBRANCH   2  20
TORSDOF 6
