REMARK  Name = ZINC10733711
REMARK  8 active torsions:
REMARK  status: ('A' for Active; 'I' for Inactive)
REMARK    1  A    between atoms: C_3  and  N_29
REMARK    2  A    between atoms: C_4  and  N_26
REMARK    3  A    between atoms: C_6  and  C_7
REMARK    4  A    between atoms: C_7  and  O_9
REMARK    5  A    between atoms: O_9  and  C_10
REMARK    6  A    between atoms: C_10  and  C_11
REMARK    7  A    between atoms: N_13  and  C_14
REMARK    8  A    between atoms: C_15  and  C_23
REMARK                            x       y       z     vdW  Elec       q    Type
REMARK                         _______ _______ _______ _____ _____    ______ ____
ROOT
ATOM      1  C   UNL     1      -3.627  -0.900   0.033  0.00  0.00    +0.328 C 
ENDROOT
BRANCH   1   2
ATOM      2  C   UNL     1      -4.835   0.001   0.050  0.00  0.00    +0.255 C 
ATOM      3  O   UNL     1      -4.694   1.205   0.055  0.00  0.00    -0.272 OA
ATOM      4  N   UNL     1      -6.073  -0.533   0.059  0.00  0.00    -0.277 N 
ATOM      5  H   UNL     1      -6.186  -1.497   0.056  0.00  0.00    +0.155 HD
BRANCH   4   6
ATOM      6  C   UNL     1      -7.185   0.295   0.075  0.00  0.00    +0.084 A 
ATOM      7  C   UNL     1      -8.521  -0.073   0.092  0.00  0.00    +0.068 A 
ATOM      8  C   UNL     1      -9.504   0.997   0.106  0.00  0.00    -0.023 A 
ATOM      9  C   UNL     1      -8.971   2.237   0.100  0.00  0.00    -0.004 A 
ATOM     10  S   UNL     1      -7.222   1.974   0.085  0.00  0.00    -0.077 S 
ATOM     11  C   UNL     1      -9.716   3.536   0.109  0.00  0.00    +0.043 C 
ATOM     12  C   UNL     1     -11.181   3.255  -0.254  0.00  0.00    +0.005 C 
ATOM     13  C   UNL     1     -11.683   2.078   0.588  0.00  0.00    +0.005 C 
ATOM     14  C   UNL     1     -11.011   0.783   0.127  0.00  0.00    +0.037 C 
BRANCH   7  15
ATOM     15  C   UNL     1      -8.925  -1.482   0.095  0.00  0.00    +0.244 C 
ATOM     16  O   UNL     1      -9.080  -2.068   1.150  0.00  0.00    -0.270 OA
ATOM     17  N   UNL     1      -9.126  -2.128  -1.071  0.00  0.00    -0.325 N 
ATOM     18  H   UNL     1      -9.003  -1.661  -1.911  0.00  0.00    +0.145 HD
ATOM     19  H   UNL     1      -9.393  -3.061  -1.068  0.00  0.00    +0.145 HD
ENDBRANCH   7  15
ENDBRANCH   4   6
ENDBRANCH   1   2
BRANCH   1  20
ATOM     20  O   UNL     1      -2.440  -0.104   0.026  0.00  0.00    -0.452 OA
BRANCH  20  21
ATOM     21  C   UNL     1      -1.263  -0.760   0.011  0.00  0.00    +0.340 C 
ATOM     22  O   UNL     1      -1.245  -1.975   0.004  0.00  0.00    -0.245 OA
BRANCH  21  28
ATOM     23  C   UNL     1      -0.017   1.394   0.010  0.00  0.00    +0.017 A 
ATOM     24  C   UNL     1       1.168   2.095   0.002  0.00  0.00    +0.026 A 
ATOM     25  C   UNL     1       2.380   1.409  -0.013  0.00  0.00    +0.060 A 
ATOM     26  C   UNL     1       2.397   0.017  -0.021  0.00  0.00    +0.148 A 
ATOM     27  C   UNL     1       1.224  -0.684  -0.014  0.00  0.00    +0.049 A 
ATOM     28  C   UNL     1       0.002  -0.004   0.002  0.00  0.00    +0.061 A 
BRANCH  25  29
ATOM     29  N   UNL     1       3.577   2.117  -0.021  0.00  0.00    -0.328 N 
ATOM     30  C   UNL     1       4.300   2.565  -1.220  0.00  0.00    +0.105 C 
ATOM     31  C   UNL     1       5.579   3.283  -0.742  0.00  0.00    +0.020 C 
ATOM     32  C   UNL     1       5.791   2.705   0.682  0.00  0.00    +0.020 C 
ATOM     33  C   UNL     1       4.328   2.548   1.173  0.00  0.00    +0.105 C 
ENDBRANCH  25  29
BRANCH  26  34
ATOM     34  N   UNL     1       3.688  -0.705  -0.038  0.00  0.00    +0.058 N 
ATOM     35  O   UNL     1       3.704  -1.914  -0.045  0.00  0.00    -0.126 OA
ATOM     36  O   UNL     1       4.727  -0.087  -0.044  0.00  0.00    -0.126 OA
ENDBRANCH  26  34
ENDBRANCH  21  28
ENDBRANCH  20  21
ENDBRANCH   1  20
TORSDOF 8
