REMARK  Name = ZINC09602835
REMARK  9 active torsions:
REMARK  status: ('A' for Active; 'I' for Inactive)
REMARK    1  A    between atoms: C_1  and  C_2
REMARK    2  A    between atoms: C_5  and  N_8
REMARK    3  A    between atoms: C_9  and  C_32
REMARK    4  A    between atoms: C_11  and  C_17
REMARK    5  A    between atoms: C_17  and  O_19
REMARK    6  A    between atoms: O_19  and  C_20
REMARK    7  A    between atoms: C_20  and  C_21
REMARK    8  A    between atoms: N_23  and  C_24
REMARK    9  A    between atoms: C_25  and  C_29
REMARK                            x       y       z     vdW  Elec       q    Type
REMARK                         _______ _______ _______ _____ _____    ______ ____
ROOT
ATOM      1  N   UNL     1       0.057  -4.170  -0.021  0.00  0.00    -0.263 N 
ATOM      2  C   UNL     1      -0.059  -4.847  -1.306  0.00  0.00    +0.132 C 
ATOM      3  C   UNL     1       0.442  -6.288  -1.198  0.00  0.00    +0.124 C 
ATOM      4  C   UNL     1      -0.244  -6.958  -0.002  0.00  0.00    +0.026 C 
ATOM      5  C   UNL     1       0.261  -6.293   1.280  0.00  0.00    +0.097 C 
ATOM      6  C   UNL     1       0.184  -4.800   1.148  0.00  0.00    +0.220 C 
ATOM      7  O   UNL     1       0.236  -4.130   2.158  0.00  0.00    -0.275 OA
ENDROOT
BRANCH   1  12
ATOM      8  C   UNL     1      -0.018   1.503   0.010  0.00  0.00    +0.044 C 
ATOM      9  C   UNL     1       0.002  -0.004   0.002  0.00  0.00    -0.050 A 
ATOM     10  C   UNL     1       1.145  -0.681   0.384  0.00  0.00    +0.005 A 
ATOM     11  C   UNL     1       1.165  -2.062   0.382  0.00  0.00    +0.024 A 
ATOM     12  C   UNL     1       0.038  -2.771  -0.013  0.00  0.00    +0.037 A 
ATOM     13  C   UNL     1      -1.107  -2.088  -0.401  0.00  0.00    +0.024 A 
ATOM     14  C   UNL     1      -1.123  -0.707  -0.391  0.00  0.00    +0.005 A 
ENDBRANCH   1  12
BRANCH   2  15
ATOM     15  C   UNL     1       0.761  -4.111  -2.333  0.00  0.00    +0.011 A 
ATOM     16  C   UNL     1       0.468  -3.845  -3.630  0.00  0.00    +0.013 A 
ATOM     17  C   UNL     1       1.382  -3.144  -4.394  0.00  0.00    +0.008 A 
ATOM     18  C   UNL     1       2.544  -2.743  -3.825  0.00  0.00    +0.045 A 
ATOM     19  S   UNL     1       2.368  -3.353  -2.156  0.00  0.00    -0.100 S 
ENDBRANCH   2  15
BRANCH   3  20
ATOM     20  C   UNL     1       0.102  -7.037  -2.461  0.00  0.00    +0.313 C 
ATOM     21  O   UNL     1      -0.483  -6.476  -3.358  0.00  0.00    -0.250 OA
BRANCH  20  22
ATOM     22  O   UNL     1       0.448  -8.328  -2.590  0.00  0.00    -0.455 OA
BRANCH  22  23
ATOM     23  C   UNL     1       0.088  -8.986  -3.833  0.00  0.00    +0.328 C 
BRANCH  23  24
ATOM     24  C   UNL     1       0.554 -10.419  -3.796  0.00  0.00    +0.255 C 
ATOM     25  O   UNL     1       1.132 -10.843  -2.818  0.00  0.00    -0.272 OA
ATOM     26  N   UNL     1       0.328 -11.228  -4.849  0.00  0.00    -0.277 N 
ATOM     27  H   UNL     1      -0.135 -10.889  -5.631  0.00  0.00    +0.155 HD
BRANCH  26  28
ATOM     28  C   UNL     1       0.756 -12.547  -4.815  0.00  0.00    +0.084 A 
ATOM     29  C   UNL     1       0.613 -13.527  -5.790  0.00  0.00    +0.065 A 
ATOM     30  C   UNL     1       1.163 -14.827  -5.490  0.00  0.00    +0.022 A 
ATOM     31  C   UNL     1       1.756 -14.981  -4.293  0.00  0.00    +0.048 A 
ATOM     32  S   UNL     1       1.593 -13.373  -3.545  0.00  0.00    -0.081 S 
BRANCH  29  33
ATOM     33  C   UNL     1      -0.061 -13.252  -7.064  0.00  0.00    +0.244 C 
ATOM     34  O   UNL     1      -0.511 -12.144  -7.287  0.00  0.00    -0.270 OA
ATOM     35  N   UNL     1      -0.181 -14.227  -7.986  0.00  0.00    -0.325 N 
ATOM     36  H   UNL     1       0.177 -15.111  -7.808  0.00  0.00    +0.145 HD
ATOM     37  H   UNL     1      -0.627 -14.046  -8.828  0.00  0.00    +0.145 HD
ENDBRANCH  29  33
ENDBRANCH  26  28
ENDBRANCH  23  24
ENDBRANCH  22  23
ENDBRANCH  20  22
ENDBRANCH   3  20
TORSDOF 8
