REMARK  Name = ZINC63389523
REMARK  11 active torsions:
REMARK  status: ('A' for Active; 'I' for Inactive)
REMARK    1  A    between atoms: C_1  and  C_2
REMARK    2  A    between atoms: C_2  and  C_3
REMARK    3  A    between atoms: C_2  and  C_4
REMARK    4  A    between atoms: C_4  and  C_6
REMARK    5  A    between atoms: C_4  and  N_10
REMARK    6  A    between atoms: C_6  and  O_8
REMARK    7  A    between atoms: O_8  and  C_9
REMARK    8  A    between atoms: C_11  and  C_13
REMARK    9  A    between atoms: N_21  and  C_24
REMARK   10  A    between atoms: C_24  and  C_25
REMARK   11  A    between atoms: C_25  and  C_26
REMARK                            x       y       z     vdW  Elec       q    Type
REMARK                         _______ _______ _______ _____ _____    ______ ____
ROOT
ATOM      1  C   UNL     1      -3.397   1.630   2.446  0.00  0.00    +0.037 A 
ATOM      2  C   UNL     1      -3.438   0.825   3.584  0.00  0.00    +0.014 A 
ATOM      3  C   UNL     1      -4.084   1.263   4.727  0.00  0.00    +0.014 A 
ATOM      4  C   UNL     1      -4.693   2.508   4.743  0.00  0.00    +0.049 A 
ATOM      5  C   UNL     1      -4.654   3.327   3.596  0.00  0.00    +0.050 A 
ATOM      6  C   UNL     1      -4.003   2.890   2.455  0.00  0.00    +0.027 A 
ATOM      7  C   UNL     1      -5.387   4.560   3.954  0.00  0.00    +0.254 C 
ATOM      8  O   UNL     1      -5.571   5.513   3.223  0.00  0.00    -0.270 OA
ATOM      9  N   UNL     1      -5.816   4.451   5.224  0.00  0.00    -0.234 N 
ATOM     10  C   UNL     1      -5.449   3.273   5.760  0.00  0.00    +0.254 C 
ATOM     11  O   UNL     1      -5.696   2.900   6.889  0.00  0.00    -0.270 OA
ENDROOT
BRANCH   1  13
ATOM     12  N   UNL     1      -2.119  -0.061   1.218  0.00  0.00    -0.298 N 
ATOM     13  C   UNL     1      -2.704   1.153   1.228  0.00  0.00    +0.245 C 
ATOM     14  O   UNL     1      -2.663   1.856   0.238  0.00  0.00    -0.270 OA
ATOM     15  H   UNL     1      -2.152  -0.622   2.009  0.00  0.00    +0.150 HD
BRANCH  12  16
ATOM     16  C   UNL     1      -1.433  -0.534   0.013  0.00  0.00    +0.185 C 
BRANCH  16  18
ATOM     17  C   UNL     1      -0.019   1.526   0.010  0.00  0.00    +0.009 C 
ATOM     18  C   UNL     1       0.002  -0.004   0.002  0.00  0.00    +0.014 C 
ATOM     19  C   UNL     1       0.742  -0.511   1.242  0.00  0.00    +0.009 C 
ENDBRANCH  16  18
BRANCH  16  20
ATOM     20  C   UNL     1      -1.413  -2.041   0.005  0.00  0.00    +0.328 C 
ATOM     21  O   UNL     1      -1.919  -2.656   0.912  0.00  0.00    -0.249 OA
BRANCH  20  22
ATOM     22  O   UNL     1      -0.832  -2.698  -1.011  0.00  0.00    -0.467 OA
ATOM     23  C   UNL     1      -0.850  -4.126  -0.954  0.00  0.00    +0.280 C 
ENDBRANCH  20  22
ENDBRANCH  16  20
ENDBRANCH  12  16
ENDBRANCH   1  13
BRANCH   9  24
ATOM     24  C   UNL     1      -6.582   5.480   5.931  0.00  0.00    +0.121 C 
BRANCH  24  25
ATOM     25  C   UNL     1      -8.078   5.243   5.712  0.00  0.00    +0.052 C 
BRANCH  25  26
ATOM     26  C   UNL     1      -8.866   6.302   6.439  0.00  0.00    -0.040 C 
ATOM     27  C   UNL     1      -9.347   7.456   5.923  0.00  0.00    -0.001 A 
ATOM     28  C   UNL     1      -9.281   8.049   4.582  0.00  0.00    +0.010 A 
ATOM     29  C   UNL     1      -9.871   9.246   4.365  0.00  0.00    +0.001 A 
ATOM     30  C   UNL     1     -10.542   9.934   5.386  0.00  0.00    +0.002 A 
ATOM     31  C   UNL     1     -10.645   9.453   6.643  0.00  0.00    +0.026 A 
ATOM     32  C   UNL     1     -10.062   8.201   6.983  0.00  0.00    +0.043 A 
ATOM     33  N   UNL     1     -10.025   7.534   8.111  0.00  0.00    -0.380 N 
ATOM     34  C   UNL     1      -9.286   6.285   7.891  0.00  0.00    +0.144 C 
ATOM     35  H   UNL     1     -10.422   7.816   8.950  0.00  0.00    +0.160 HD
ENDBRANCH  25  26
ENDBRANCH  24  25
ENDBRANCH   9  24
TORSDOF 8
