REMARK  Name = ZINC16361600
REMARK  9 active torsions:
REMARK  status: ('A' for Active; 'I' for Inactive)
REMARK    1  A    between atoms: C_1  and  C_2
REMARK    2  A    between atoms: C_7  and  N_8
REMARK    3  A    between atoms: C_9  and  C_11
REMARK    4  A    between atoms: C_13  and  N_35
REMARK    5  A    between atoms: C_16  and  N_17
REMARK    6  A    between atoms: N_17  and  C_18
REMARK    7  A    between atoms: C_18  and  C_19
REMARK    8  A    between atoms: C_19  and  N_20
REMARK    9  A    between atoms: C_27  and  C_34
REMARK                            x       y       z     vdW  Elec       q    Type
REMARK                         _______ _______ _______ _____ _____    ______ ____
ROOT
ATOM      1  C   UNL     1      -0.158   0.035   4.854  0.00  0.00    +0.060 A 
ATOM      2  C   UNL     1      -0.288   1.427   4.859  0.00  0.00    +0.047 A 
ATOM      3  C   UNL     1      -0.398   2.102   6.054  0.00  0.00    +0.127 A 
ATOM      4  C   UNL     1      -0.381   1.409   7.255  0.00  0.00    +0.034 A 
ATOM      5  C   UNL     1      -0.252   0.035   7.267  0.00  0.00    +0.026 A 
ATOM      6  C   UNL     1      -0.146  -0.664   6.071  0.00  0.00    +0.040 A 
ENDROOT
BRANCH   1   8
ATOM      7  N   UNL     1       0.058  -0.013   2.419  0.00  0.00    -0.281 N 
ATOM      8  C   UNL     1      -0.039  -0.694   3.578  0.00  0.00    +0.250 C 
ATOM      9  O   UNL     1      -0.028  -1.910   3.572  0.00  0.00    -0.270 OA
ATOM     10  H   UNL     1       0.112   0.956   2.429  0.00  0.00    +0.155 HD
BRANCH   7  17
ATOM     11  C   UNL     1      -1.198   1.193   0.169  0.00  0.00    +0.045 C 
ATOM     12  C   UNL     1      -0.521  -0.150   0.079  0.00  0.00    -0.029 A 
ATOM     13  C   UNL     1      -0.493  -0.832  -1.122  0.00  0.00    +0.005 A 
ATOM     14  C   UNL     1       0.128  -2.064  -1.205  0.00  0.00    +0.000 A 
ATOM     15  C   UNL     1       0.722  -2.619  -0.087  0.00  0.00    +0.002 A 
ATOM     16  C   UNL     1       0.698  -1.943   1.117  0.00  0.00    +0.023 A 
ATOM     17  C   UNL     1       0.080  -0.702   1.203  0.00  0.00    +0.037 A 
ENDBRANCH   7  17
ENDBRANCH   1   8
BRANCH   3  18
ATOM     18  N   UNL     1      -0.536   3.576   6.057  0.00  0.00    +0.056 N 
ATOM     19  O   UNL     1      -0.551   4.184   5.012  0.00  0.00    -0.126 OA
ATOM     20  O   UNL     1      -0.633   4.172   7.105  0.00  0.00    -0.126 OA
ENDBRANCH   3  18
BRANCH   6  21
ATOM     21  N   UNL     1      -0.023  -2.047   6.080  0.00  0.00    -0.342 N 
ATOM     22  H   UNL     1      -0.024  -2.540   5.244  0.00  0.00    +0.146 HD
BRANCH  21  23
ATOM     23  C   UNL     1       0.108  -2.763   7.351  0.00  0.00    +0.121 C 
BRANCH  23  24
ATOM     24  C   UNL     1       0.227  -4.264   7.082  0.00  0.00    +0.135 C 
BRANCH  24  25
ATOM     25  N   UNL     1       0.358  -4.980   8.354  0.00  0.00    -0.240 N 
ATOM     26  C   UNL     1       1.547  -5.234   8.934  0.00  0.00    +0.226 C 
ATOM     27  O   UNL     1       2.640  -5.048   8.444  0.00  0.00    -0.275 OA
ATOM     28  C   UNL     1       1.264  -5.794  10.309  0.00  0.00    +0.087 C 
ATOM     29  C   UNL     1       2.300  -6.750  10.796  0.00  0.00    +0.014 C 
ATOM     30  C   UNL     1       2.125  -8.191  10.363  0.00  0.00    +0.004 C 
ATOM     31  C   UNL     1       0.675  -8.636  10.548  0.00  0.00    -0.013 C 
ATOM     32  C   UNL     1      -0.214  -7.750   9.676  0.00  0.00    +0.016 C 
ATOM     33  C   UNL     1      -0.165  -6.321  10.178  0.00  0.00    +0.088 C 
ATOM     34  C   UNL     1      -0.698  -5.437   9.049  0.00  0.00    +0.226 C 
ATOM     35  O   UNL     1      -1.864  -5.194   8.821  0.00  0.00    -0.275 OA
ATOM     36  C   UNL     1       0.526 -10.097  10.122  0.00  0.00    +0.007 C 
ENDBRANCH  24  25
ENDBRANCH  23  24
ENDBRANCH  21  23
ENDBRANCH   6  21
TORSDOF 7
