REMARK  Name = ZINC43987310
REMARK  5 active torsions:
REMARK  status: ('A' for Active; 'I' for Inactive)
REMARK    1  A    between atoms: C_1  and  C_2
REMARK    2  A    between atoms: C_3  and  C_7
REMARK    3  A    between atoms: C_12  and  C_15
REMARK    4  A    between atoms: C_15  and  N_16
REMARK    5  A    between atoms: N_19  and  C_20
REMARK                            x       y       z     vdW  Elec       q    Type
REMARK                         _______ _______ _______ _____ _____    ______ ____
ROOT
ATOM      1  C   UNL     1      -0.259  -0.555  -2.539  0.00  0.00    +0.257 C 
ATOM      2  O   UNL     1      -0.105  -0.951  -1.399  0.00  0.00    -0.269 OA
ATOM      3  N   UNL     1      -0.314  -1.436  -3.557  0.00  0.00    -0.297 N 
ATOM      4  C   UNL     1      -0.400  -2.879  -3.295  0.00  0.00    +0.108 C 
ATOM      5  C   UNL     1       0.725  -3.587  -4.055  0.00  0.00    +0.024 C 
ATOM      6  C   UNL     1       0.648  -3.212  -5.537  0.00  0.00    +0.009 C 
ATOM      7  C   UNL     1       0.836  -1.701  -5.693  0.00  0.00    +0.024 C 
ATOM      8  C   UNL     1      -0.294  -0.971  -4.951  0.00  0.00    +0.108 C 
ENDROOT
BRANCH   1  11
ATOM      9  C   UNL     1       0.195   1.818  -0.511  0.00  0.00    +0.069 C 
ATOM     10  C   UNL     1      -0.200   1.972  -1.957  0.00  0.00    +0.081 A 
ATOM     11  C   UNL     1      -0.387   0.887  -2.806  0.00  0.00    +0.117 A 
ATOM     12  S   UNL     1      -0.824   1.740  -4.311  0.00  0.00    +0.041 S 
ATOM     13  N   UNL     1      -0.733   3.260  -3.753  0.00  0.00    -0.110 NA
ATOM     14  N   UNL     1      -0.401   3.139  -2.517  0.00  0.00    -0.146 NA
ENDBRANCH   1  11
BRANCH   6  15
ATOM     15  C   UNL     1       1.750  -3.944  -6.306  0.00  0.00    +0.109 C 
BRANCH  15  16
ATOM     16  N   UNL     1       1.603  -3.680  -7.739  0.00  0.00    -0.299 N 
ATOM     17  C   UNL     1       2.469  -4.225  -8.617  0.00  0.00    +0.304 C 
ATOM     18  O   UNL     1       3.371  -4.937  -8.219  0.00  0.00    -0.253 OA
ATOM     19  N   UNL     1       2.334  -3.982  -9.936  0.00  0.00    -0.268 N 
ATOM     20  H   UNL     1       0.884  -3.112  -8.057  0.00  0.00    +0.150 HD
ATOM     21  H   UNL     1       1.684  -3.332 -10.245  0.00  0.00    +0.156 HD
BRANCH  19  22
ATOM     22  C   UNL     1       3.132  -4.668 -10.859  0.00  0.00    +0.053 A 
ATOM     23  C   UNL     1       3.704  -5.886 -10.515  0.00  0.00    +0.025 A 
ATOM     24  C   UNL     1       4.491  -6.560 -11.428  0.00  0.00    +0.002 A 
ATOM     25  C   UNL     1       4.710  -6.024 -12.684  0.00  0.00    +0.002 A 
ATOM     26  C   UNL     1       4.142  -4.812 -13.031  0.00  0.00    +0.022 A 
ATOM     27  C   UNL     1       3.349  -4.135 -12.124  0.00  0.00    +0.062 A 
ATOM     28 CL   UNL     1       2.630  -2.617 -12.562  0.00  0.00    -0.082 Cl
ENDBRANCH  19  22
ENDBRANCH  15  16
ENDBRANCH   6  15
TORSDOF 4
