REMARK  Name = ZINC64871196
REMARK  5 active torsions:
REMARK  status: ('A' for Active; 'I' for Inactive)
REMARK    1  A    between atoms: C_1  and  C_2
REMARK    2  A    between atoms: C_5  and  C_8
REMARK    3  A    between atoms: C_11  and  C_15
REMARK    4  A    between atoms: N_25  and  C_28
REMARK    5  A    between atoms: C_28  and  C_29
REMARK                            x       y       z     vdW  Elec       q    Type
REMARK                         _______ _______ _______ _____ _____    ______ ____
ROOT
ATOM      1  C   UNL     1       2.195  -6.764   1.497  0.00  0.00    -0.000 A 
ATOM      2  C   UNL     1       1.137  -7.376   2.152  0.00  0.00    +0.008 A 
ATOM      3  C   UNL     1       1.352  -8.486   2.942  0.00  0.00    +0.016 A 
ATOM      4  C   UNL     1       2.643  -8.990   3.078  0.00  0.00    +0.063 A 
ATOM      5  C   UNL     1       3.715  -8.370   2.413  0.00  0.00    +0.056 A 
ATOM      6  C   UNL     1       3.478  -7.258   1.619  0.00  0.00    +0.034 A 
ATOM      7  N   UNL     1       4.990  -8.895   2.567  0.00  0.00    -0.307 N 
ATOM      8  H   UNL     1       5.739  -8.477   2.114  0.00  0.00    +0.170 HD
ATOM      9  C   UNL     1       5.197  -9.977   3.337  0.00  0.00    +0.330 A 
ATOM     10  O   UNL     1       6.330 -10.406   3.446  0.00  0.00    -0.246 OA
ATOM     11  N   UNL     1       4.207 -10.604   3.991  0.00  0.00    -0.256 N 
ATOM     12  C   UNL     1       2.929 -10.174   3.909  0.00  0.00    +0.265 A 
ATOM     13  O   UNL     1       2.038 -10.748   4.505  0.00  0.00    -0.267 OA
ENDROOT
BRANCH   1  16
ATOM     14  C   UNL     1       0.059  -4.275  -0.021  0.00  0.00    +0.180 C 
ATOM     15  N   UNL     1       0.789  -4.783   1.161  0.00  0.00    -0.265 NA
ATOM     16  C   UNL     1       1.940  -5.553   0.638  0.00  0.00    +0.242 C 
ATOM     17  O   UNL     1       1.542  -5.951  -0.694  0.00  0.00    -0.274 OA
ATOM     18  N   UNL     1       0.806  -4.771  -1.202  0.00  0.00    -0.177 NA
ATOM     19  H   UNL     1       1.099  -4.023   1.748  0.00  0.00    +0.127 HD
ATOM     20  H   UNL     1       0.176  -5.029  -1.946  0.00  0.00    +0.156 HD
BRANCH  14  25
ATOM     21  C   UNL     1      -0.018   1.503   0.010  0.00  0.00    +0.044 C 
ATOM     22  C   UNL     1       0.002  -0.004   0.002  0.00  0.00    -0.050 A 
ATOM     23  C   UNL     1       0.006  -0.689  -1.199  0.00  0.00    +0.004 A 
ATOM     24  C   UNL     1       0.025  -2.071  -1.206  0.00  0.00    +0.007 A 
ATOM     25  C   UNL     1       0.040  -2.768  -0.013  0.00  0.00    -0.014 A 
ATOM     26  C   UNL     1       0.037  -2.084   1.188  0.00  0.00    +0.007 A 
ATOM     27  C   UNL     1       0.023  -0.702   1.195  0.00  0.00    +0.004 A 
ENDBRANCH  14  25
ENDBRANCH   1  16
BRANCH  11  28
ATOM     28  C   UNL     1       4.518 -11.778   4.811  0.00  0.00    +0.165 C 
BRANCH  28  29
ATOM     29  C   UNL     1       4.836 -11.339   6.217  0.00  0.00    -0.027 A 
ATOM     30  C   UNL     1       6.137 -11.030   6.567  0.00  0.00    +0.007 A 
ATOM     31  C   UNL     1       6.429 -10.628   7.857  0.00  0.00    +0.020 A 
ATOM     32  C   UNL     1       5.419 -10.534   8.797  0.00  0.00    +0.041 A 
ATOM     33  C   UNL     1       4.117 -10.843   8.446  0.00  0.00    +0.020 A 
ATOM     34  C   UNL     1       3.825 -11.240   7.155  0.00  0.00    +0.007 A 
ATOM     35 CL   UNL     1       5.785 -10.029  10.417  0.00  0.00    -0.084 Cl
ENDBRANCH  28  29
ENDBRANCH  11  28
TORSDOF 4
