REMARK  Name = ZINC14566897
REMARK  7 active torsions:
REMARK  status: ('A' for Active; 'I' for Inactive)
REMARK    1  A    between atoms: C_1  and  C_2
REMARK    2  A    between atoms: C_2  and  C_4
REMARK    3  A    between atoms: C_2  and  O_21
REMARK    4  A    between atoms: N_6  and  C_7
REMARK    5  A    between atoms: C_10  and  C_13
REMARK    6  A    between atoms: O_21  and  C_22
REMARK    7  A    between atoms: C_25  and  N_28
REMARK                            x       y       z     vdW  Elec       q    Type
REMARK                         _______ _______ _______ _____ _____    ______ ____
ROOT
ATOM      1  C   UNL     1      -0.692   1.423  -1.037  0.00  0.00    +0.258 C 
ATOM      2  O   UNL     1      -1.582   2.247  -1.031  0.00  0.00    -0.271 OA
ATOM      3  N   UNL     1      -0.266   0.900  -2.204  0.00  0.00    -0.282 N 
ATOM      4  H   UNL     1       0.399   0.194  -2.204  0.00  0.00    +0.155 HD
ENDROOT
BRANCH   3   5
ATOM      5  C   UNL     1      -0.780   1.375  -3.410  0.00  0.00    +0.034 A 
ATOM      6  C   UNL     1      -2.113   1.764  -3.491  0.00  0.00    +0.024 A 
ATOM      7  C   UNL     1      -2.623   2.238  -4.678  0.00  0.00    +0.015 A 
ATOM      8  C   UNL     1      -1.802   2.318  -5.806  0.00  0.00    +0.037 A 
ATOM      9  C   UNL     1      -0.464   1.922  -5.723  0.00  0.00    +0.015 A 
ATOM     10  C   UNL     1       0.040   1.454  -4.531  0.00  0.00    +0.024 A 
BRANCH   8  11
ATOM     11  C   UNL     1      -2.346   2.821  -7.083  0.00  0.00    +0.247 C 
ATOM     12  O   UNL     1      -1.941   2.369  -8.137  0.00  0.00    -0.270 OA
ATOM     13  N   UNL     1      -3.293   3.780  -7.081  0.00  0.00    -0.298 N 
ATOM     14  C   UNL     1      -3.931   4.205  -8.335  0.00  0.00    +0.108 C 
ATOM     15  C   UNL     1      -5.454   4.095  -8.169  0.00  0.00    +0.019 C 
ATOM     16  C   UNL     1      -5.887   4.898  -6.940  0.00  0.00    +0.003 C 
ATOM     17  C   UNL     1      -5.224   4.317  -5.689  0.00  0.00    +0.019 C 
ATOM     18  C   UNL     1      -3.702   4.426  -5.826  0.00  0.00    +0.108 C 
ENDBRANCH   8  11
ENDBRANCH   3   5
BRANCH   1  20
ATOM     19  C   UNL     1       1.404   1.417   0.287  0.00  0.00    +0.062 C 
ATOM     20  C   UNL     1      -0.063   0.984   0.260  0.00  0.00    +0.256 C 
BRANCH  20  21
ATOM     21  O   UNL     1      -0.757   1.586   1.354  0.00  0.00    -0.480 OA
BRANCH  21  22
ATOM     22  C   UNL     1      -0.845   0.864   2.502  0.00  0.00    +0.122 A 
ATOM     23  C   UNL     1      -0.185  -0.351   2.610  0.00  0.00    +0.048 A 
ATOM     24  C   UNL     1      -0.272  -1.082   3.780  0.00  0.00    +0.036 A 
ATOM     25  C   UNL     1      -1.025  -0.608   4.838  0.00  0.00    +0.126 A 
ATOM     26  C   UNL     1      -1.689   0.600   4.730  0.00  0.00    +0.036 A 
ATOM     27  C   UNL     1      -1.601   1.337   3.565  0.00  0.00    +0.048 A 
BRANCH  25  28
ATOM     28  N   UNL     1      -1.122  -1.395   6.087  0.00  0.00    +0.056 N 
ATOM     29  O   UNL     1      -1.786  -0.979   7.020  0.00  0.00    -0.126 OA
ATOM     30  O   UNL     1      -0.538  -2.460   6.183  0.00  0.00    -0.126 OA
ENDBRANCH  25  28
ENDBRANCH  21  22
ENDBRANCH  20  21
ENDBRANCH   1  20
TORSDOF 6
