REMARK  Name = ZINC06209822
REMARK  8 active torsions:
REMARK  status: ('A' for Active; 'I' for Inactive)
REMARK    1  A    between atoms: C_1  and  C_2
REMARK    2  A    between atoms: C_5  and  N_9
REMARK    3  A    between atoms: C_6  and  C_8
REMARK    4  A    between atoms: C_10  and  C_12
REMARK    5  A    between atoms: C_12  and  C_25
REMARK    6  A    between atoms: C_13  and  C_14
REMARK    7  A    between atoms: C_15  and  C_16
REMARK    8  A    between atoms: C_21  and  N_22
REMARK                            x       y       z     vdW  Elec       q    Type
REMARK                         _______ _______ _______ _____ _____    ______ ____
ROOT
ATOM      1  C   UNL     1       0.225  -6.346  -1.184  0.00  0.00    +0.114 C 
ATOM      2  C   UNL     1       0.057  -7.022  -2.382  0.00  0.00    +0.024 C 
ENDROOT
BRANCH   1   4
ATOM      3  N   UNL     1       0.556  -4.229  -0.017  0.00  0.00    -0.281 N 
ATOM      4  C   UNL     1       0.393  -4.887  -1.182  0.00  0.00    +0.259 C 
ATOM      5  O   UNL     1       0.384  -4.272  -2.232  0.00  0.00    -0.269 OA
ATOM      6  H   UNL     1       0.629  -4.724   0.814  0.00  0.00    +0.155 HD
BRANCH   3  11
ATOM      7  C   UNL     1       0.819   1.437   0.027  0.00  0.00    +0.044 C 
ATOM      8  C   UNL     1       0.749  -0.068   0.015  0.00  0.00    -0.050 A 
ATOM      9  C   UNL     1       1.268  -0.774  -1.055  0.00  0.00    +0.005 A 
ATOM     10  C   UNL     1       1.205  -2.154  -1.069  0.00  0.00    +0.024 A 
ATOM     11  C   UNL     1       0.621  -2.832  -0.006  0.00  0.00    +0.037 A 
ATOM     12  C   UNL     1       0.102  -2.119   1.067  0.00  0.00    -0.029 A 
ATOM     13  C   UNL     1       0.172  -0.740   1.077  0.00  0.00    +0.008 A 
ATOM     14  C   UNL     1      -0.533  -2.851   2.221  0.00  0.00    +0.045 C 
ENDBRANCH   3  11
ENDBRANCH   1   4
BRANCH   2  15
ATOM     15  C   UNL     1      -0.103  -8.417  -2.384  0.00  0.00    +0.002 C 
ATOM     16  C   UNL     1      -0.267  -9.079  -3.557  0.00  0.00    +0.010 C 
BRANCH  16  17
ATOM     17  C   UNL     1      -0.435 -10.539  -3.559  0.00  0.00    +0.005 A 
ATOM     18  C   UNL     1      -0.531 -11.238  -2.350  0.00  0.00    +0.010 A 
ATOM     19  C   UNL     1      -0.688 -12.607  -2.361  0.00  0.00    +0.001 A 
ATOM     20  C   UNL     1      -0.750 -13.291  -3.563  0.00  0.00    +0.002 A 
ATOM     21  C   UNL     1      -0.656 -12.608  -4.763  0.00  0.00    +0.033 A 
ATOM     22  C   UNL     1      -0.505 -11.238  -4.770  0.00  0.00    +0.133 A 
BRANCH  22  23
ATOM     23  N   UNL     1      -0.410 -10.508  -6.055  0.00  0.00    +0.057 N 
ATOM     24  O   UNL     1      -0.946  -9.431  -6.179  0.00  0.00    -0.126 OA
ATOM     25  O   UNL     1       0.202 -10.989  -6.979  0.00  0.00    -0.126 OA
ENDBRANCH  22  23
ENDBRANCH  16  17
ENDBRANCH   2  15
BRANCH   1  26
ATOM     26  C   UNL     1       0.235  -7.070   0.052  0.00  0.00    +0.104 C 
ATOM     27  N   UNL     1       0.243  -7.644   1.032  0.00  0.00    -0.191 NA
ENDBRANCH   1  26
TORSDOF 6
