REMARK  Name = ZINC40060629
REMARK  12 active torsions:
REMARK  status: ('A' for Active; 'I' for Inactive)
REMARK    1  A    between atoms: C_1  and  C_2
REMARK    2  A    between atoms: C_8  and  C_37
REMARK    3  A    between atoms: C_12  and  C_13
REMARK    4  A    between atoms: C_13  and  O_15
REMARK    5  A    between atoms: O_15  and  C_16
REMARK    6  A    between atoms: C_16  and  C_17
REMARK    7  A    between atoms: N_19  and  C_20
REMARK    8  A    between atoms: C_22  and  C_35
REMARK    9  A    between atoms: C_23  and  C_34
REMARK   10  A    between atoms: C_24  and  C_33
REMARK   11  A    between atoms: N_26  and  C_27
REMARK   12  A    between atoms: C_27  and  C_28
REMARK                            x       y       z     vdW  Elec       q    Type
REMARK                         _______ _______ _______ _____ _____    ______ ____
ROOT
ATOM      1  C   UNL     1       0.292  -1.674   5.973  0.00  0.00    +0.252 C 
ATOM      2  O   UNL     1       0.345  -2.849   5.677  0.00  0.00    -0.272 OA
ATOM      3  N   UNL     1       0.182  -1.308   7.266  0.00  0.00    -0.292 N 
ATOM      4  H   UNL     1       0.205  -0.369   7.508  0.00  0.00    +0.151 HD
ENDROOT
BRANCH   3   5
ATOM      5  C   UNL     1       0.026  -2.330   8.305  0.00  0.00    +0.186 C 
ATOM      6  C   UNL     1       0.861  -1.977   9.514  0.00  0.00    +0.065 C 
ATOM      7  C   UNL     1       0.142  -2.184  10.615  0.00  0.00    -0.039 C 
ATOM      8  C   UNL     1      -1.227  -2.691  10.224  0.00  0.00    +0.083 C 
ATOM      9  N   UNL     1      -1.375  -2.362   8.786  0.00  0.00    -0.267 NA
ATOM     10  C   UNL     1      -1.311  -4.204  10.433  0.00  0.00    +0.029 C 
ATOM     11  C   UNL     1       0.618  -1.951  12.026  0.00  0.00    +0.042 C 
BRANCH   6  12
ATOM     12  C   UNL     1       2.210  -1.497   9.481  0.00  0.00    +0.098 C 
ATOM     13  N   UNL     1       3.280  -1.117   9.454  0.00  0.00    -0.191 NA
ENDBRANCH   6  12
BRANCH   9  14
ATOM     14  C   UNL     1      -2.148  -3.396   8.085  0.00  0.00    +0.161 C 
BRANCH  14  15
ATOM     15  C   UNL     1      -3.615  -3.215   8.383  0.00  0.00    +0.119 A 
ATOM     16  C   UNL     1      -4.454  -2.391   7.730  0.00  0.00    +0.046 A 
ATOM     17  C   UNL     1      -5.724  -2.537   8.334  0.00  0.00    +0.041 A 
ATOM     18  C   UNL     1      -5.584  -3.442   9.320  0.00  0.00    +0.195 A 
ATOM     19  O   UNL     1      -4.306  -3.853   9.341  0.00  0.00    -0.467 OA
ENDBRANCH  14  15
ENDBRANCH   9  14
ENDBRANCH   3   5
BRANCH   1  20
ATOM     20  C   UNL     1       0.351  -0.622   4.895  0.00  0.00    +0.328 C 
BRANCH  20  21
ATOM     21  O   UNL     1       0.467  -1.254   3.619  0.00  0.00    -0.451 OA
BRANCH  21  22
ATOM     22  C   UNL     1       0.531  -0.447   2.540  0.00  0.00    +0.347 C 
ATOM     23  O   UNL     1       0.490   0.760   2.680  0.00  0.00    -0.244 OA
BRANCH  22  35
ATOM     24  C   UNL     1       0.696   1.124  -0.056  0.00  0.00    +0.046 C 
ATOM     25  C   UNL     1       0.729  -0.382  -0.002  0.00  0.00    -0.015 A 
ATOM     26  C   UNL     1       0.846  -1.122  -1.180  0.00  0.00    +0.076 A 
ATOM     27  C   UNL     1       0.951  -0.645  -2.578  0.00  0.00    +0.260 A 
ATOM     28  O   UNL     1       0.943   0.545  -2.835  0.00  0.00    -0.267 OA
ATOM     29  N   UNL     1       1.057  -1.563  -3.559  0.00  0.00    -0.311 N 
ATOM     30  H   UNL     1       1.127  -1.268  -4.480  0.00  0.00    +0.170 HD
ATOM     31  C   UNL     1       1.067  -2.891  -3.285  0.00  0.00    +0.108 A 
ATOM     32  N   UNL     1       0.977  -3.344  -2.064  0.00  0.00    -0.227 NA
ATOM     33  C   UNL     1       0.869  -2.527  -1.025  0.00  0.00    +0.116 A 
ATOM     34  S   UNL     1       0.728  -2.746   0.731  0.00  0.00    -0.062 S 
ATOM     35  C   UNL     1       0.651  -1.025   1.199  0.00  0.00    +0.102 A 
ATOM     36  C   UNL     1       1.187  -3.871  -4.423  0.00  0.00    +0.086 C 
ENDBRANCH  22  35
ENDBRANCH  21  22
ENDBRANCH  20  21
ENDBRANCH   1  20
TORSDOF 8
