REMARK  Name = ZINC13073915
REMARK  10 active torsions:
REMARK  status: ('A' for Active; 'I' for Inactive)
REMARK    1  A    between atoms: C_1  and  C_2
REMARK    2  A    between atoms: C_2  and  C_3
REMARK    3  A    between atoms: C_2  and  C_4
REMARK    4  A    between atoms: C_4  and  C_6
REMARK    5  A    between atoms: C_4  and  N_8
REMARK    6  A    between atoms: C_12  and  C_13
REMARK    7  A    between atoms: C_16  and  C_18
REMARK    8  A    between atoms: C_21  and  O_27
REMARK    9  A    between atoms: C_23  and  N_24
REMARK   10  A    between atoms: O_27  and  C_28
REMARK                            x       y       z     vdW  Elec       q    Type
REMARK                         _______ _______ _______ _____ _____    ______ ____
ROOT
ATOM      1  C   UNL     1       1.331   0.800  -0.803  0.00  0.00    +0.130 A 
ATOM      2  C   UNL     1       2.555   0.035  -1.054  0.00  0.00    +0.050 A 
ATOM      3  C   UNL     1       3.581   0.926  -1.002  0.00  0.00    +0.050 A 
ATOM      4  C   UNL     1       3.028   2.196  -0.729  0.00  0.00    +0.138 A 
ATOM      5  O   UNL     1       1.692   2.090  -0.623  0.00  0.00    -0.455 OA
ENDROOT
BRANCH   1  10
ATOM      6  N   UNL     1      -3.303   1.859  -0.184  0.00  0.00    -0.241 N 
ATOM      7  C   UNL     1      -2.498   0.838  -0.434  0.00  0.00    +0.259 C 
ATOM      8  O   UNL     1      -2.921  -0.290  -0.587  0.00  0.00    -0.269 OA
ATOM      9  C   UNL     1      -1.042   1.153  -0.516  0.00  0.00    +0.080 C 
ATOM     10  C   UNL     1       0.039   0.295  -0.763  0.00  0.00    +0.066 C 
ATOM     11  S   UNL     1      -1.040   2.863  -0.216  0.00  0.00    -0.061 S 
ATOM     12  C   UNL     1      -2.797   3.098  -0.019  0.00  0.00    +0.121 C 
ATOM     13  S   UNL     1      -3.641   4.551   0.308  0.00  0.00    -0.027 S 
BRANCH   6  14
ATOM     14  C   UNL     1      -4.748   1.643  -0.087  0.00  0.00    +0.198 C 
BRANCH  14  16
ATOM     15  C   UNL     1      -4.498  -0.597   0.991  0.00  0.00    +0.009 C 
ATOM     16  C   UNL     1      -5.051   0.149  -0.225  0.00  0.00    +0.015 C 
ATOM     17  C   UNL     1      -6.564  -0.059  -0.306  0.00  0.00    +0.009 C 
ENDBRANCH  14  16
BRANCH  14  18
ATOM     18  C   UNL     1      -5.241   2.134   1.250  0.00  0.00    +0.377 C 
ATOM     19  O   UNL     1      -4.465   2.615   2.040  0.00  0.00    -0.244 OA
ATOM     20  O   UNL     1      -6.543   2.037   1.562  0.00  0.00    -0.244 OA
ENDBRANCH  14  18
ENDBRANCH   6  14
ENDBRANCH   1  10
BRANCH   4  21
ATOM     21  C   UNL     1       3.765   3.397  -0.595  0.00  0.00    +0.048 A 
ATOM     22  C   UNL     1       4.888   3.447   0.255  0.00  0.00    +0.017 A 
ATOM     23  C   UNL     1       5.593   4.606   0.379  0.00  0.00    +0.046 A 
ATOM     24  C   UNL     1       5.206   5.742  -0.335  0.00  0.00    +0.122 A 
ATOM     25  C   UNL     1       4.095   5.700  -1.179  0.00  0.00    +0.079 A 
ATOM     26  C   UNL     1       3.383   4.546  -1.316  0.00  0.00    +0.140 A 
BRANCH  26  27
ATOM     27  N   UNL     1       2.209   4.502  -2.216  0.00  0.00    +0.057 N 
ATOM     28  O   UNL     1       1.853   5.577  -2.888  0.00  0.00    -0.126 OA
ATOM     29  O   UNL     1       1.519   3.387  -2.344  0.00  0.00    -0.126 OA
ENDBRANCH  26  27
BRANCH  24  30
ATOM     30  O   UNL     1       5.912   6.891  -0.207  0.00  0.00    -0.495 OA
ATOM     31  C   UNL     1       7.037   6.866   0.673  0.00  0.00    +0.277 C 
ENDBRANCH  24  30
ENDBRANCH   4  21
TORSDOF 7
