REMARK  Name = ZINC54295409
REMARK  8 active torsions:
REMARK  status: ('A' for Active; 'I' for Inactive)
REMARK    1  A    between atoms: C_1  and  C_2
REMARK    2  A    between atoms: C_5  and  C_8
REMARK    3  A    between atoms: C_8  and  C_10
REMARK    4  A    between atoms: N_13  and  C_16
REMARK    5  A    between atoms: C_16  and  C_18
REMARK    6  A    between atoms: C_16  and  C_19
REMARK    7  A    between atoms: N_21  and  C_22
REMARK    8  A    between atoms: C_25  and  N_28
REMARK                            x       y       z     vdW  Elec       q    Type
REMARK                         _______ _______ _______ _____ _____    ______ ____
ROOT
ATOM      1  C   UNL     1      -0.242  -4.136   3.319  0.00  0.00    +0.057 C 
ATOM      2  C   UNL     1       1.194  -4.389   3.788  0.00  0.00    -0.007 C 
ATOM      3  C   UNL     1       1.282  -5.783   4.412  0.00  0.00    -0.077 C 
ATOM      4  N   UNL     1       0.906  -6.794   3.417  0.00  0.00    +0.387 N 
ATOM      5  C   UNL     1      -0.493  -6.601   3.015  0.00  0.00    -0.077 C 
ATOM      6  C   UNL     1      -0.650  -5.238   2.337  0.00  0.00    -0.007 C 
ATOM      7  H   UNL     1       1.502  -6.706   2.607  0.00  0.00    -0.081 HD
ENDROOT
BRANCH   1   8
ATOM      8  C   UNL     1      -0.319  -2.796   2.632  0.00  0.00    +0.166 C 
ATOM      9  O   UNL     1      -0.214  -2.726   1.427  0.00  0.00    -0.292 OA
BRANCH   8  14
ATOM     10  C   UNL     1      -1.115   1.980   5.732  0.00  0.00    +0.044 C 
ATOM     11  C   UNL     1      -0.906   0.728   4.919  0.00  0.00    -0.050 A 
ATOM     12  C   UNL     1      -0.785   0.812   3.543  0.00  0.00    +0.004 A 
ATOM     13  C   UNL     1      -0.594  -0.329   2.793  0.00  0.00    +0.011 A 
ATOM     14  C   UNL     1      -0.522  -1.574   3.426  0.00  0.00    +0.018 A 
ATOM     15  C   UNL     1      -0.645  -1.651   4.817  0.00  0.00    +0.011 A 
ATOM     16  C   UNL     1      -0.830  -0.500   5.554  0.00  0.00    +0.004 A 
ENDBRANCH   8  14
ENDBRANCH   1   8
BRANCH   4  17
ATOM     17  C   UNL     1       1.067  -8.134   3.997  0.00  0.00    +0.016 C 
ATOM     18  C   UNL     1       0.613  -9.186   2.983  0.00  0.00    -0.004 C 
BRANCH  17  19
ATOM     19  C   UNL     1       2.516  -8.361   4.341  0.00  0.00    +0.203 C 
ATOM     20  O   UNL     1       3.385  -7.789   3.717  0.00  0.00    -0.277 OA
ATOM     21  N   UNL     1       2.847  -9.201   5.342  0.00  0.00    -0.287 N 
ATOM     22  H   UNL     1       2.158  -9.710   5.796  0.00  0.00    +0.155 HD
BRANCH  21  23
ATOM     23  C   UNL     1       4.186  -9.338   5.726  0.00  0.00    +0.033 A 
ATOM     24  C   UNL     1       4.510  -9.526   7.064  0.00  0.00    +0.025 A 
ATOM     25  C   UNL     1       5.832  -9.661   7.440  0.00  0.00    +0.034 A 
ATOM     26  C   UNL     1       6.832  -9.609   6.487  0.00  0.00    +0.126 A 
ATOM     27  C   UNL     1       6.513  -9.421   5.154  0.00  0.00    +0.034 A 
ATOM     28  C   UNL     1       5.192  -9.291   4.771  0.00  0.00    +0.025 A 
BRANCH  26  29
ATOM     29  N   UNL     1       8.248  -9.754   6.893  0.00  0.00    +0.056 N 
ATOM     30  O   UNL     1       8.529  -9.918   8.057  0.00  0.00    -0.126 OA
ATOM     31  O   UNL     1       9.124  -9.708   6.061  0.00  0.00    -0.126 OA
ENDBRANCH  26  29
ENDBRANCH  21  23
ENDBRANCH  17  19
ENDBRANCH   4  17
TORSDOF 6
