REMARK  Name = ZINC39990664
REMARK  7 active torsions:
REMARK  status: ('A' for Active; 'I' for Inactive)
REMARK    1  A    between atoms: C_1  and  C_2
REMARK    2  A    between atoms: C_2  and  C_3
REMARK    3  A    between atoms: C_2  and  C_4
REMARK    4  A    between atoms: C_7  and  N_10
REMARK    5  A    between atoms: C_11  and  S_15
REMARK    6  A    between atoms: S_15  and  C_16
REMARK    7  A    between atoms: C_16  and  C_17
REMARK                            x       y       z     vdW  Elec       q    Type
REMARK                         _______ _______ _______ _____ _____    ______ ____
ROOT
ATOM      1  N   UNL     1      -5.323  -1.969   0.042  0.00  0.00    -0.187 N 
ATOM      2  C   UNL     1      -6.136  -2.170  -1.026  0.00  0.00    +0.214 A 
ATOM      3  N   UNL     1      -7.276  -2.634  -0.560  0.00  0.00    -0.101 NA
ATOM      4  N   UNL     1      -7.231  -2.736   0.719  0.00  0.00    -0.022 NA
ATOM      5  N   UNL     1      -6.081  -2.358   1.161  0.00  0.00    -0.038 NA
ENDROOT
BRANCH   1   9
ATOM      6  C   UNL     1      -1.412  -0.526   0.013  0.00  0.00    -0.045 A 
ATOM      7  C   UNL     1      -2.258  -0.203   1.058  0.00  0.00    +0.006 A 
ATOM      8  C   UNL     1      -3.555  -0.680   1.070  0.00  0.00    +0.028 A 
ATOM      9  C   UNL     1      -4.008  -1.483   0.032  0.00  0.00    +0.070 A 
ATOM     10  C   UNL     1      -3.155  -1.805  -1.016  0.00  0.00    +0.028 A 
ATOM     11  C   UNL     1      -1.862  -1.321  -1.025  0.00  0.00    +0.006 A 
BRANCH   6  13
ATOM     12  C   UNL     1      -0.019   1.526   0.010  0.00  0.00    +0.012 C 
ATOM     13  C   UNL     1       0.002  -0.004   0.002  0.00  0.00    +0.013 C 
ATOM     14  C   UNL     1       0.742  -0.511   1.242  0.00  0.00    +0.012 C 
ENDBRANCH   6  13
ENDBRANCH   1   9
BRANCH   2  15
ATOM     15  S   UNL     1      -5.739  -1.867  -2.715  0.00  0.00    -0.076 S 
BRANCH  15  16
ATOM     16  C   UNL     1      -7.244  -2.340  -3.611  0.00  0.00    +0.151 C 
BRANCH  16  17
ATOM     17  C   UNL     1      -7.038  -2.126  -5.088  0.00  0.00    +0.118 A 
ATOM     18  N   UNL     1      -7.311  -0.972  -5.755  0.00  0.00    -0.341 N 
ATOM     19  H   UNL     1      -7.667  -0.156  -5.369  0.00  0.00    +0.167 HD
ATOM     20  C   UNL     1      -6.989  -1.177  -7.081  0.00  0.00    +0.066 A 
ATOM     21  C   UNL     1      -7.045  -0.390  -8.223  0.00  0.00    +0.028 A 
ATOM     22  C   UNL     1      -6.635  -0.910  -9.432  0.00  0.00    +0.002 A 
ATOM     23  C   UNL     1      -6.168  -2.215  -9.514  0.00  0.00    +0.002 A 
ATOM     24  C   UNL     1      -6.106  -3.004  -8.402  0.00  0.00    +0.030 A 
ATOM     25  C   UNL     1      -6.515  -2.498  -7.165  0.00  0.00    +0.089 A 
ATOM     26  N   UNL     1      -6.567  -3.017  -5.911  0.00  0.00    -0.232 NA
ENDBRANCH  16  17
ENDBRANCH  15  16
ENDBRANCH   2  15
TORSDOF 5
