REMARK  Name = ZINC25161628
REMARK  9 active torsions:
REMARK  status: ('A' for Active; 'I' for Inactive)
REMARK    1  A    between atoms: C_6  and  C_7
REMARK    2  A    between atoms: C_12  and  C_15
REMARK    3  A    between atoms: N_17  and  C_18
REMARK    4  A    between atoms: C_18  and  C_19
REMARK    5  A    between atoms: C_19  and  C_20
REMARK    6  A    between atoms: C_20  and  C_21
REMARK    7  A    between atoms: C_22  and  C_34
REMARK    8  A    between atoms: C_23  and  N_33
REMARK    9  A    between atoms: N_24  and  C_26
REMARK                            x       y       z     vdW  Elec       q    Type
REMARK                         _______ _______ _______ _____ _____    ______ ____
ROOT
ATOM      1  C   UNL     1      -3.634  -1.530   1.601  0.00  0.00    +0.104 C 
ENDROOT
BRANCH   1   4
ATOM      2  C   UNL     1      -2.865  -0.813   3.799  0.00  0.00    +0.216 C 
ATOM      3  O   UNL     1      -4.024  -0.751   4.152  0.00  0.00    -0.276 OA
ATOM      4  N   UNL     1      -2.563  -1.192   2.541  0.00  0.00    -0.315 N 
ATOM      5  H   UNL     1      -1.512  -1.248   2.221  0.00  0.00    +0.149 HD
BRANCH   2  11
ATOM      6  C   UNL     1       0.056  -1.324   8.348  0.00  0.00    +0.247 C 
ATOM      7  O   UNL     1       0.773  -2.304   8.391  0.00  0.00    -0.270 OA
ATOM      8  N   UNL     1      -0.290  -0.793   7.158  0.00  0.00    -0.297 N 
ATOM      9  C   UNL     1      -1.252   0.315   7.084  0.00  0.00    +0.109 C 
ATOM     10  C   UNL     1      -2.373  -0.071   6.114  0.00  0.00    +0.032 C 
ATOM     11  C   UNL     1      -1.763  -0.465   4.766  0.00  0.00    +0.078 C 
ATOM     12  C   UNL     1      -0.849  -1.678   4.954  0.00  0.00    +0.032 C 
ATOM     13  C   UNL     1       0.290  -1.311   5.911  0.00  0.00    +0.109 C 
BRANCH   6  19
ATOM     14  C   UNL     1      -0.586   0.671   9.694  0.00  0.00    +0.016 A 
ATOM     15  C   UNL     1      -1.052   1.235  10.862  0.00  0.00    +0.039 A 
ATOM     16  C   UNL     1      -1.363   0.429  11.947  0.00  0.00    +0.123 A 
ATOM     17  C   UNL     1      -1.212  -0.947  11.861  0.00  0.00    +0.039 A 
ATOM     18  C   UNL     1      -0.752  -1.520  10.696  0.00  0.00    +0.016 A 
ATOM     19  C   UNL     1      -0.438  -0.714   9.600  0.00  0.00    +0.037 A 
ATOM     20  F   UNL     1      -1.814   0.987  13.092  0.00  0.00    -0.205 F 
ENDBRANCH   6  19
ENDBRANCH   2  11
ENDBRANCH   1   4
BRANCH   1  21
ATOM     21  C   UNL     1      -3.025  -1.924   0.254  0.00  0.00    +0.025 C 
BRANCH  21  22
ATOM     22  C   UNL     1      -4.143  -2.276  -0.729  0.00  0.00    +0.060 C 
BRANCH  22  23
ATOM     23  C   UNL     1      -3.543  -2.665  -2.055  0.00  0.00    +0.083 A 
ATOM     24  C   UNL     1      -3.263  -1.786  -3.128  0.00  0.00    +0.114 A 
ATOM     25  C   UNL     1      -2.716  -2.554  -4.152  0.00  0.00    +0.138 A 
ATOM     26  N   UNL     1      -2.679  -3.833  -3.713  0.00  0.00    -0.217 N 
ATOM     27  N   UNL     1      -3.197  -3.870  -2.414  0.00  0.00    -0.168 NA
BRANCH  26  28
ATOM     28  C   UNL     1      -2.203  -4.934  -4.438  0.00  0.00    +0.068 A 
ATOM     29  C   UNL     1      -2.397  -4.999  -5.811  0.00  0.00    +0.030 A 
ATOM     30  C   UNL     1      -1.922  -6.083  -6.524  0.00  0.00    +0.040 A 
ATOM     31  C   UNL     1      -1.264  -7.110  -5.868  0.00  0.00    +0.124 A 
ATOM     32  C   UNL     1      -1.075  -7.050  -4.498  0.00  0.00    +0.040 A 
ATOM     33  C   UNL     1      -1.544  -5.965  -3.782  0.00  0.00    +0.030 A 
ATOM     34  F   UNL     1      -0.805  -8.171  -6.567  0.00  0.00    -0.205 F 
ENDBRANCH  26  28
BRANCH  25  35
ATOM     35  N   UNL     1      -2.295  -2.097  -5.386  0.00  0.00    -0.342 N 
ATOM     36  H   UNL     1      -1.876  -2.801  -6.120  0.00  0.00    +0.144 HD
ATOM     37  H   UNL     1      -2.378  -1.028  -5.634  0.00  0.00    +0.144 HD
ENDBRANCH  25  35
BRANCH  24  38
ATOM     38  C   UNL     1      -3.496  -0.373  -3.154  0.00  0.00    +0.104 C 
ATOM     39  N   UNL     1      -3.681   0.748  -3.175  0.00  0.00    -0.191 NA
ENDBRANCH  24  38
ENDBRANCH  22  23
ENDBRANCH  21  22
ENDBRANCH   1  21
TORSDOF 9
