REMARK  Name = ZINC09604472
REMARK  7 active torsions:
REMARK  status: ('A' for Active; 'I' for Inactive)
REMARK    1  A    between atoms: C_4  and  C_7
REMARK    2  A    between atoms: C_7  and  C_9
REMARK    3  A    between atoms: C_12  and  C_15
REMARK    4  A    between atoms: C_15  and  O_17
REMARK    5  A    between atoms: O_17  and  C_18
REMARK    6  A    between atoms: C_18  and  C_19
REMARK    7  A    between atoms: N_21  and  N_22
REMARK                            x       y       z     vdW  Elec       q    Type
REMARK                         _______ _______ _______ _____ _____    ______ ____
ROOT
ATOM      1  C   UNL     1       8.449   6.275  -0.518  0.00  0.00    +0.329 C 
ENDROOT
BRANCH   1   2
ATOM      2  C   UNL     1       8.174   7.756  -0.483  0.00  0.00    +0.267 C 
ATOM      3  O   UNL     1       7.035   8.159  -0.378  0.00  0.00    -0.271 OA
ATOM      4  N   UNL     1       9.194   8.633  -0.568  0.00  0.00    -0.221 N 
ATOM      5  H   UNL     1      10.105   8.310  -0.652  0.00  0.00    +0.174 HD
BRANCH   4   6
ATOM      6  N   UNL     1       8.939  10.010  -0.536  0.00  0.00    -0.137 N 
ATOM      7  C   UNL     1       9.180  10.801   0.530  0.00  0.00    +0.263 C 
ATOM      8  O   UNL     1       9.641  10.469   1.601  0.00  0.00    -0.271 OA
ATOM      9  C   UNL     1       8.755  12.188   0.107  0.00  0.00    +0.114 C 
ATOM     10  C   UNL     1       9.943  13.143   0.145  0.00  0.00    +0.035 C 
ATOM     11  C   UNL     1       9.498  14.534  -0.313  0.00  0.00    +0.003 C 
ATOM     12  C   UNL     1       8.386  15.041   0.608  0.00  0.00    +0.000 C 
ATOM     13  C   UNL     1       7.192  14.087   0.540  0.00  0.00    +0.003 C 
ATOM     14  C   UNL     1       7.628  12.694   1.002  0.00  0.00    +0.035 C 
ATOM     15  N   UNL     1       8.279  12.011  -1.270  0.00  0.00    -0.284 N 
ATOM     16  C   UNL     1       8.431  10.705  -1.561  0.00  0.00    +0.326 C 
ATOM     17  O   UNL     1       8.137  10.212  -2.632  0.00  0.00    -0.251 OA
ATOM     18  H   UNL     1       7.928  12.700  -1.857  0.00  0.00    +0.151 HD
ENDBRANCH   4   6
ENDBRANCH   1   2
BRANCH   1  19
ATOM     19  O   UNL     1       7.196   5.548  -0.410  0.00  0.00    -0.452 OA
BRANCH  19  20
ATOM     20  C   UNL     1       7.267   4.203  -0.426  0.00  0.00    +0.340 C 
ATOM     21  O   UNL     1       8.345   3.652  -0.526  0.00  0.00    -0.245 OA
BRANCH  20  25
ATOM     22  C   UNL     1       3.714   1.883  -0.122  0.00  0.00    +0.022 A 
ATOM     23  C   UNL     1       3.641   3.278  -0.111  0.00  0.00    +0.012 A 
ATOM     24  C   UNL     1       4.792   4.029  -0.204  0.00  0.00    +0.015 A 
ATOM     25  C   UNL     1       6.031   3.396  -0.320  0.00  0.00    +0.059 A 
ATOM     26  C   UNL     1       6.104   2.002  -0.336  0.00  0.00    +0.015 A 
ATOM     27  C   UNL     1       4.954   1.250  -0.238  0.00  0.00    +0.012 A 
BRANCH  22  28
ATOM     28  C   UNL     1       2.479   1.077  -0.016  0.00  0.00    +0.193 C 
ATOM     29  O   UNL     1       2.393   0.017  -0.605  0.00  0.00    -0.287 OA
BRANCH  28  33
ATOM     30  C   UNL     1      -0.768   2.464   2.344  0.00  0.00    +0.000 A 
ATOM     31  C   UNL     1      -0.925   1.343   1.547  0.00  0.00    +0.001 A 
ATOM     32  C   UNL     1       0.127   0.884   0.782  0.00  0.00    +0.012 A 
ATOM     33  C   UNL     1       1.350   1.559   0.805  0.00  0.00    +0.022 A 
ATOM     34  C   UNL     1       1.499   2.693   1.607  0.00  0.00    +0.012 A 
ATOM     35  C   UNL     1       0.441   3.138   2.371  0.00  0.00    +0.001 A 
ENDBRANCH  28  33
ENDBRANCH  22  28
ENDBRANCH  20  25
ENDBRANCH  19  20
ENDBRANCH   1  19
TORSDOF 7
