REMARK  Name = ZINC09755025
REMARK  12 active torsions:
REMARK  status: ('A' for Active; 'I' for Inactive)
REMARK    1  A    between atoms: C_1  and  C_2
REMARK    2  A    between atoms: C_3  and  N_11
REMARK    3  A    between atoms: C_7  and  N_8
REMARK    4  A    between atoms: C_12  and  C_14
REMARK    5  A    between atoms: C_14  and  O_15
REMARK    6  A    between atoms: O_15  and  C_16
REMARK    7  A    between atoms: C_16  and  C_18
REMARK    8  A    between atoms: C_22  and  S_24
REMARK    9  A    between atoms: S_24  and  N_27
REMARK   10  A    between atoms: N_27  and  C_28
REMARK   11  A    between atoms: C_28  and  C_29
REMARK   12  A    between atoms: C_28  and  C_30
REMARK                            x       y       z     vdW  Elec       q    Type
REMARK                         _______ _______ _______ _____ _____    ______ ____
ROOT
ATOM      1  O   UNL     1      -1.839   5.705   1.536  0.00  0.00    -0.452 OA
ENDROOT
BRANCH   1   2
ATOM      2  C   UNL     1      -2.100   6.974   1.903  0.00  0.00    +0.340 C 
ATOM      3  O   UNL     1      -1.196   7.783   1.980  0.00  0.00    -0.245 OA
BRANCH   2   4
ATOM      4  C   UNL     1      -3.485   7.384   2.213  0.00  0.00    +0.061 A 
ATOM      5  C   UNL     1      -4.527   6.458   2.120  0.00  0.00    +0.015 A 
ATOM      6  C   UNL     1      -5.817   6.846   2.416  0.00  0.00    +0.003 A 
ATOM      7  C   UNL     1      -6.082   8.151   2.792  0.00  0.00    +0.028 A 
ATOM      8  C   UNL     1      -5.056   9.074   2.881  0.00  0.00    +0.106 A 
ATOM      9  C   UNL     1      -3.760   8.699   2.593  0.00  0.00    +0.043 A 
BRANCH   8  10
ATOM     10  S   UNL     1      -5.404  10.733   3.361  0.00  0.00    +0.059 S 
ATOM     11  O   UNL     1      -6.615  10.695   4.104  0.00  0.00    -0.153 OA
ATOM     12  O   UNL     1      -4.199  11.263   3.896  0.00  0.00    -0.153 OA
BRANCH  10  13
ATOM     13  N   UNL     1      -5.724  11.586   1.979  0.00  0.00    -0.187 NA
ATOM     14  H   UNL     1      -5.131  12.303   1.703  0.00  0.00    +0.148 HD
BRANCH  13  15
ATOM     15  C   UNL     1      -6.902  11.259   1.171  0.00  0.00    +0.070 C 
ATOM     16  C   UNL     1      -8.062  12.173   1.568  0.00  0.00    +0.025 C 
ATOM     17  C   UNL     1      -6.577  11.461  -0.310  0.00  0.00    +0.025 C 
ENDBRANCH  13  15
ENDBRANCH  10  13
ENDBRANCH   8  10
ENDBRANCH   2   4
ENDBRANCH   1   2
BRANCH   1  18
ATOM     18  C   UNL     1      -0.455   5.374   1.248  0.00  0.00    +0.328 C 
BRANCH  18  20
ATOM     19  N   UNL     1       0.840   3.388   0.543  0.00  0.00    -0.282 N 
ATOM     20  C   UNL     1      -0.356   3.922   0.857  0.00  0.00    +0.255 C 
ATOM     21  O   UNL     1      -1.355   3.233   0.826  0.00  0.00    -0.272 OA
ATOM     22  H   UNL     1       1.629   3.951   0.508  0.00  0.00    +0.155 HD
BRANCH  19  25
ATOM     23  C   UNL     1       3.238   2.047   1.289  0.00  0.00    +0.048 C 
ATOM     24  C   UNL     1       2.099   1.327   0.615  0.00  0.00    +0.001 A 
ATOM     25  C   UNL     1       0.946   2.020   0.268  0.00  0.00    +0.039 A 
ATOM     26  C   UNL     1      -0.102   1.352  -0.352  0.00  0.00    +0.024 A 
ATOM     27  C   UNL     1       0.005   0.002  -0.622  0.00  0.00    +0.004 A 
ATOM     28  C   UNL     1       1.154  -0.685  -0.276  0.00  0.00    +0.033 A 
ATOM     29  C   UNL     1       2.200  -0.023   0.342  0.00  0.00    +0.131 A 
BRANCH  29  30
ATOM     30  N   UNL     1       3.428  -0.762   0.710  0.00  0.00    +0.057 N 
ATOM     31  O   UNL     1       3.468  -1.974   0.594  0.00  0.00    -0.126 OA
ATOM     32  O   UNL     1       4.399  -0.158   1.130  0.00  0.00    -0.126 OA
ENDBRANCH  29  30
ENDBRANCH  19  25
ENDBRANCH  18  20
ENDBRANCH   1  18
TORSDOF 9
