REMARK  Name = ZINC20674875
REMARK  11 active torsions:
REMARK  status: ('A' for Active; 'I' for Inactive)
REMARK    1  A    between atoms: C_1  and  C_2
REMARK    2  A    between atoms: C_2  and  O_3
REMARK    3  A    between atoms: O_3  and  C_4
REMARK    4  A    between atoms: C_6  and  C_11
REMARK    5  A    between atoms: C_9  and  O_10
REMARK    6  A    between atoms: C_13  and  C_36
REMARK    7  A    between atoms: N_23  and  C_26
REMARK    8  A    between atoms: C_26  and  C_27
REMARK    9  A    between atoms: C_36  and  O_38
REMARK   10  A    between atoms: O_38  and  C_39
REMARK   11  A    between atoms: C_39  and  C_40
REMARK                            x       y       z     vdW  Elec       q    Type
REMARK                         _______ _______ _______ _____ _____    ______ ____
ROOT
ATOM      1  C   UNL     1       1.222  -2.189  -0.021  0.00  0.00    +0.126 C 
ATOM      2  C   UNL     1       0.916  -2.705  -1.434  0.00  0.00    +0.210 C 
ATOM      3  C   UNL     1      -0.539  -2.458  -1.739  0.00  0.00    +0.255 C 
ATOM      4  O   UNL     1      -0.889  -2.310  -2.893  0.00  0.00    -0.273 OA
ATOM      5  N   UNL     1      -1.446  -2.399  -0.773  0.00  0.00    -0.151 NA
ATOM      6  C   UNL     1      -1.129  -2.526   0.506  0.00  0.00    +0.175 C 
ATOM      7  N   UNL     1       0.174  -2.704   0.876  0.00  0.00    -0.311 N 
ATOM      8  N   UNL     1      -2.105  -2.478   1.455  0.00  0.00    -0.303 N 
ATOM      9  C   UNL     1      -1.778  -2.622   2.882  0.00  0.00    +0.123 C 
ATOM     10  C   UNL     1      -2.419  -1.451   3.643  0.00  0.00    +0.103 C 
ATOM     11  N   UNL     1      -3.855  -1.402   3.338  0.00  0.00    -0.295 NA
ATOM     12  C   UNL     1      -4.088  -1.135   1.912  0.00  0.00    +0.103 C 
ATOM     13  C   UNL     1      -3.514  -2.287   1.080  0.00  0.00    +0.123 C 
ATOM     14  H   UNL     1       0.452  -3.213   1.811  0.00  0.00    +0.149 HD
ENDROOT
BRANCH   1  17
ATOM     15  C   UNL     1       2.386   1.405  -0.014  0.00  0.00    +0.162 A 
ATOM     16  C   UNL     1       2.398   0.019  -0.021  0.00  0.00    +0.055 A 
ATOM     17  C   UNL     1       1.207  -0.682  -0.013  0.00  0.00    -0.022 A 
ATOM     18  C   UNL     1       0.002  -0.004   0.002  0.00  0.00    +0.009 A 
ATOM     19  C   UNL     1      -0.017   1.378   0.010  0.00  0.00    +0.049 A 
ATOM     20  C   UNL     1       1.174   2.087   0.002  0.00  0.00    +0.158 A 
BRANCH  20  21
ATOM     21  O   UNL     1       1.157   3.447   0.009  0.00  0.00    -0.503 OA
ATOM     22  H   UNL     1       0.198   3.985   0.021  0.00  0.00    +0.292 HD
ENDBRANCH  20  21
BRANCH  15  23
ATOM     23  O   UNL     1       3.557   2.096  -0.022  0.00  0.00    -0.489 OA
BRANCH  23  25
ATOM     24  C   UNL     1       5.968   2.274  -0.046  0.00  0.00    +0.048 C 
ATOM     25  C   UNL     1       4.763   1.330  -0.039  0.00  0.00    +0.226 C 
ENDBRANCH  23  25
ENDBRANCH  15  23
ENDBRANCH   1  17
BRANCH   2  26
ATOM     26  C   UNL     1       1.203  -4.183  -1.505  0.00  0.00    +0.321 C 
ATOM     27  O   UNL     1       1.610  -4.767  -0.528  0.00  0.00    -0.250 OA
BRANCH  26  28
ATOM     28  O   UNL     1       1.006  -4.851  -2.653  0.00  0.00    -0.464 OA
BRANCH  28  29
ATOM     29  C   UNL     1       1.304  -6.272  -2.648  0.00  0.00    +0.229 C 
ATOM     30  C   UNL     1       1.021  -6.857  -4.033  0.00  0.00    +0.048 C 
ENDBRANCH  28  29
ENDBRANCH  26  28
ENDBRANCH   2  26
BRANCH  11  31
ATOM     31  C   UNL     1      -4.539  -0.410   4.178  0.00  0.00    +0.119 C 
BRANCH  31  32
ATOM     32  C   UNL     1      -4.486  -0.849   5.618  0.00  0.00    -0.030 A 
ATOM     33  C   UNL     1      -5.498  -1.637   6.137  0.00  0.00    +0.009 A 
ATOM     34  C   UNL     1      -5.451  -2.046   7.457  0.00  0.00    +0.050 A 
ATOM     35  C   UNL     1      -4.395  -1.659   8.266  0.00  0.00    +0.166 A 
ATOM     36  C   UNL     1      -3.379  -0.862   7.745  0.00  0.00    +0.167 A 
ATOM     37  C   UNL     1      -3.430  -0.459   6.420  0.00  0.00    +0.054 A 
ATOM     38  O   UNL     1      -2.466  -0.620   8.730  0.00  0.00    -0.453 OA
ATOM     39  C   UNL     1      -2.721  -1.611   9.743  0.00  0.00    +0.466 C 
ATOM     40  O   UNL     1      -4.119  -1.917   9.577  0.00  0.00    -0.453 OA
ENDBRANCH  31  32
ENDBRANCH  11  31
TORSDOF 9
