REMARK  Name = ZINC09120455
REMARK  8 active torsions:
REMARK  status: ('A' for Active; 'I' for Inactive)
REMARK    1  A    between atoms: C_6  and  S_7
REMARK    2  A    between atoms: S_7  and  N_10
REMARK    3  A    between atoms: C_13  and  C_16
REMARK    4  A    between atoms: C_16  and  O_18
REMARK    5  A    between atoms: O_18  and  C_19
REMARK    6  A    between atoms: C_19  and  C_20
REMARK    7  A    between atoms: N_22  and  C_23
REMARK    8  A    between atoms: C_24  and  C_28
REMARK                            x       y       z     vdW  Elec       q    Type
REMARK                         _______ _______ _______ _____ _____    ______ ____
ROOT
ATOM      1  C   UNL     1       1.136   7.486   4.416  0.00  0.00    +0.311 C 
ATOM      2  O   UNL     1       2.030   8.265   4.184  0.00  0.00    -0.251 OA
ENDROOT
BRANCH   1   6
ATOM      3  N   UNL     1       1.154   4.329   1.596  0.00  0.00    -0.177 NA
ATOM      4  C   UNL     1      -0.107   4.535   2.322  0.00  0.00    +0.110 C 
ATOM      5  C   UNL     1      -0.106   5.935   2.932  0.00  0.00    +0.032 C 
ATOM      6  C   UNL     1       1.149   6.116   3.788  0.00  0.00    +0.100 C 
ATOM      7  C   UNL     1       2.394   5.970   2.909  0.00  0.00    +0.032 C 
ATOM      8  C   UNL     1       2.422   4.565   2.300  0.00  0.00    +0.110 C 
BRANCH   3   9
ATOM      9  S   UNL     1       1.146   3.847   0.011  0.00  0.00    +0.061 S 
ATOM     10  O   UNL     1       2.380   4.274  -0.549  0.00  0.00    -0.153 OA
ATOM     11  O   UNL     1      -0.110   4.239  -0.526  0.00  0.00    -0.153 OA
BRANCH   9  17
ATOM     12  C   UNL     1      -0.017   1.378   0.010  0.00  0.00    +0.030 A 
ATOM     13  C   UNL     1       0.002  -0.004   0.002  0.00  0.00    +0.022 A 
ATOM     14  C   UNL     1       1.210  -0.679  -0.013  0.00  0.00    +0.041 A 
ATOM     15  C   UNL     1       2.398   0.030  -0.021  0.00  0.00    +0.022 A 
ATOM     16  C   UNL     1       2.378   1.412  -0.013  0.00  0.00    +0.030 A 
ATOM     17  C   UNL     1       1.171   2.086   0.002  0.00  0.00    +0.106 A 
ATOM     18 CL   UNL     1       1.234  -2.415  -0.022  0.00  0.00    -0.084 Cl
ENDBRANCH   9  17
ENDBRANCH   3   9
ENDBRANCH   1   6
BRANCH   1  19
ATOM     19  O   UNL     1       0.132   7.840   5.233  0.00  0.00    -0.455 OA
BRANCH  19  20
ATOM     20  C   UNL     1       0.184   9.175   5.802  0.00  0.00    +0.328 C 
BRANCH  20  21
ATOM     21  C   UNL     1      -1.017   9.392   6.685  0.00  0.00    +0.255 C 
ATOM     22  O   UNL     1      -1.837   8.509   6.822  0.00  0.00    -0.272 OA
ATOM     23  N   UNL     1      -1.181  10.568   7.324  0.00  0.00    -0.277 N 
ATOM     24  H   UNL     1      -0.525  11.274   7.214  0.00  0.00    +0.155 HD
BRANCH  23  25
ATOM     25  C   UNL     1      -2.286  10.768   8.136  0.00  0.00    +0.084 A 
ATOM     26  C   UNL     1      -2.623  11.896   8.874  0.00  0.00    +0.065 A 
ATOM     27  C   UNL     1      -3.846  11.832   9.638  0.00  0.00    +0.022 A 
ATOM     28  C   UNL     1      -4.548  10.686   9.578  0.00  0.00    +0.048 A 
ATOM     29  S   UNL     1      -3.578   9.668   8.485  0.00  0.00    -0.081 S 
BRANCH  26  30
ATOM     30  C   UNL     1      -1.779  13.095   8.873  0.00  0.00    +0.244 C 
ATOM     31  O   UNL     1      -0.755  13.118   8.216  0.00  0.00    -0.270 OA
ATOM     32  N   UNL     1      -2.137  14.172   9.601  0.00  0.00    -0.325 N 
ATOM     33  H   UNL     1      -2.953  14.153  10.125  0.00  0.00    +0.145 HD
ATOM     34  H   UNL     1      -1.578  14.965   9.601  0.00  0.00    +0.145 HD
ENDBRANCH  26  30
ENDBRANCH  23  25
ENDBRANCH  20  21
ENDBRANCH  19  20
ENDBRANCH   1  19
TORSDOF 8
