REMARK  Name = ZINC12083081
REMARK  8 active torsions:
REMARK  status: ('A' for Active; 'I' for Inactive)
REMARK    1  A    between atoms: C_1  and  C_2
REMARK    2  A    between atoms: C_2  and  C_3
REMARK    3  A    between atoms: C_3  and  N_4
REMARK    4  A    between atoms: C_8  and  N_17
REMARK    5  A    between atoms: C_12  and  C_16
REMARK    6  A    between atoms: C_18  and  C_20
REMARK    7  A    between atoms: C_21  and  C_22
REMARK    8  A    between atoms: C_25  and  N_28
REMARK                            x       y       z     vdW  Elec       q    Type
REMARK                         _______ _______ _______ _____ _____    ______ ____
ROOT
ATOM      1  N   UNL     1       2.073   0.242   1.312  0.00  0.00    -0.265 N 
ATOM      2  C   UNL     1       2.256   1.472   0.661  0.00  0.00    +0.078 A 
ATOM      3  C   UNL     1       3.495   2.091   0.654  0.00  0.00    +0.029 A 
ATOM      4  C   UNL     1       3.657   3.302   0.008  0.00  0.00    +0.025 A 
ATOM      5  C   UNL     1       2.579   3.899  -0.634  0.00  0.00    +0.037 A 
ATOM      6  C   UNL     1       1.335   3.280  -0.630  0.00  0.00    +0.071 A 
ATOM      7  C   UNL     1       1.173   2.068   0.016  0.00  0.00    +0.145 A 
ATOM      8  O   UNL     1      -0.038   1.448   0.030  0.00  0.00    -0.478 OA
ATOM      9  C   UNL     1      -0.028   0.018   0.027  0.00  0.00    +0.256 C 
ATOM     10  C   UNL     1       0.966  -0.484   1.043  0.00  0.00    +0.260 C 
ATOM     11  O   UNL     1       0.773  -1.535   1.616  0.00  0.00    -0.271 OA
ATOM     12  C   UNL     1       0.366  -0.485  -1.363  0.00  0.00    +0.062 C 
ENDROOT
BRANCH   5  13
ATOM     13  N   UNL     1       2.748   5.125  -1.288  0.00  0.00    -0.282 N 
ATOM     14  C   UNL     1       2.067   5.383  -2.422  0.00  0.00    +0.241 C 
ATOM     15  O   UNL     1       1.244   4.586  -2.832  0.00  0.00    -0.270 OA
ATOM     16  H   UNL     1       3.354   5.789  -0.924  0.00  0.00    +0.155 HD
BRANCH  14  17
ATOM     17  C   UNL     1       2.317   6.623  -3.159  0.00  0.00    +0.068 C 
ATOM     18  C   UNL     1       1.636   6.881  -4.294  0.00  0.00    +0.013 C 
BRANCH  18  19
ATOM     19  C   UNL     1       1.887   8.127  -5.036  0.00  0.00    -0.025 A 
ATOM     20  C   UNL     1       2.828   9.049  -4.564  0.00  0.00    +0.010 A 
ATOM     21  C   UNL     1       3.061  10.212  -5.267  0.00  0.00    +0.033 A 
ATOM     22  C   UNL     1       2.360  10.473  -6.431  0.00  0.00    +0.126 A 
ATOM     23  C   UNL     1       1.424   9.569  -6.902  0.00  0.00    +0.033 A 
ATOM     24  C   UNL     1       1.183   8.399  -6.213  0.00  0.00    +0.010 A 
BRANCH  22  25
ATOM     25  N   UNL     1       2.612  11.727  -7.176  0.00  0.00    +0.056 N 
ATOM     26  O   UNL     1       1.996  11.961  -8.201  0.00  0.00    -0.126 OA
ATOM     27  O   UNL     1       3.435  12.525  -6.765  0.00  0.00    -0.126 OA
ENDBRANCH  22  25
ENDBRANCH  18  19
ENDBRANCH  14  17
ENDBRANCH   5  13
BRANCH   1  28
ATOM     28  C   UNL     1       3.069  -0.248   2.269  0.00  0.00    +0.113 C 
BRANCH  28  30
ATOM     29  C   UNL     1       5.154  -1.599   2.533  0.00  0.00    +0.005 C 
ATOM     30  C   UNL     1       4.114  -1.088   1.533  0.00  0.00    +0.016 C 
ENDBRANCH  28  30
ENDBRANCH   1  28
TORSDOF 6
