REMARK  Name = ZINC64120567
REMARK  9 active torsions:
REMARK  status: ('A' for Active; 'I' for Inactive)
REMARK    1  A    between atoms: C_1  and  O_2
REMARK    2  A    between atoms: O_2  and  C_3
REMARK    3  A    between atoms: C_6  and  N_9
REMARK    4  A    between atoms: C_11  and  C_23
REMARK    5  A    between atoms: C_13  and  C_16
REMARK    6  A    between atoms: C_23  and  N_24
REMARK    7  A    between atoms: N_24  and  C_25
REMARK    8  A    between atoms: C_25  and  C_26
REMARK    9  A    between atoms: C_26  and  C_27
REMARK                            x       y       z     vdW  Elec       q    Type
REMARK                         _______ _______ _______ _____ _____    ______ ____
ROOT
ATOM      1  N   UNL     1       2.540  -2.503   4.230  0.00  0.00    -0.266 N 
ATOM      2  C   UNL     1       2.675  -3.959   4.395  0.00  0.00    +0.127 C 
ATOM      3  C   UNL     1       3.523  -4.152   5.675  0.00  0.00    +0.014 C 
ATOM      4  C   UNL     1       4.200  -2.760   5.799  0.00  0.00    +0.107 C 
ATOM      5  N   UNL     1       3.143  -1.859   5.279  0.00  0.00    -0.232 NA
ATOM      6  H   UNL     1       3.533  -0.976   4.986  0.00  0.00    +0.145 HD
ENDROOT
BRANCH   4   7
ATOM      7  C   UNL     1       4.524  -2.444   7.237  0.00  0.00    -0.010 A 
ATOM      8  C   UNL     1       3.639  -1.703   7.998  0.00  0.00    +0.006 A 
ATOM      9  C   UNL     1       3.936  -1.414   9.316  0.00  0.00    +0.000 A 
ATOM     10  C   UNL     1       5.118  -1.865   9.875  0.00  0.00    +0.001 A 
ATOM     11  C   UNL     1       6.003  -2.606   9.115  0.00  0.00    +0.020 A 
ATOM     12  C   UNL     1       5.704  -2.901   7.796  0.00  0.00    +0.046 A 
ATOM     13 CL   UNL     1       6.812  -3.837   6.843  0.00  0.00    -0.083 Cl
ENDBRANCH   4   7
BRANCH   1  17
ATOM     14  C   UNL     1       0.626  -0.619   1.042  0.00  0.00    +0.120 A 
ATOM     15  C   UNL     1       1.202   0.139   2.051  0.00  0.00    +0.047 A 
ATOM     16  C   UNL     1       1.836  -0.484   3.108  0.00  0.00    +0.028 A 
ATOM     17  C   UNL     1       1.897  -1.870   3.160  0.00  0.00    +0.045 A 
ATOM     18  C   UNL     1       1.320  -2.629   2.150  0.00  0.00    +0.028 A 
ATOM     19  C   UNL     1       0.682  -2.004   1.097  0.00  0.00    +0.047 A 
BRANCH  14  21
ATOM     20  C   UNL     1      -0.017   1.425   0.010  0.00  0.00    +0.277 C 
ATOM     21  O   UNL     1       0.002  -0.004   0.002  0.00  0.00    -0.495 OA
ENDBRANCH  14  21
ENDBRANCH   1  17
BRANCH   3  22
ATOM     22  C   UNL     1       4.564  -5.257   5.484  0.00  0.00    -0.076 C 
BRANCH  22  23
ATOM     23  N   UNL     1       3.884  -6.549   5.329  0.00  0.00    +0.380 N 
ATOM     24  H   UNL     1       3.336  -6.742   6.154  0.00  0.00    -0.086 HD
ATOM     25  H   UNL     1       3.278  -6.516   4.523  0.00  0.00    -0.086 HD
BRANCH  23  26
ATOM     26  C   UNL     1       4.883  -7.610   5.146  0.00  0.00    -0.076 C 
BRANCH  26  27
ATOM     27  C   UNL     1       4.175  -8.956   4.984  0.00  0.00    +0.038 C 
BRANCH  27  28
ATOM     28  C   UNL     1       5.201 -10.044   4.796  0.00  0.00    +0.057 A 
ATOM     29  H   UNL     1       6.699 -12.724   5.354  0.00  0.00    +0.166 HD
ATOM     30  C   UNL     1       5.313 -11.162   5.539  0.00  0.00    +0.107 A 
ATOM     31  N   UNL     1       6.368 -11.871   5.030  0.00  0.00    -0.351 N 
ATOM     32  C   UNL     1       6.864 -11.161   3.994  0.00  0.00    +0.196 A 
ATOM     33  N   UNL     1       6.157 -10.072   3.857  0.00  0.00    -0.241 NA
ENDBRANCH  27  28
ENDBRANCH  26  27
ENDBRANCH  23  26
ENDBRANCH  22  23
ENDBRANCH   3  22
TORSDOF 8
