REMARK  Name = ZINC59170688
REMARK  6 active torsions:
REMARK  status: ('A' for Active; 'I' for Inactive)
REMARK    1  A    between atoms: C_1  and  C_2
REMARK    2  A    between atoms: C_9  and  C_23
REMARK    3  A    between atoms: N_11  and  C_12
REMARK    4  A    between atoms: C_15  and  S_18
REMARK    5  A    between atoms: S_18  and  N_21
REMARK    6  A    between atoms: N_25  and  C_26
REMARK                            x       y       z     vdW  Elec       q    Type
REMARK                         _______ _______ _______ _____ _____    ______ ____
ROOT
ATOM      1  C   UNL     1      -1.265   1.246   0.063  0.00  0.00    +0.044 C 
ATOM      2  C   UNL     1      -0.790  -0.183   0.002  0.00  0.00    -0.050 A 
ATOM      3  C   UNL     1      -0.078  -0.625  -1.103  0.00  0.00    +0.007 A 
ATOM      4  C   UNL     1       0.364  -1.931  -1.180  0.00  0.00    +0.047 A 
ATOM      5  C   UNL     1       0.096  -2.812  -0.142  0.00  0.00    +0.137 A 
ATOM      6  C   UNL     1      -0.623  -2.360   0.981  0.00  0.00    +0.018 A 
ATOM      7  C   UNL     1      -1.060  -1.032   1.039  0.00  0.00    +0.015 A 
ATOM      8  C   UNL     1      -0.897  -3.289   2.080  0.00  0.00    +0.030 A 
ATOM      9  C   UNL     1      -0.203  -4.492   2.086  0.00  0.00    +0.098 A 
ATOM     10  C   UNL     1       0.748  -4.726   0.981  0.00  0.00    +0.212 A 
ATOM     11  N   UNL     1       1.787  -5.518   1.136  0.00  0.00    -0.325 N 
ATOM     12  O   UNL     1       0.518  -4.098  -0.201  0.00  0.00    -0.439 OA
ATOM     13  H   UNL     1       1.994  -5.880   2.012  0.00  0.00    +0.169 HD
ENDROOT
BRANCH  11  14
ATOM     14  C   UNL     1       2.576  -5.830   0.064  0.00  0.00    +0.042 A 
ATOM     15  C   UNL     1       1.994  -6.182  -1.157  0.00  0.00    +0.027 A 
ATOM     16  C   UNL     1       2.795  -6.495  -2.234  0.00  0.00    +0.030 A 
ATOM     17  C   UNL     1       4.173  -6.462  -2.109  0.00  0.00    +0.105 A 
ATOM     18  C   UNL     1       4.756  -6.115  -0.903  0.00  0.00    +0.030 A 
ATOM     19  C   UNL     1       3.967  -5.793   0.181  0.00  0.00    +0.027 A 
BRANCH  17  20
ATOM     20  S   UNL     1       5.189  -6.865  -3.491  0.00  0.00    +0.056 S 
ATOM     21  O   UNL     1       6.439  -7.289  -2.966  0.00  0.00    -0.153 OA
ATOM     22  O   UNL     1       4.404  -7.684  -4.347  0.00  0.00    -0.153 OA
BRANCH  20  23
ATOM     23  N   UNL     1       5.475  -5.457  -4.315  0.00  0.00    -0.204 NA
ATOM     24  H   UNL     1       5.096  -4.623  -3.996  0.00  0.00    +0.144 HD
ATOM     25  H   UNL     1       6.021  -5.467  -5.117  0.00  0.00    +0.144 HD
ENDBRANCH  20  23
ENDBRANCH  17  20
ENDBRANCH  11  14
BRANCH   9  26
ATOM     26  C   UNL     1      -0.406  -5.492   3.148  0.00  0.00    +0.253 C 
ATOM     27  O   UNL     1      -1.101  -5.224   4.110  0.00  0.00    -0.270 OA
ATOM     28  N   UNL     1       0.177  -6.703   3.054  0.00  0.00    -0.279 N 
ATOM     29  H   UNL     1       0.774  -6.898   2.316  0.00  0.00    +0.155 HD
BRANCH  28  30
ATOM     30  C   UNL     1      -0.080  -7.680   4.023  0.00  0.00    +0.069 A 
ATOM     31  C   UNL     1      -0.413  -7.305   5.318  0.00  0.00    +0.026 A 
ATOM     32  C   UNL     1      -0.666  -8.272   6.272  0.00  0.00    +0.002 A 
ATOM     33  C   UNL     1      -0.588  -9.612   5.940  0.00  0.00    +0.003 A 
ATOM     34  C   UNL     1      -0.257  -9.990   4.652  0.00  0.00    +0.040 A 
ATOM     35  C   UNL     1      -0.007  -9.028   3.690  0.00  0.00    +0.144 A 
ATOM     36  F   UNL     1       0.311  -9.398   2.430  0.00  0.00    -0.204 F 
ENDBRANCH  28  30
ENDBRANCH   9  26
TORSDOF 5
