REMARK  Name = ZINC39852187
REMARK  7 active torsions:
REMARK  status: ('A' for Active; 'I' for Inactive)
REMARK    1  A    between atoms: C_4  and  O_7
REMARK    2  A    between atoms: O_7  and  C_8
REMARK    3  A    between atoms: C_8  and  C_9
REMARK    4  A    between atoms: N_11  and  N_12
REMARK    5  A    between atoms: C_13  and  C_15
REMARK    6  A    between atoms: C_18  and  N_21
REMARK    7  A    between atoms: C_24  and  C_26
REMARK                            x       y       z     vdW  Elec       q    Type
REMARK                         _______ _______ _______ _____ _____    ______ ____
ROOT
ATOM      1  C   UNL     1       7.999  -6.343  -0.113  0.00  0.00    +0.038 A 
ATOM      2  C   UNL     1       9.089  -5.487  -0.284  0.00  0.00    +0.015 A 
ATOM      3  C   UNL     1      10.368  -5.998  -0.299  0.00  0.00    +0.028 A 
ATOM      4  C   UNL     1      10.574  -7.365  -0.145  0.00  0.00    +0.066 A 
ATOM      5  C   UNL     1       9.491  -8.220   0.025  0.00  0.00    +0.028 A 
ATOM      6  C   UNL     1       8.210  -7.715   0.048  0.00  0.00    +0.015 A 
ENDROOT
BRANCH   4   7
ATOM      7  N   UNL     1      11.873  -7.880  -0.162  0.00  0.00    -0.231 N 
ATOM      8  C   UNL     1      12.945  -7.353   0.456  0.00  0.00    +0.082 A 
ATOM      9  C   UNL     1      14.025  -8.186   0.215  0.00  0.00    +0.011 A 
ATOM     10  C   UNL     1      13.578  -9.216  -0.596  0.00  0.00    +0.169 A 
ATOM     11  N   UNL     1      12.296  -9.046  -0.823  0.00  0.00    -0.161 NA
ATOM     12  C   UNL     1      15.387  -7.943   0.808  0.00  0.00    +0.047 C 
ATOM     13  C   UNL     1      15.653  -6.449   1.002  0.00  0.00    +0.080 C 
ATOM     14  C   UNL     1      14.443  -5.742   1.552  0.00  0.00    +0.114 A 
ATOM     15  C   UNL     1      13.159  -6.151   1.275  0.00  0.00    +0.042 A 
ATOM     16  C   UNL     1      12.273  -5.209   1.920  0.00  0.00    +0.051 A 
ATOM     17  C   UNL     1      13.077  -4.330   2.554  0.00  0.00    +0.196 A 
ATOM     18  O   UNL     1      14.361  -4.672   2.341  0.00  0.00    -0.467 OA
BRANCH  10  19
ATOM     19  C   UNL     1      14.421 -10.347  -1.125  0.00  0.00    +0.436 C 
ATOM     20  F   UNL     1      14.392 -11.413  -0.220  0.00  0.00    -0.164 F 
ATOM     21  F   UNL     1      13.915 -10.769  -2.359  0.00  0.00    -0.164 F 
ATOM     22  F   UNL     1      15.740  -9.909  -1.288  0.00  0.00    -0.164 F 
ENDBRANCH  10  19
ENDBRANCH   4   7
BRANCH   1  24
ATOM     23  N   UNL     1       6.424  -4.476  -0.251  0.00  0.00    -0.230 N 
ATOM     24  C   UNL     1       6.626  -5.799  -0.096  0.00  0.00    +0.260 C 
ATOM     25  O   UNL     1       5.678  -6.545   0.058  0.00  0.00    -0.269 OA
ATOM     26  H   UNL     1       7.180  -3.881  -0.373  0.00  0.00    +0.173 HD
BRANCH  23  29
ATOM     27  C   UNL     1       4.920  -2.636  -0.389  0.00  0.00    +0.267 C 
ATOM     28  O   UNL     1       5.865  -1.892  -0.543  0.00  0.00    -0.271 OA
ATOM     29  N   UNL     1       5.122  -3.959  -0.234  0.00  0.00    -0.231 N 
ATOM     30  H   UNL     1       4.366  -4.554  -0.112  0.00  0.00    +0.173 HD
BRANCH  27  31
ATOM     31  C   UNL     1       3.519  -2.080  -0.372  0.00  0.00    +0.326 C 
BRANCH  31  32
ATOM     32  O   UNL     1       3.566  -0.664  -0.554  0.00  0.00    -0.483 OA
BRANCH  32  36
ATOM     33  C   UNL     1      -0.039   1.341  -0.584  0.00  0.00    +0.000 A 
ATOM     34  C   UNL     1       1.142   2.042  -0.746  0.00  0.00    +0.004 A 
ATOM     35  C   UNL     1       2.350   1.373  -0.736  0.00  0.00    +0.045 A 
ATOM     36  C   UNL     1       2.378  -0.003  -0.564  0.00  0.00    +0.121 A 
ATOM     37  C   UNL     1       1.192  -0.704  -0.401  0.00  0.00    +0.045 A 
ATOM     38  C   UNL     1      -0.014  -0.030  -0.412  0.00  0.00    +0.004 A 
ENDBRANCH  32  36
ENDBRANCH  31  32
ENDBRANCH  27  31
ENDBRANCH  23  29
ENDBRANCH   1  24
TORSDOF 7
