REMARK  Name = ZINC12984802
REMARK  9 active torsions:
REMARK  status: ('A' for Active; 'I' for Inactive)
REMARK    1  A    between atoms: C_1  and  C_2
REMARK    2  A    between atoms: C_7  and  C_9
REMARK    3  A    between atoms: C_7  and  C_25
REMARK    4  A    between atoms: C_7  and  N_59
REMARK    5  A    between atoms: C_9  and  N_10
REMARK    6  A    between atoms: N_13  and  C_14
REMARK    7  A    between atoms: C_14  and  C_15
REMARK    8  A    between atoms: C_18  and  C_21
REMARK    9  A    between atoms: N_23  and  C_24
REMARK                            x       y       z     vdW  Elec       q    Type
REMARK                         _______ _______ _______ _____ _____    ______ ____
ROOT
ATOM      1  N   UNL     1      -2.545   3.705  -1.497  0.00  0.00    -0.301 N 
ATOM      2  C   UNL     1      -2.971   4.175  -2.686  0.00  0.00    +0.300 C 
ATOM      3  O   UNL     1      -2.416   3.827  -3.711  0.00  0.00    -0.253 OA
ATOM      4  N   UNL     1      -4.012   5.029  -2.740  0.00  0.00    -0.295 N 
ATOM      5  H   UNL     1      -2.988   3.982  -0.680  0.00  0.00    +0.150 HD
ATOM      6  H   UNL     1      -4.454   5.306  -1.923  0.00  0.00    +0.151 HD
ENDROOT
BRANCH   1   7
ATOM      7  C   UNL     1      -1.414   2.776  -1.439  0.00  0.00    +0.095 C 
BRANCH   7   8
ATOM      8  C   UNL     1      -1.211   2.310   0.004  0.00  0.00    -0.013 C 
BRANCH   8  15
ATOM      9  C   UNL     1      -5.637  -0.652   2.078  0.00  0.00    +0.007 C 
ATOM     10  C   UNL     1      -4.252  -0.262   1.559  0.00  0.00    -0.018 C 
ATOM     11  C   UNL     1      -3.659   0.831   2.453  0.00  0.00    -0.015 C 
ATOM     12  C   UNL     1      -2.301   1.260   1.893  0.00  0.00    -0.078 C 
ATOM     13  C   UNL     1      -2.994   0.714  -0.364  0.00  0.00    -0.078 C 
ATOM     14  C   UNL     1      -4.373   0.269   0.128  0.00  0.00    -0.015 C 
ATOM     15  N   UNL     1      -2.490   1.784   0.524  0.00  0.00    +0.386 N 
ATOM     16  H   UNL     1      -3.177   2.546   0.551  0.00  0.00    -0.081 HD
ENDBRANCH   8  15
BRANCH   8  17
ATOM     17  C   UNL     1      -0.784   3.479   0.855  0.00  0.00    -0.022 A 
ATOM     18  C   UNL     1       0.459   3.820   1.274  0.00  0.00    +0.009 A 
ATOM     19  C   UNL     1       0.617   4.952   2.052  0.00  0.00    +0.008 A 
ATOM     20  C   UNL     1      -0.476   5.687   2.372  0.00  0.00    +0.045 A 
ATOM     21  S   UNL     1      -1.783   4.777   1.564  0.00  0.00    -0.103 S 
ENDBRANCH   8  17
ENDBRANCH   7   8
ENDBRANCH   1   7
BRANCH   4  22
ATOM     22  C   UNL     1      -4.474   5.540  -4.033  0.00  0.00    +0.141 C 
BRANCH  22  23
ATOM     23  C   UNL     1      -5.641   6.469  -3.817  0.00  0.00    -0.030 A 
ATOM     24  C   UNL     1      -6.931   5.968  -3.820  0.00  0.00    +0.006 A 
ATOM     25  C   UNL     1      -8.002   6.813  -3.619  0.00  0.00    +0.013 A 
ATOM     26  C   UNL     1      -7.784   8.178  -3.423  0.00  0.00    +0.037 A 
ATOM     27  C   UNL     1      -6.481   8.678  -3.427  0.00  0.00    +0.013 A 
ATOM     28  C   UNL     1      -5.418   7.821  -3.624  0.00  0.00    +0.006 A 
BRANCH  26  29
ATOM     29  C   UNL     1      -8.929   9.090  -3.211  0.00  0.00    +0.244 C 
ATOM     30  O   UNL     1      -8.736  10.278  -3.041  0.00  0.00    -0.270 OA
ATOM     31  N   UNL     1     -10.186   8.604  -3.208  0.00  0.00    -0.314 N 
ATOM     32  C   UNL     1     -11.320   9.508  -2.999  0.00  0.00    +0.128 C 
ATOM     33  H   UNL     1     -10.340   7.656  -3.344  0.00  0.00    +0.149 HD
ENDBRANCH  26  29
ENDBRANCH  22  23
ENDBRANCH   4  22
TORSDOF 7
