REMARK  Name = ZINC04917711
REMARK  7 active torsions:
REMARK  status: ('A' for Active; 'I' for Inactive)
REMARK    1  A    between atoms: C_5  and  N_7
REMARK    2  A    between atoms: C_8  and  C_10
REMARK    3  A    between atoms: C_12  and  N_27
REMARK    4  A    between atoms: C_15  and  N_16
REMARK    5  A    between atoms: C_17  and  C_19
REMARK    6  A    between atoms: C_19  and  N_20
REMARK    7  A    between atoms: N_20  and  C_21
REMARK                            x       y       z     vdW  Elec       q    Type
REMARK                         _______ _______ _______ _____ _____    ______ ____
ROOT
ATOM      1  C   UNL     1      -0.004  -4.487   0.760  0.00  0.00    +0.060 A 
ATOM      2  C   UNL     1       1.192  -5.206   0.828  0.00  0.00    +0.047 A 
ATOM      3  C   UNL     1       1.259  -6.478   0.303  0.00  0.00    +0.127 A 
ATOM      4  C   UNL     1       0.146  -7.049  -0.292  0.00  0.00    +0.034 A 
ATOM      5  C   UNL     1      -1.042  -6.351  -0.367  0.00  0.00    +0.026 A 
ATOM      6  C   UNL     1      -1.130  -5.070   0.161  0.00  0.00    +0.046 A 
ENDROOT
BRANCH   1   8
ATOM      7  N   UNL     1       1.026  -2.527   1.800  0.00  0.00    -0.279 N 
ATOM      8  C   UNL     1      -0.083  -3.125   1.321  0.00  0.00    +0.250 C 
ATOM      9  O   UNL     1      -1.149  -2.541   1.350  0.00  0.00    -0.270 OA
ATOM     10  H   UNL     1       1.890  -2.959   1.703  0.00  0.00    +0.155 HD
BRANCH   7  15
ATOM     11  C   UNL     1      -0.349   0.330   3.662  0.00  0.00    +0.002 A 
ATOM     12  C   UNL     1       0.746   1.174   3.695  0.00  0.00    +0.003 A 
ATOM     13  C   UNL     1       1.935   0.793   3.101  0.00  0.00    +0.040 A 
ATOM     14  C   UNL     1       2.032  -0.434   2.471  0.00  0.00    +0.144 A 
ATOM     15  C   UNL     1       0.932  -1.284   2.436  0.00  0.00    +0.069 A 
ATOM     16  C   UNL     1      -0.259  -0.897   3.034  0.00  0.00    +0.026 A 
ATOM     17  F   UNL     1       3.194  -0.806   1.890  0.00  0.00    -0.204 F 
ENDBRANCH   7  15
ENDBRANCH   1   8
BRANCH   6  18
ATOM     18  N   UNL     1      -2.329  -4.365   0.091  0.00  0.00    -0.286 N 
ATOM     19  C   UNL     1      -3.498  -5.031   0.001  0.00  0.00    +0.200 C 
ATOM     20  O   UNL     1      -3.514  -6.241   0.081  0.00  0.00    -0.278 OA
ATOM     21  H   UNL     1      -2.324  -3.395   0.108  0.00  0.00    +0.155 HD
BRANCH  19  22
ATOM     22  C   UNL     1      -4.784  -4.272  -0.200  0.00  0.00    +0.015 C 
BRANCH  22  23
ATOM     23  N   UNL     1      -5.906  -5.218  -0.267  0.00  0.00    +0.387 N 
ATOM     24  H   UNL     1      -5.766  -5.852  -1.038  0.00  0.00    -0.085 HD
ATOM     25  H   UNL     1      -5.955  -5.742   0.594  0.00  0.00    -0.085 HD
BRANCH  23  26
ATOM     26  C   UNL     1      -7.160  -4.478  -0.463  0.00  0.00    -0.071 C 
ATOM     27  C   UNL     1      -7.436  -3.608   0.765  0.00  0.00    -0.016 C 
ATOM     28  C   UNL     1      -8.742  -2.837   0.561  0.00  0.00    -0.002 C 
ATOM     29  C   UNL     1      -9.893  -3.826   0.368  0.00  0.00    -0.000 C 
ATOM     30  C   UNL     1      -9.617  -4.696  -0.860  0.00  0.00    -0.002 C 
ATOM     31  C   UNL     1      -8.311  -5.467  -0.656  0.00  0.00    -0.016 C 
ENDBRANCH  23  26
ENDBRANCH  22  23
ENDBRANCH  19  22
ENDBRANCH   6  18
BRANCH   3  32
ATOM     32  N   UNL     1       2.527  -7.239   0.376  0.00  0.00    +0.056 N 
ATOM     33  O   UNL     1       3.500  -6.743   0.895  0.00  0.00    -0.126 OA
ATOM     34  O   UNL     1       2.590  -8.355  -0.083  0.00  0.00    -0.126 OA
ENDBRANCH   3  32
TORSDOF 7
