REMARK  Name = ZINC12974045
REMARK  8 active torsions:
REMARK  status: ('A' for Active; 'I' for Inactive)
REMARK    1  A    between atoms: C_1  and  C_2
REMARK    2  A    between atoms: C_2  and  C_3
REMARK    3  A    between atoms: C_2  and  C_4
REMARK    4  A    between atoms: C_4  and  C_5
REMARK    5  A    between atoms: C_5  and  C_7
REMARK    6  A    between atoms: C_5  and  N_16
REMARK    7  A    between atoms: C_7  and  N_9
REMARK    8  A    between atoms: C_17  and  C_19
REMARK                            x       y       z     vdW  Elec       q    Type
REMARK                         _______ _______ _______ _____ _____    ______ ____
ROOT
ATOM      1  C   UNL     1       2.036   0.037  -1.245  0.00  0.00    +0.162 C 
ENDROOT
BRANCH   1   2
ATOM      2  N   UNL     1       2.022   1.498  -1.135  0.00  0.00    -0.300 N 
ATOM      3  C   UNL     1       1.870   2.082   0.071  0.00  0.00    +0.246 C 
ATOM      4  O   UNL     1       1.835   1.399   1.076  0.00  0.00    -0.270 OA
ATOM      5  H   UNL     1       2.123   2.045  -1.929  0.00  0.00    +0.150 HD
BRANCH   3   6
ATOM      6  C   UNL     1       1.745   3.550   0.170  0.00  0.00    +0.055 A 
ATOM      7  C   UNL     1       1.780   4.336  -0.984  0.00  0.00    +0.016 A 
ATOM      8  C   UNL     1       1.663   5.706  -0.885  0.00  0.00    +0.021 A 
ATOM      9  C   UNL     1       1.512   6.304   0.356  0.00  0.00    +0.042 A 
ATOM     10  C   UNL     1       1.478   5.532   1.504  0.00  0.00    +0.040 A 
ATOM     11  C   UNL     1       1.587   4.158   1.418  0.00  0.00    +0.054 A 
ATOM     12 CL   UNL     1       1.536   3.189   2.858  0.00  0.00    -0.083 Cl
ATOM     13 CL   UNL     1       1.367   8.031   0.471  0.00  0.00    -0.083 Cl
ENDBRANCH   3   6
ENDBRANCH   1   2
BRANCH   1  14
ATOM     14  C   UNL     1       2.707  -0.363  -2.533  0.00  0.00    +0.259 C 
ATOM     15  O   UNL     1       3.133   0.490  -3.288  0.00  0.00    -0.272 OA
BRANCH  14  16
ATOM     16  N   UNL     1       2.832  -1.647  -2.845  0.00  0.00    -0.144 NA
ATOM     17  C   UNL     1       3.427  -2.002  -3.986  0.00  0.00    +0.215 A 
ATOM     18  N   UNL     1       3.952  -1.162  -4.917  0.00  0.00    -0.316 N 
ATOM     19  H   UNL     1       3.961  -0.193  -4.868  0.00  0.00    +0.170 HD
ATOM     20  C   UNL     1       4.467  -1.920  -5.936  0.00  0.00    +0.221 A 
ATOM     21  N   UNL     1       4.278  -3.172  -5.665  0.00  0.00    -0.162 NA
ATOM     22  N   UNL     1       3.623  -3.262  -4.429  0.00  0.00    -0.247 N 
ATOM     23  H   UNL     1       3.358  -4.078  -3.977  0.00  0.00    +0.192 HD
ENDBRANCH  14  16
ENDBRANCH   1  14
BRANCH   1  24
ATOM     24  C   UNL     1       0.599  -0.488  -1.233  0.00  0.00    +0.035 C 
BRANCH  24  26
ATOM     25  C   UNL     1       1.221  -2.467   0.160  0.00  0.00    +0.007 C 
ATOM     26  C   UNL     1       0.616  -2.017  -1.171  0.00  0.00    -0.015 C 
ATOM     27  C   UNL     1      -0.815  -2.547  -1.286  0.00  0.00    +0.007 C 
ENDBRANCH  24  26
ENDBRANCH   1  24
TORSDOF 6
