REMARK  Name = ZINC17084607
REMARK  7 active torsions:
REMARK  status: ('A' for Active; 'I' for Inactive)
REMARK    1  A    between atoms: C_1  and  C_2
REMARK    2  A    between atoms: C_2  and  N_3
REMARK    3  A    between atoms: C_6  and  C_17
REMARK    4  A    between atoms: N_10  and  C_11
REMARK    5  A    between atoms: C_17  and  C_18
REMARK    6  A    between atoms: N_20  and  C_21
REMARK    7  A    between atoms: C_26  and  N_27
REMARK                            x       y       z     vdW  Elec       q    Type
REMARK                         _______ _______ _______ _____ _____    ______ ____
ROOT
ATOM      1  N   UNL     1      -0.132   4.057   2.326  0.00  0.00    -0.250 N 
ATOM      2  C   UNL     1      -0.765   3.523   1.295  0.00  0.00    +0.235 C 
ATOM      3  O   UNL     1      -1.315   4.202   0.455  0.00  0.00    -0.274 OA
ATOM      4  C   UNL     1      -0.761   2.005   1.230  0.00  0.00    +0.149 C 
ATOM      5  S   UNL     1       0.203   1.613   2.744  0.00  0.00    -0.077 S 
ATOM      6  C   UNL     1       0.494   3.290   3.285  0.00  0.00    +0.164 C 
ATOM      7  N   UNL     1       1.150   3.696   4.347  0.00  0.00    -0.226 NA
ENDROOT
BRANCH   7   8
ATOM      8  C   UNL     1       1.712   2.781   5.197  0.00  0.00    +0.067 A 
ATOM      9  C   UNL     1       0.985   1.659   5.599  0.00  0.00    +0.028 A 
ATOM     10  C   UNL     1       1.559   0.738   6.451  0.00  0.00    +0.002 A 
ATOM     11  C   UNL     1       2.848   0.930   6.915  0.00  0.00    +0.000 A 
ATOM     12  C   UNL     1       3.572   2.043   6.525  0.00  0.00    +0.002 A 
ATOM     13  C   UNL     1       3.012   2.969   5.669  0.00  0.00    +0.028 A 
ENDBRANCH   7   8
BRANCH   1  15
ATOM     14  C   UNL     1       1.137   6.061   1.730  0.00  0.00    +0.025 C 
ATOM     15  C   UNL     1      -0.096   5.516   2.454  0.00  0.00    +0.112 C 
ENDBRANCH   1  15
BRANCH   4  16
ATOM     16  C   UNL     1      -0.046   1.506  -0.027  0.00  0.00    +0.120 C 
BRANCH  16  17
ATOM     17  C   UNL     1      -0.009  -0.001  -0.019  0.00  0.00    +0.219 C 
ATOM     18  O   UNL     1      -0.505  -0.615   0.901  0.00  0.00    -0.275 OA
ATOM     19  N   UNL     1       0.576  -0.666  -1.035  0.00  0.00    -0.284 N 
ATOM     20  H   UNL     1       0.916  -0.178  -1.802  0.00  0.00    +0.155 HD
BRANCH  19  21
ATOM     21  C   UNL     1       0.693  -2.059  -0.984  0.00  0.00    +0.064 A 
ATOM     22  C   UNL     1      -0.310  -2.821  -0.398  0.00  0.00    +0.025 A 
ATOM     23  C   UNL     1      -0.194  -4.196  -0.353  0.00  0.00    +0.002 A 
ATOM     24  C   UNL     1       0.924  -4.815  -0.882  0.00  0.00    +0.002 A 
ATOM     25  C   UNL     1       1.926  -4.059  -1.463  0.00  0.00    +0.034 A 
ATOM     26  C   UNL     1       1.813  -2.684  -1.515  0.00  0.00    +0.147 A 
BRANCH  26  27
ATOM     27  N   UNL     1       2.887  -1.876  -2.136  0.00  0.00    +0.058 N 
ATOM     28  O   UNL     1       3.822  -2.427  -2.689  0.00  0.00    -0.126 OA
ATOM     29  O   UNL     1       2.836  -0.659  -2.093  0.00  0.00    -0.126 OA
ENDBRANCH  26  27
ENDBRANCH  19  21
ENDBRANCH  16  17
ENDBRANCH   4  16
TORSDOF 6
