REMARK  Name = ZINC07748014
REMARK  7 active torsions:
REMARK  status: ('A' for Active; 'I' for Inactive)
REMARK    1  A    between atoms: C_1  and  C_2
REMARK    2  A    between atoms: C_3  and  C_22
REMARK    3  A    between atoms: C_4  and  C_11
REMARK    4  A    between atoms: N_9  and  C_10
REMARK    5  A    between atoms: C_14  and  C_16
REMARK    6  A    between atoms: C_22  and  O_24
REMARK    7  A    between atoms: O_24  and  C_25
REMARK                            x       y       z     vdW  Elec       q    Type
REMARK                         _______ _______ _______ _____ _____    ______ ____
ROOT
ATOM      1  C   UNL     1       0.047   1.467   0.454  0.00  0.00    +0.061 C 
ATOM      2  C   UNL     1       0.034  -0.022   0.218  0.00  0.00    +0.024 C 
ATOM      3  C   UNL     1      -1.127  -0.702   0.334  0.00  0.00    +0.079 C 
ATOM      4  C   UNL     1      -1.095  -2.197   0.088  0.00  0.00    +0.150 C 
ATOM      5  N   UNL     1       0.208  -2.789  -0.260  0.00  0.00    -0.287 N 
ATOM      6  C   UNL     1       1.280  -1.977  -0.339  0.00  0.00    +0.307 C 
ATOM      7  O   UNL     1       2.360  -2.455  -0.626  0.00  0.00    -0.252 OA
ATOM      8  N   UNL     1       1.194  -0.659  -0.117  0.00  0.00    -0.262 N 
ATOM      9  C   UNL     1       2.415   0.143  -0.232  0.00  0.00    +0.139 C 
ATOM     10  H   UNL     1       0.292  -3.740  -0.429  0.00  0.00    +0.151 HD
ENDROOT
BRANCH   4  11
ATOM     11  C   UNL     1      -1.598  -2.883   1.332  0.00  0.00    +0.015 A 
ATOM     12  C   UNL     1      -2.828  -3.400   1.584  0.00  0.00    +0.014 A 
ATOM     13  C   UNL     1      -3.071  -3.990   2.805  0.00  0.00    +0.016 A 
ATOM     14  C   UNL     1      -2.060  -4.035   3.727  0.00  0.00    +0.020 A 
ATOM     15  S   UNL     1      -0.727  -3.234   2.851  0.00  0.00    -0.091 S 
BRANCH  14  16
ATOM     16  C   UNL     1      -2.068  -4.606   5.091  0.00  0.00    -0.011 A 
ATOM     17  C   UNL     1      -3.224  -5.207   5.593  0.00  0.00    +0.009 A 
ATOM     18  C   UNL     1      -3.224  -5.737   6.866  0.00  0.00    +0.001 A 
ATOM     19  C   UNL     1      -2.083  -5.674   7.646  0.00  0.00    +0.000 A 
ATOM     20  C   UNL     1      -0.934  -5.080   7.155  0.00  0.00    +0.001 A 
ATOM     21  C   UNL     1      -0.919  -4.550   5.881  0.00  0.00    +0.009 A 
ENDBRANCH  14  16
ENDBRANCH   4  11
BRANCH   3  22
ATOM     22  C   UNL     1      -2.330  -0.043   0.675  0.00  0.00    +0.339 C 
ATOM     23  O   UNL     1      -2.332   1.159   0.869  0.00  0.00    -0.245 OA
BRANCH  22  24
ATOM     24  O   UNL     1      -3.477  -0.745   0.786  0.00  0.00    -0.465 OA
ATOM     25  C   UNL     1      -4.655  -0.015   1.133  0.00  0.00    +0.280 C 
ENDBRANCH  22  24
ENDBRANCH   3  22
TORSDOF 4
