REMARK  Name = ZINC31807444
REMARK  9 active torsions:
REMARK  status: ('A' for Active; 'I' for Inactive)
REMARK    1  A    between atoms: C_1  and  O_2
REMARK    2  A    between atoms: O_2  and  C_3
REMARK    3  A    between atoms: C_3  and  C_5
REMARK    4  A    between atoms: C_5  and  C_6
REMARK    5  A    between atoms: C_6  and  C_8
REMARK    6  A    between atoms: C_6  and  N_12
REMARK    7  A    between atoms: C_8  and  O_10
REMARK    8  A    between atoms: O_10  and  C_11
REMARK    9  A    between atoms: C_24  and  C_26
REMARK                            x       y       z     vdW  Elec       q    Type
REMARK                         _______ _______ _______ _____ _____    ______ ____
ROOT
ATOM      1  N   UNL     1       2.846  -2.139  -5.112  0.00  0.00    -0.286 N 
ATOM      2  C   UNL     1       1.549  -1.948  -4.799  0.00  0.00    +0.304 C 
ATOM      3  O   UNL     1       1.141  -2.243  -3.692  0.00  0.00    -0.253 OA
ATOM      4  N   UNL     1       0.704  -1.430  -5.713  0.00  0.00    -0.273 N 
ATOM      5  C   UNL     1      -0.684  -1.103  -5.356  0.00  0.00    +0.116 C 
ATOM      6  C   UNL     1      -1.636  -1.997  -6.160  0.00  0.00    +0.076 C 
ATOM      7  C   UNL     1      -1.179  -2.025  -7.597  0.00  0.00    +0.066 A 
ATOM      8  C   UNL     1       0.055  -1.666  -8.012  0.00  0.00    +0.064 A 
ATOM      9  N   UNL     1       0.090  -1.829  -9.362  0.00  0.00    -0.346 N 
ATOM     10  H   UNL     1       0.845  -1.654  -9.945  0.00  0.00    +0.167 HD
ATOM     11  C   UNL     1      -1.129  -2.281  -9.737  0.00  0.00    +0.197 A 
ATOM     12  N   UNL     1      -1.881  -2.394  -8.673  0.00  0.00    -0.240 NA
ATOM     13  C   UNL     1       1.150  -1.172  -7.094  0.00  0.00    +0.156 C 
ATOM     14  H   UNL     1       3.156  -1.972  -6.016  0.00  0.00    +0.151 HD
ENDROOT
BRANCH  13  15
ATOM     15  C   UNL     1       1.366   0.306  -7.295  0.00  0.00    -0.021 A 
ATOM     16  C   UNL     1       0.300   1.181  -7.192  0.00  0.00    +0.007 A 
ATOM     17  C   UNL     1       0.498   2.536  -7.377  0.00  0.00    +0.020 A 
ATOM     18  C   UNL     1       1.762   3.018  -7.665  0.00  0.00    +0.041 A 
ATOM     19  C   UNL     1       2.829   2.142  -7.768  0.00  0.00    +0.020 A 
ATOM     20  C   UNL     1       2.631   0.787  -7.577  0.00  0.00    +0.007 A 
ATOM     21 CL   UNL     1       2.011   4.720  -7.897  0.00  0.00    -0.084 Cl
ENDBRANCH  13  15
BRANCH   1  22
ATOM     22  C   UNL     1       3.787  -2.599  -4.088  0.00  0.00    +0.194 C 
BRANCH  22  23
ATOM     23  C   UNL     1       4.299  -1.415  -3.308  0.00  0.00    +0.328 C 
ATOM     24  O   UNL     1       3.917  -0.302  -3.580  0.00  0.00    -0.249 OA
BRANCH  23  25
ATOM     25  O   UNL     1       5.179  -1.598  -2.311  0.00  0.00    -0.467 OA
ATOM     26  C   UNL     1       5.622  -0.432  -1.615  0.00  0.00    +0.280 C 
ENDBRANCH  23  25
ENDBRANCH  22  23
BRANCH  22  27
ATOM     27  C   UNL     1       4.961  -3.314  -4.759  0.00  0.00    +0.154 C 
BRANCH  27  28
ATOM     28  C   UNL     1       4.466  -4.566  -5.436  0.00  0.00    +0.309 C 
ATOM     29  O   UNL     1       3.294  -4.856  -5.388  0.00  0.00    -0.251 OA
BRANCH  28  31
ATOM     30  C   UNL     1       4.789  -6.529  -6.712  0.00  0.00    +0.280 C 
ATOM     31  O   UNL     1       5.327  -5.359  -6.094  0.00  0.00    -0.468 OA
ENDBRANCH  28  31
ENDBRANCH  27  28
ENDBRANCH  22  27
ENDBRANCH   1  22
TORSDOF 7
