REMARK  Name = ZINC01291856
REMARK  11 active torsions:
REMARK  status: ('A' for Active; 'I' for Inactive)
REMARK    1  A    between atoms: C_1  and  C_2
REMARK    2  A    between atoms: C_2  and  O_3
REMARK    3  A    between atoms: O_3  and  C_4
REMARK    4  A    between atoms: C_7  and  C_13
REMARK    5  A    between atoms: C_9  and  O_10
REMARK    6  A    between atoms: O_10  and  C_11
REMARK    7  A    between atoms: C_11  and  C_12
REMARK    8  A    between atoms: C_15  and  C_24
REMARK    9  A    between atoms: C_16  and  C_23
REMARK   10  A    between atoms: C_24  and  O_26
REMARK   11  A    between atoms: O_26  and  C_27
REMARK                            x       y       z     vdW  Elec       q    Type
REMARK                         _______ _______ _______ _____ _____    ______ ____
ROOT
ATOM      1  C   UNL     1      -1.520   3.483   2.655  0.00  0.00    +0.181 C 
ATOM      2  C   UNL     1      -0.839   2.893   1.448  0.00  0.00    +0.082 C 
ATOM      3  C   UNL     1      -0.718   1.572   1.248  0.00  0.00    +0.020 C 
ATOM      4  N   UNL     1      -1.210   0.647   2.136  0.00  0.00    -0.286 N 
ATOM      5  C   UNL     1      -2.070   1.106   3.123  0.00  0.00    +0.240 A 
ATOM      6  N   UNL     1      -2.229   2.432   3.374  0.00  0.00    -0.201 N 
ATOM      7  N   UNL     1      -3.160   2.507   4.409  0.00  0.00    -0.042 NA
ATOM      8  N   UNL     1      -3.481   1.289   4.703  0.00  0.00    -0.021 NA
ATOM      9  N   UNL     1      -2.841   0.461   3.950  0.00  0.00    -0.092 NA
ATOM     10  C   UNL     1      -0.013   1.086   0.008  0.00  0.00    +0.061 C 
ATOM     11  H   UNL     1      -0.966  -0.289   2.075  0.00  0.00    +0.155 HD
ENDROOT
BRANCH   1  15
ATOM     12  C   UNL     1       1.425   5.226   5.221  0.00  0.00    +0.162 A 
ATOM     13  C   UNL     1       1.480   3.875   4.916  0.00  0.00    +0.050 A 
ATOM     14  C   UNL     1       0.523   3.314   4.091  0.00  0.00    +0.010 A 
ATOM     15  C   UNL     1      -0.483   4.099   3.559  0.00  0.00    -0.015 A 
ATOM     16  C   UNL     1      -0.543   5.447   3.860  0.00  0.00    +0.055 A 
ATOM     17  C   UNL     1       0.409   6.015   4.691  0.00  0.00    +0.162 A 
BRANCH  12  18
ATOM     18  O   UNL     1       2.362   5.778   6.037  0.00  0.00    -0.489 OA
BRANCH  18  20
ATOM     19  C   UNL     1       4.330   5.702   7.437  0.00  0.00    +0.048 C 
ATOM     20  C   UNL     1       3.375   4.907   6.545  0.00  0.00    +0.226 C 
ENDBRANCH  18  20
ENDBRANCH  12  18
BRANCH  17  21
ATOM     21  O   UNL     1       0.351   7.341   4.987  0.00  0.00    -0.489 OA
BRANCH  21  22
ATOM     22  C   UNL     1      -0.719   8.089   4.407  0.00  0.00    +0.226 C 
ATOM     23  C   UNL     1      -0.620   9.550   4.852  0.00  0.00    +0.048 C 
ENDBRANCH  21  22
ENDBRANCH  17  21
ENDBRANCH   1  15
BRANCH   2  24
ATOM     24  C   UNL     1      -0.307   3.772   0.479  0.00  0.00    +0.339 C 
ATOM     25  O   UNL     1       0.245   3.326  -0.510  0.00  0.00    -0.245 OA
BRANCH  24  26
ATOM     26  O   UNL     1      -0.411   5.107   0.649  0.00  0.00    -0.458 OA
BRANCH  26  27
ATOM     27  C   UNL     1       0.149   5.937  -0.371  0.00  0.00    +0.177 C 
ATOM     28  C   UNL     1       1.610   6.242  -0.035  0.00  0.00    +0.044 C 
ATOM     29  C   UNL     1       2.209   7.130  -1.127  0.00  0.00    +0.004 C 
ATOM     30  C   UNL     1       1.421   8.439  -1.210  0.00  0.00    +0.000 C 
ATOM     31  C   UNL     1      -0.040   8.134  -1.546  0.00  0.00    +0.004 C 
ATOM     32  C   UNL     1      -0.640   7.246  -0.454  0.00  0.00    +0.044 C 
ENDBRANCH  26  27
ENDBRANCH  24  26
ENDBRANCH   2  24
TORSDOF 8
