REMARK  Name = ZINC31893362
REMARK  5 active torsions:
REMARK  status: ('A' for Active; 'I' for Inactive)
REMARK    1  A    between atoms: C_3  and  N_23
REMARK    2  A    between atoms: C_5  and  O_7
REMARK    3  A    between atoms: O_7  and  C_8
REMARK    4  A    between atoms: C_8  and  C_9
REMARK    5  A    between atoms: C_15  and  C_17
REMARK                            x       y       z     vdW  Elec       q    Type
REMARK                         _______ _______ _______ _____ _____    ______ ____
ROOT
ATOM      1  C   UNL     1       0.978   7.358   0.031  0.00  0.00    +0.256 C 
ATOM      2  O   UNL     1      -0.149   7.806   0.044  0.00  0.00    -0.272 OA
ATOM      3  N   UNL     1       2.036   8.193   0.025  0.00  0.00    -0.260 N 
ATOM      4  C   UNL     1       1.835   9.570   0.034  0.00  0.00    +0.188 A 
ATOM      5  N   UNL     1       0.705  10.256   0.049  0.00  0.00    -0.126 NA
ATOM      6  N   UNL     1       0.692  11.518   0.055  0.00  0.00    -0.144 NA
ATOM      7  C   UNL     1       1.818  12.202   0.047  0.00  0.00    +0.107 A 
ATOM      8  S   UNL     1       3.001  10.860   0.036  0.00  0.00    -0.035 S 
ATOM      9  H   UNL     1       3.058   7.787   0.013  0.00  0.00    +0.157 HD
ENDROOT
BRANCH   7  10
ATOM     10  C   UNL     1       2.046  13.692   0.052  0.00  0.00    +0.047 C 
ATOM     11  C   UNL     1       1.422  14.299   1.310  0.00  0.00    +0.010 C 
ATOM     12  C   UNL     1       1.653  15.811   1.315  0.00  0.00    +0.001 C 
ATOM     13  C   UNL     1       1.004  16.430   0.075  0.00  0.00    +0.000 C 
ATOM     14  C   UNL     1       1.628  15.823  -1.183  0.00  0.00    +0.001 C 
ATOM     15  C   UNL     1       1.397  14.311  -1.188  0.00  0.00    +0.010 C 
ENDBRANCH   7  10
BRANCH   1  16
ATOM     16  C   UNL     1       1.196   5.867   0.021  0.00  0.00    +0.324 C 
BRANCH  16  17
ATOM     17  O   UNL     1      -0.069   5.201   0.030  0.00  0.00    -0.483 OA
BRANCH  17  22
ATOM     18  C   UNL     1       1.176   1.782   0.000  0.00  0.00    +0.006 A 
ATOM     19  C   UNL     1      -0.013   1.076   0.008  0.00  0.00    +0.033 A 
ATOM     20  C   UNL     1      -1.220   1.750   0.017  0.00  0.00    +0.130 A 
ATOM     21  C   UNL     1      -1.241   3.131   0.031  0.00  0.00    +0.078 A 
ATOM     22  C   UNL     1      -0.050   3.842   0.023  0.00  0.00    +0.123 A 
ATOM     23  C   UNL     1       1.160   3.163   0.008  0.00  0.00    +0.046 A 
BRANCH  20  24
ATOM     24  N   UNL     1      -2.490   0.990   0.019  0.00  0.00    +0.057 N 
ATOM     25  O   UNL     1      -2.472  -0.228   0.012  0.00  0.00    -0.126 OA
ATOM     26  O   UNL     1      -3.554   1.583   0.027  0.00  0.00    -0.126 OA
ENDBRANCH  20  24
ENDBRANCH  17  22
ENDBRANCH  16  17
ENDBRANCH   1  16
TORSDOF 5
