REMARK  Name = ZINC15208929
REMARK  6 active torsions:
REMARK  status: ('A' for Active; 'I' for Inactive)
REMARK    1  A    between atoms: C_3  and  N_14
REMARK    2  A    between atoms: C_4  and  N_11
REMARK    3  A    between atoms: C_6  and  S_7
REMARK    4  A    between atoms: S_7  and  N_10
REMARK    5  A    between atoms: N_14  and  C_15
REMARK    6  A    between atoms: C_15  and  C_16
REMARK                            x       y       z     vdW  Elec       q    Type
REMARK                         _______ _______ _______ _____ _____    ______ ____
ROOT
ATOM      1  C   UNL     1       1.073   1.631  -0.032  0.00  0.00    +0.030 A 
ATOM      2  C   UNL     1      -0.196   1.086   0.004  0.00  0.00    +0.027 A 
ATOM      3  C   UNL     1      -1.307   1.918   0.046  0.00  0.00    +0.058 A 
ATOM      4  C   UNL     1      -1.137   3.297   0.061  0.00  0.00    +0.149 A 
ATOM      5  C   UNL     1       0.134   3.835   0.026  0.00  0.00    +0.063 A 
ATOM      6  C   UNL     1       1.238   3.003  -0.021  0.00  0.00    +0.107 A 
ENDROOT
BRANCH   6   7
ATOM      7  S   UNL     1       2.858   3.695  -0.066  0.00  0.00    +0.056 S 
ATOM      8  O   UNL     1       2.762   4.993   0.503  0.00  0.00    -0.153 OA
ATOM      9  O   UNL     1       3.737   2.702   0.444  0.00  0.00    -0.153 OA
BRANCH   7  10
ATOM     10  N   UNL     1       3.256   3.905  -1.660  0.00  0.00    -0.204 NA
ATOM     11  H   UNL     1       2.626   3.655  -2.354  0.00  0.00    +0.144 HD
ATOM     12  H   UNL     1       4.119   4.279  -1.899  0.00  0.00    +0.144 HD
ENDBRANCH   7  10
ENDBRANCH   6   7
BRANCH   4  13
ATOM     13  N   UNL     1      -2.318   4.188   0.111  0.00  0.00    +0.058 N 
ATOM     14  O   UNL     1      -2.169   5.391   0.232  0.00  0.00    -0.126 OA
ATOM     15  O   UNL     1      -3.439   3.718   0.031  0.00  0.00    -0.126 OA
ENDBRANCH   4  13
BRANCH   3  16
ATOM     16  N   UNL     1      -2.591   1.370   0.076  0.00  0.00    -0.338 N 
ATOM     17  H   UNL     1      -3.367   1.950   0.020  0.00  0.00    +0.146 HD
BRANCH  16  18
ATOM     18  C   UNL     1      -2.767  -0.079   0.195  0.00  0.00    +0.138 C 
BRANCH  18  19
ATOM     19  C   UNL     1      -4.237  -0.408   0.205  0.00  0.00    -0.012 A 
ATOM     20  C   UNL     1      -4.831  -0.956  -0.917  0.00  0.00    +0.008 A 
ATOM     21  C   UNL     1      -6.179  -1.258  -0.908  0.00  0.00    +0.020 A 
ATOM     22  C   UNL     1      -6.936  -1.013   0.224  0.00  0.00    +0.042 A 
ATOM     23  C   UNL     1      -6.343  -0.465   1.347  0.00  0.00    +0.040 A 
ATOM     24  C   UNL     1      -4.992  -0.168   1.339  0.00  0.00    +0.047 A 
ATOM     25 CL   UNL     1      -4.245   0.514   2.750  0.00  0.00    -0.083 Cl
ATOM     26 CL   UNL     1      -8.630  -1.392   0.235  0.00  0.00    -0.083 Cl
ENDBRANCH  18  19
ENDBRANCH  16  18
ENDBRANCH   3  16
TORSDOF 6
