REMARK  Name = ZINC14475940
REMARK  7 active torsions:
REMARK  status: ('A' for Active; 'I' for Inactive)
REMARK    1  A    between atoms: C_4  and  C_7
REMARK    2  A    between atoms: C_7  and  C_8
REMARK    3  A    between atoms: C_8  and  N_9
REMARK    4  A    between atoms: C_10  and  C_12
REMARK    5  A    between atoms: C_19  and  C_28
REMARK    6  A    between atoms: C_30  and  N_35
REMARK    7  A    between atoms: C_33  and  O_34
REMARK                            x       y       z     vdW  Elec       q    Type
REMARK                         _______ _______ _______ _____ _____    ______ ____
ROOT
ATOM      1  C   UNL     1       8.474  -3.110  -2.722  0.00  0.00    +0.058 A 
ATOM      2  C   UNL     1       9.475  -3.553  -1.857  0.00  0.00    +0.015 A 
ATOM      3  C   UNL     1      10.529  -4.287  -2.354  0.00  0.00    +0.001 A 
ATOM      4  C   UNL     1      10.596  -4.584  -3.703  0.00  0.00    +0.006 A 
ATOM      5  C   UNL     1       9.610  -4.154  -4.579  0.00  0.00    -0.019 A 
ATOM      6  C   UNL     1       8.542  -3.419  -4.094  0.00  0.00    +0.044 A 
ATOM      7  N   UNL     1       7.525  -2.958  -4.916  0.00  0.00    -0.336 N 
ATOM      8  C   UNL     1       7.354  -3.789  -6.108  0.00  0.00    +0.108 C 
ATOM      9  C   UNL     1       8.669  -3.833  -6.890  0.00  0.00    +0.029 C 
ATOM     10  C   UNL     1       9.747  -4.521  -6.028  0.00  0.00    +0.049 C 
ATOM     11  C   UNL     1       9.471  -6.006  -6.223  0.00  0.00    -0.023 C 
ATOM     12  C   UNL     1       8.789  -6.203  -7.324  0.00  0.00    -0.030 C 
ATOM     13  C   UNL     1       8.514  -4.887  -8.023  0.00  0.00    +0.033 C 
ATOM     14  H   UNL     1       6.880  -2.080  -4.760  0.00  0.00    +0.147 HD
ENDROOT
BRANCH   8  15
ATOM     15  C   UNL     1       6.968  -5.186  -5.695  0.00  0.00    +0.017 A 
ATOM     16  C   UNL     1       7.452  -5.717  -4.515  0.00  0.00    +0.041 A 
ATOM     17  C   UNL     1       7.093  -6.996  -4.133  0.00  0.00    +0.127 A 
ATOM     18  C   UNL     1       6.258  -7.752  -4.936  0.00  0.00    +0.036 A 
ATOM     19  C   UNL     1       5.777  -7.227  -6.120  0.00  0.00    +0.048 A 
ATOM     20  C   UNL     1       6.131  -5.941  -6.503  0.00  0.00    +0.122 A 
BRANCH  17  21
ATOM     21  N   UNL     1       7.607  -7.560  -2.865  0.00  0.00    +0.056 N 
ATOM     22  O   UNL     1       7.295  -8.689  -2.530  0.00  0.00    -0.126 OA
ATOM     23  O   UNL     1       8.342  -6.896  -2.157  0.00  0.00    -0.126 OA
ENDBRANCH  17  21
BRANCH  20  24
ATOM     24  O   UNL     1       5.658  -5.423  -7.666  0.00  0.00    -0.506 OA
ATOM     25  H   UNL     1       4.994  -6.023  -8.306  0.00  0.00    +0.292 HD
ENDBRANCH  20  24
ENDBRANCH   8  15
BRANCH   1  27
ATOM     26  N   UNL     1       7.199  -2.150  -0.869  0.00  0.00    -0.311 N 
ATOM     27  C   UNL     1       7.342  -2.324  -2.198  0.00  0.00    +0.246 C 
ATOM     28  O   UNL     1       6.537  -1.832  -2.966  0.00  0.00    -0.270 OA
ATOM     29  H   UNL     1       7.928  -2.595  -0.175  0.00  0.00    +0.149 HD
BRANCH  26  30
ATOM     30  C   UNL     1       6.074  -1.369  -0.349  0.00  0.00    +0.109 C 
BRANCH  30  31
ATOM     31  C   UNL     1       6.146  -1.327   1.179  0.00  0.00    +0.054 C 
BRANCH  31  35
ATOM     32  C   UNL     1       2.866   0.951   2.695  0.00  0.00    +0.000 A 
ATOM     33  C   UNL     1       4.060   1.577   2.391  0.00  0.00    +0.000 A 
ATOM     34  C   UNL     1       5.122   0.840   1.900  0.00  0.00    +0.004 A 
ATOM     35  C   UNL     1       4.989  -0.523   1.714  0.00  0.00    -0.046 A 
ATOM     36  C   UNL     1       3.795  -1.149   2.018  0.00  0.00    +0.004 A 
ATOM     37  C   UNL     1       2.733  -0.412   2.508  0.00  0.00    +0.000 A 
ENDBRANCH  31  35
ENDBRANCH  30  31
ENDBRANCH  26  30
ENDBRANCH   1  27
TORSDOF 7
