REMARK  Name = ZINC12579563
REMARK  9 active torsions:
REMARK  status: ('A' for Active; 'I' for Inactive)
REMARK    1  A    between atoms: C_1  and  C_2
REMARK    2  A    between atoms: C_2  and  N_3
REMARK    3  A    between atoms: N_3  and  C_4
REMARK    4  A    between atoms: N_3  and  C_6
REMARK    5  A    between atoms: C_4  and  C_5
REMARK    6  A    between atoms: C_9  and  C_12
REMARK    7  A    between atoms: N_37  and  C_40
REMARK    8  A    between atoms: C_40  and  C_42
REMARK    9  A    between atoms: C_40  and  C_43
REMARK                            x       y       z     vdW  Elec       q    Type
REMARK                         _______ _______ _______ _____ _____    ______ ____
ROOT
ATOM      1  C   UNL     1      -1.946   8.649   2.893  0.00  0.00    +0.063 C 
ATOM      2  C   UNL     1      -1.034   9.245   3.938  0.00  0.00    +0.032 A 
ATOM      3  C   UNL     1       0.232   8.925   4.298  0.00  0.00    +0.087 A 
ATOM      4  N   UNL     1       0.771   9.639   5.336  0.00  0.00    -0.311 N 
ATOM      5  H   UNL     1       1.659   9.423   5.662  0.00  0.00    +0.170 HD
ATOM      6  C   UNL     1       0.070  10.642   5.904  0.00  0.00    +0.289 A 
ATOM      7  O   UNL     1       0.401  11.388   6.808  0.00  0.00    -0.260 OA
ATOM      8  S   UNL     1      -1.423  10.600   5.020  0.00  0.00    -0.030 S 
ATOM      9  S   UNL     1       1.125   7.641   3.411  0.00  0.00    -0.103 S 
ATOM     10  C   UNL     1       0.018   7.468   2.023  0.00  0.00    +0.061 C 
ATOM     11  C   UNL     1      -1.418   7.261   2.587  0.00  0.00    +0.019 C 
ATOM     12  C   UNL     1      -2.089   6.452   1.426  0.00  0.00    +0.007 C 
ATOM     13  C   UNL     1      -1.205   6.933   0.181  0.00  0.00    +0.010 C 
ATOM     14  C   UNL     1       0.218   6.567   0.858  0.00  0.00    +0.015 C 
ATOM     15  C   UNL     1      -0.134   5.139   0.931  0.00  0.00    +0.092 C 
ATOM     16  C   UNL     1      -1.440   5.114   1.831  0.00  0.00    +0.091 C 
ATOM     17  C   UNL     1      -1.907   3.797   1.284  0.00  0.00    +0.227 C 
ATOM     18  O   UNL     1      -3.022   3.472   0.939  0.00  0.00    -0.275 OA
ATOM     19  N   UNL     1      -0.749   3.044   1.275  0.00  0.00    -0.228 N 
ATOM     20  C   UNL     1       0.390   3.829   1.268  0.00  0.00    +0.227 C 
ATOM     21  O   UNL     1       1.536   3.504   1.488  0.00  0.00    -0.275 OA
ENDROOT
BRANCH   1  25
ATOM     22  C   UNL     1      -5.934   8.391   4.408  0.00  0.00    +0.030 A 
ATOM     23  C   UNL     1      -5.676   9.104   3.244  0.00  0.00    +0.023 A 
ATOM     24  C   UNL     1      -4.387   9.185   2.757  0.00  0.00    +0.006 A 
ATOM     25  C   UNL     1      -3.352   8.558   3.427  0.00  0.00    -0.039 A 
ATOM     26  C   UNL     1      -3.607   7.843   4.583  0.00  0.00    +0.006 A 
ATOM     27  C   UNL     1      -4.893   7.762   5.079  0.00  0.00    +0.023 A 
BRANCH  22  28
ATOM     28  N   UNL     1      -7.238   8.306   4.902  0.00  0.00    -0.330 N 
BRANCH  28  30
ATOM     29  C   UNL     1      -7.384   8.487   7.337  0.00  0.00    +0.024 C 
ATOM     30  C   UNL     1      -7.508   7.555   6.130  0.00  0.00    +0.102 C 
ENDBRANCH  28  30
BRANCH  28  31
ATOM     31  C   UNL     1      -8.335   8.970   4.193  0.00  0.00    +0.102 C 
ATOM     32  C   UNL     1      -8.935   8.007   3.167  0.00  0.00    +0.024 C 
ENDBRANCH  28  31
ENDBRANCH  22  28
ENDBRANCH   1  25
BRANCH  19  33
ATOM     33  C   UNL     1      -0.729   1.579   1.267  0.00  0.00    +0.194 C 
ATOM     34  C   UNL     1      -0.013   1.086   0.008  0.00  0.00    +0.040 C 
BRANCH  33  35
ATOM     35  C   UNL     1       0.000   1.080   2.488  0.00  0.00    +0.376 C 
ATOM     36  O   UNL     1       0.456   1.867   3.283  0.00  0.00    -0.244 OA
ATOM     37  O   UNL     1       0.143  -0.239   2.692  0.00  0.00    -0.244 OA
ENDBRANCH  33  35
ENDBRANCH  19  33
TORSDOF 6
