REMARK  Name = ZINC14879686
REMARK  5 active torsions:
REMARK  status: ('A' for Active; 'I' for Inactive)
REMARK    1  A    between atoms: C_1  and  C_2
REMARK    2  A    between atoms: C_2  and  C_18
REMARK    3  A    between atoms: N_5  and  C_9
REMARK    4  A    between atoms: C_23  and  C_24
REMARK    5  A    between atoms: C_23  and  N_59
REMARK                            x       y       z     vdW  Elec       q    Type
REMARK                         _______ _______ _______ _____ _____    ______ ____
ROOT
ATOM      1  C   UNL     1       1.799  -1.187  -1.280  0.00  0.00    +0.042 C 
ATOM      2  C   UNL     1       1.467  -0.394  -0.014  0.00  0.00    +0.112 C 
ATOM      3  C   UNL     1       0.002  -0.004   0.002  0.00  0.00    +0.247 C 
ATOM      4  O   UNL     1      -0.954  -0.749   0.006  0.00  0.00    -0.273 OA
ATOM      5  N   UNL     1      -0.016   1.343   0.009  0.00  0.00    -0.221 N 
ATOM      6  C   UNL     1       1.220   1.854   0.000  0.00  0.00    +0.310 C 
ATOM      7  O   UNL     1       1.460   3.045   0.004  0.00  0.00    -0.252 OA
ATOM      8  N   UNL     1       2.170   0.901  -0.014  0.00  0.00    -0.285 N 
ATOM      9  H   UNL     1       3.130   1.039  -0.022  0.00  0.00    +0.151 HD
ENDROOT
BRANCH   5  10
ATOM     10  C   UNL     1      -1.239   2.150   0.020  0.00  0.00    +0.094 C 
ATOM     11  C   UNL     1      -1.258   3.134  -1.169  0.00  0.00    +0.058 C 
ATOM     12  C   UNL     1      -1.931   4.384  -0.635  0.00  0.00    -0.042 A 
ATOM     13  C   UNL     1      -2.497   5.454  -1.308  0.00  0.00    +0.004 A 
ATOM     14  C   UNL     1      -3.064   6.496  -0.602  0.00  0.00    +0.000 A 
ATOM     15  C   UNL     1      -3.068   6.473   0.780  0.00  0.00    +0.000 A 
ATOM     16  C   UNL     1      -2.504   5.407   1.453  0.00  0.00    +0.004 A 
ATOM     17  C   UNL     1      -1.935   4.360   0.747  0.00  0.00    -0.042 A 
ATOM     18  C   UNL     1      -1.262   3.096   1.239  0.00  0.00    +0.058 C 
ENDBRANCH   5  10
BRANCH   2  19
ATOM     19  C   UNL     1       1.822  -1.203   1.235  0.00  0.00    +0.018 C 
ATOM     20  C   UNL     1       1.554  -0.360   2.484  0.00  0.00    -0.013 C 
ATOM     21  C   UNL     1       1.969  -1.152   3.727  0.00  0.00    -0.078 C 
ATOM     22  C   UNL     1       3.668  -2.340   2.473  0.00  0.00    -0.078 C 
ATOM     23  C   UNL     1       3.305  -1.584   1.193  0.00  0.00    -0.013 C 
ATOM     24  N   UNL     1       3.410  -1.466   3.637  0.00  0.00    +0.382 N 
ATOM     25  H   UNL     1       3.935  -0.591   3.519  0.00  0.00    -0.081 HD
BRANCH  24  26
ATOM     26  C   UNL     1       3.860  -2.131   4.877  0.00  0.00    -0.040 C 
BRANCH  26  27
ATOM     27  C   UNL     1       3.350  -1.357   6.065  0.00  0.00    -0.026 A 
ATOM     28  C   UNL     1       4.183  -0.471   6.723  0.00  0.00    +0.005 A 
ATOM     29  C   UNL     1       3.715   0.243   7.810  0.00  0.00    +0.003 A 
ATOM     30  C   UNL     1       2.416   0.064   8.249  0.00  0.00    +0.041 A 
ATOM     31  C   UNL     1       1.581  -0.826   7.596  0.00  0.00    +0.159 A 
ATOM     32  C   UNL     1       2.049  -1.538   6.502  0.00  0.00    +0.160 A 
ATOM     33  F   UNL     1       1.236  -2.408   5.863  0.00  0.00    -0.202 F 
ATOM     34  F   UNL     1       0.312  -1.000   8.024  0.00  0.00    -0.202 F 
ENDBRANCH  26  27
ENDBRANCH  24  26
ENDBRANCH   2  19
TORSDOF 4
