REMARK  Name = ZINC00660274
REMARK  5 active torsions:
REMARK  status: ('A' for Active; 'I' for Inactive)
REMARK    1  A    between atoms: C_1  and  C_2
REMARK    2  A    between atoms: C_7  and  N_8
REMARK    3  A    between atoms: C_9  and  C_11
REMARK    4  A    between atoms: C_12  and  N_25
REMARK    5  A    between atoms: C_16  and  C_20
REMARK                            x       y       z     vdW  Elec       q    Type
REMARK                         _______ _______ _______ _____ _____    ______ ____
ROOT
ATOM      1  C   UNL     1       1.018  10.036   0.060  0.00  0.00    +0.097 A 
ATOM      2  C   UNL     1       2.090   9.168   0.049  0.00  0.00    +0.053 A 
ATOM      3  C   UNL     1       1.822   7.740   0.056  0.00  0.00    +0.029 A 
ATOM      4  C   UNL     1       2.751   6.666   0.047  0.00  0.00    +0.014 A 
ATOM      5  C   UNL     1       2.290   5.386   0.057  0.00  0.00    +0.029 A 
ATOM      6  C   UNL     1       0.912   5.129   0.074  0.00  0.00    +0.079 A 
ATOM      7  N   UNL     1       0.045   6.136   0.076  0.00  0.00    -0.239 NA
ATOM      8  C   UNL     1       0.453   7.386   0.073  0.00  0.00    +0.111 A 
ATOM      9  S   UNL     1      -0.393   8.948   0.080  0.00  0.00    -0.062 S 
ENDROOT
BRANCH   6  10
ATOM     10  C   UNL     1       0.424   3.737   0.083  0.00  0.00    +0.038 A 
ATOM     11  C   UNL     1      -0.867   3.275   0.099  0.00  0.00    +0.017 A 
ATOM     12  C   UNL     1      -1.082   1.916   0.099  0.00  0.00    +0.008 A 
ATOM     13  C   UNL     1      -0.014   1.076   0.095  0.00  0.00    +0.046 A 
ATOM     14  S   UNL     1       1.359   2.216   0.076  0.00  0.00    -0.095 S 
ENDBRANCH   6  10
BRANCH   1  16
ATOM     15  N   UNL     1      -0.124  12.139   0.069  0.00  0.00    -0.281 N 
ATOM     16  C   UNL     1       1.035  11.451   0.057  0.00  0.00    +0.257 C 
ATOM     17  O   UNL     1       2.097  12.048   0.042  0.00  0.00    -0.269 OA
ATOM     18  H   UNL     1      -0.969  11.667  -0.001  0.00  0.00    +0.155 HD
BRANCH  15  25
ATOM     19  C   UNL     1      -2.339  13.594  -0.965  0.00  0.00    +0.046 C 
ATOM     20  C   UNL     1      -1.170  14.282  -0.309  0.00  0.00    -0.028 A 
ATOM     21  C   UNL     1      -1.154  15.659  -0.192  0.00  0.00    +0.020 A 
ATOM     22  C   UNL     1      -0.079  16.291   0.404  0.00  0.00    +0.018 A 
ATOM     23  C   UNL     1       0.982  15.547   0.891  0.00  0.00    +0.017 A 
ATOM     24  C   UNL     1       0.970  14.171   0.781  0.00  0.00    +0.024 A 
ATOM     25  C   UNL     1      -0.109  13.533   0.182  0.00  0.00    +0.037 A 
ATOM     26 BR   UNL     1      -0.058  18.176   0.556  0.00  0.00    -0.050 Br
ENDBRANCH  15  25
ENDBRANCH   1  16
BRANCH   2  27
ATOM     27  N   UNL     1       3.393   9.647   0.033  0.00  0.00    -0.356 N 
ATOM     28  H   UNL     1       4.138   9.026   0.025  0.00  0.00    +0.142 HD
ATOM     29  H   UNL     1       3.558  10.603   0.028  0.00  0.00    +0.142 HD
ENDBRANCH   2  27
TORSDOF 4
