REMARK  Name = ZINC01288714
REMARK  11 active torsions:
REMARK  status: ('A' for Active; 'I' for Inactive)
REMARK    1  A    between atoms: C_1  and  C_2
REMARK    2  A    between atoms: C_2  and  O_3
REMARK    3  A    between atoms: O_3  and  C_4
REMARK    4  A    between atoms: C_4  and  C_6
REMARK    5  A    between atoms: C_6  and  C_7
REMARK    6  A    between atoms: C_8  and  C_26
REMARK    7  A    between atoms: C_20  and  C_24
REMARK    8  A    between atoms: C_21  and  N_23
REMARK    9  A    between atoms: C_26  and  O_28
REMARK   10  A    between atoms: O_28  and  C_29
REMARK   11  A    between atoms: C_29  and  C_30
REMARK                            x       y       z     vdW  Elec       q    Type
REMARK                         _______ _______ _______ _____ _____    ______ ____
ROOT
ATOM      1  C   UNL     1      -0.176   4.141   0.406  0.00  0.00    +0.130 C 
ATOM      2  C   UNL     1       1.048   3.702   0.078  0.00  0.00    +0.100 C 
ATOM      3  C   UNL     1       1.264   2.280  -0.351  0.00  0.00    +0.148 C 
ATOM      4  C   UNL     1       1.508   2.208  -1.837  0.00  0.00    -0.000 A 
ATOM      5  C   UNL     1       0.748   2.554  -2.932  0.00  0.00    +0.022 A 
ATOM      6  C   UNL     1       1.251   2.367  -4.209  0.00  0.00    +0.018 A 
ATOM      7  C   UNL     1       2.516   1.832  -4.379  0.00  0.00    +0.017 A 
ATOM      8  C   UNL     1       3.278   1.484  -3.283  0.00  0.00    +0.025 A 
ATOM      9  C   UNL     1       2.779   1.669  -1.995  0.00  0.00    +0.038 A 
ATOM     10  N   UNL     1       3.348   1.401  -0.749  0.00  0.00    -0.284 N 
ATOM     11  C   UNL     1       2.528   1.729   0.265  0.00  0.00    +0.238 C 
ATOM     12  O   UNL     1       2.760   1.607   1.450  0.00  0.00    -0.274 OA
ATOM     13 BR   UNL     1       0.212   2.842  -5.716  0.00  0.00    -0.050 Br
ATOM     14  C   UNL     1       0.084   1.432   0.029  0.00  0.00    +0.110 C 
ATOM     15  C   UNL     1      -1.098   2.010   0.360  0.00  0.00    +0.199 C 
ATOM     16  O   UNL     1      -1.254   3.345   0.368  0.00  0.00    -0.444 OA
ATOM     17  H   UNL     1       4.233   1.022  -0.628  0.00  0.00    +0.155 HD
ENDROOT
BRANCH  15  18
ATOM     18  N   UNL     1      -2.161   1.210   0.701  0.00  0.00    -0.328 N 
ATOM     19  H   UNL     1      -2.061   0.245   0.704  0.00  0.00    +0.145 HD
ATOM     20  H   UNL     1      -3.012   1.610   0.939  0.00  0.00    +0.145 HD
ENDBRANCH  15  18
BRANCH  14  21
ATOM     21  C   UNL     1       0.206   0.005   0.037  0.00  0.00    +0.102 C 
ATOM     22  N   UNL     1       0.302  -1.127   0.043  0.00  0.00    -0.191 NA
ENDBRANCH  14  21
BRANCH   2  23
ATOM     23  C   UNL     1       2.149   4.591   0.136  0.00  0.00    +0.340 C 
ATOM     24  O   UNL     1       1.967   5.771   0.371  0.00  0.00    -0.245 OA
BRANCH  23  25
ATOM     25  O   UNL     1       3.400   4.129  -0.069  0.00  0.00    -0.462 OA
BRANCH  25  26
ATOM     26  C   UNL     1       4.463   5.081   0.005  0.00  0.00    +0.229 C 
ATOM     27  C   UNL     1       5.797   4.377  -0.252  0.00  0.00    +0.048 C 
ENDBRANCH  25  26
ENDBRANCH  23  25
ENDBRANCH   2  23
BRANCH   1  28
ATOM     28  C   UNL     1      -0.345   5.576   0.834  0.00  0.00    +0.195 C 
BRANCH  28  29
ATOM     29  C   UNL     1      -0.455   6.454  -0.386  0.00  0.00    +0.314 C 
ATOM     30  O   UNL     1      -0.402   5.964  -1.490  0.00  0.00    -0.250 OA
BRANCH  29  31
ATOM     31  O   UNL     1      -0.613   7.780  -0.247  0.00  0.00    -0.465 OA
BRANCH  31  33
ATOM     32  C   UNL     1      -0.886  10.040  -1.110  0.00  0.00    +0.048 C 
ATOM     33  C   UNL     1      -0.712   8.563  -1.466  0.00  0.00    +0.229 C 
ENDBRANCH  31  33
ENDBRANCH  29  31
ENDBRANCH  28  29
ENDBRANCH   1  28
TORSDOF 9
