REMARK  Name = ZINC15709066
REMARK  7 active torsions:
REMARK  status: ('A' for Active; 'I' for Inactive)
REMARK    1  A    between atoms: C_1  and  C_2
REMARK    2  A    between atoms: C_10  and  C_12
REMARK    3  A    between atoms: C_16  and  C_36
REMARK    4  A    between atoms: C_19  and  O_35
REMARK    5  A    between atoms: C_21  and  C_25
REMARK    6  A    between atoms: C_25  and  C_27
REMARK    7  A    between atoms: C_25  and  C_28
REMARK                            x       y       z     vdW  Elec       q    Type
REMARK                         _______ _______ _______ _____ _____    ______ ____
ROOT
ATOM      1  C   UNL     1       2.671   3.095   1.586  0.00  0.00    +0.014 C 
ATOM      2  C   UNL     1       2.025   2.522   0.323  0.00  0.00    +0.042 C 
ATOM      3  C   UNL     1       0.662   3.157   0.141  0.00  0.00    +0.057 A 
ATOM      4  C   UNL     1      -0.394   2.408  -0.269  0.00  0.00    +0.015 A 
ATOM      5  S   UNL     1      -1.703   3.599  -0.367  0.00  0.00    -0.057 S 
ATOM      6  C   UNL     1      -0.774   4.977   0.146  0.00  0.00    +0.165 A 
ATOM      7  N   UNL     1       0.417   4.451   0.338  0.00  0.00    -0.229 NA
ATOM      8  N   UNL     1      -1.183   6.296   0.306  0.00  0.00    -0.264 N 
ATOM      9  C   UNL     1      -2.462   6.640   0.055  0.00  0.00    +0.222 C 
ATOM     10  O   UNL     1      -3.256   5.798  -0.309  0.00  0.00    -0.275 OA
ATOM     11  C   UNL     1      -0.414   0.950  -0.563  0.00  0.00    +0.051 C 
ATOM     12  C   UNL     1       1.036   0.442  -0.684  0.00  0.00    -0.022 C 
ATOM     13  C   UNL     1       1.858   1.004   0.478  0.00  0.00    +0.033 C 
ATOM     14  C   UNL     1       3.261   0.386   0.479  0.00  0.00    +0.123 C 
ATOM     15  C   UNL     1       3.172  -1.135   0.580  0.00  0.00    +0.029 C 
ATOM     16  C   UNL     1       2.402  -1.665  -0.634  0.00  0.00    +0.007 C 
ATOM     17  C   UNL     1       0.987  -1.088  -0.624  0.00  0.00    +0.008 C 
ATOM     18  C   UNL     1       1.639   0.893  -2.017  0.00  0.00    +0.012 C 
ATOM     19  H   UNL     1      -0.549   6.968   0.597  0.00  0.00    +0.157 HD
ENDROOT
BRANCH   9  20
ATOM     20  C   UNL     1      -2.906   8.069   0.229  0.00  0.00    +0.075 C 
ATOM     21  C   UNL     1      -3.869   8.376   1.377  0.00  0.00    +0.013 C 
ATOM     22  C   UNL     1      -4.371   8.396  -0.069  0.00  0.00    +0.013 C 
ENDBRANCH   9  20
BRANCH  15  23
ATOM     23  C   UNL     1       4.581  -1.731   0.594  0.00  0.00    +0.078 C 
ATOM     24  C   UNL     1       5.294  -1.385  -0.715  0.00  0.00    +0.017 C 
BRANCH  23  25
ATOM     25  C   UNL     1       4.491  -3.229   0.736  0.00  0.00    +0.219 C 
ATOM     26  O   UNL     1       4.366  -3.925  -0.249  0.00  0.00    -0.275 OA
ATOM     27  N   UNL     1       4.551  -3.795   1.958  0.00  0.00    -0.301 N 
ATOM     28  C   UNL     1       4.611  -3.070   3.235  0.00  0.00    +0.108 C 
ATOM     29  C   UNL     1       4.691  -4.126   4.358  0.00  0.00    +0.020 C 
ATOM     30  C   UNL     1       5.250  -5.372   3.621  0.00  0.00    +0.020 C 
ATOM     31  C   UNL     1       4.572  -5.242   2.234  0.00  0.00    +0.108 C 
ENDBRANCH  23  25
ENDBRANCH  15  23
BRANCH  14  32
ATOM     32  O   UNL     1       3.999   0.891   1.593  0.00  0.00    -0.391 OA
ATOM     33  H   UNL     1       4.876   0.498   1.695  0.00  0.00    +0.210 HD
ENDBRANCH  14  32
TORSDOF 4
