REMARK  Name = ZINC22698837
REMARK  9 active torsions:
REMARK  status: ('A' for Active; 'I' for Inactive)
REMARK    1  A    between atoms: C_1  and  C_2
REMARK    2  A    between atoms: C_2  and  C_3
REMARK    3  A    between atoms: C_2  and  C_4
REMARK    4  A    between atoms: C_4  and  C_6
REMARK    5  A    between atoms: C_4  and  N_20
REMARK    6  A    between atoms: N_8  and  N_9
REMARK    7  A    between atoms: C_10  and  C_12
REMARK    8  A    between atoms: N_20  and  S_21
REMARK    9  A    between atoms: S_21  and  C_24
REMARK                            x       y       z     vdW  Elec       q    Type
REMARK                         _______ _______ _______ _____ _____    ______ ____
ROOT
ATOM      1  C   UNL     1       0.068   7.634  -2.404  0.00  0.00    +0.166 C 
ENDROOT
BRANCH   1   2
ATOM      2  C   UNL     1       0.525   7.314  -3.804  0.00  0.00    +0.248 C 
ATOM      3  O   UNL     1       1.709   7.267  -4.060  0.00  0.00    -0.273 OA
ATOM      4  N   UNL     1      -0.383   7.078  -4.771  0.00  0.00    -0.233 N 
ATOM      5  H   UNL     1      -1.456   7.191  -4.558  0.00  0.00    +0.173 HD
BRANCH   4   6
ATOM      6  N   UNL     1       0.039   6.690  -6.049  0.00  0.00    -0.230 N 
ATOM      7  C   UNL     1      -0.869   6.455  -7.017  0.00  0.00    +0.267 C 
ATOM      8  O   UNL     1      -2.056   6.580  -6.781  0.00  0.00    -0.268 OA
ATOM      9  H   UNL     1       1.113   6.577  -6.263  0.00  0.00    +0.173 HD
BRANCH   7  10
ATOM     10  C   UNL     1      -0.426   6.048  -8.354  0.00  0.00    +0.076 A 
ATOM     11  C   UNL     1      -1.183   5.763  -9.472  0.00  0.00    +0.024 A 
ATOM     12  C   UNL     1      -0.518   5.394 -10.642  0.00  0.00    -0.036 A 
ATOM     13  C   UNL     1       0.839   5.343 -10.583  0.00  0.00    -0.006 A 
ATOM     14  S   UNL     1       1.231   5.801  -8.964  0.00  0.00    -0.088 S 
ATOM     15  C   UNL     1       1.442   4.931 -11.898  0.00  0.00    +0.043 C 
ATOM     16  C   UNL     1       0.271   4.304 -12.685  0.00  0.00    +0.010 C 
ATOM     17  C   UNL     1      -0.948   5.011 -12.060  0.00  0.00    +0.036 C 
ENDBRANCH   7  10
ENDBRANCH   4   6
ENDBRANCH   1   2
BRANCH   1  19
ATOM     18  C   UNL     1      -1.113   9.316  -0.983  0.00  0.00    +0.009 C 
ATOM     19  C   UNL     1      -0.534   9.040  -2.373  0.00  0.00    +0.010 C 
ATOM     20  C   UNL     1       0.554  10.068  -2.686  0.00  0.00    +0.009 C 
ENDBRANCH   1  19
BRANCH   1  21
ATOM     21  N   UNL     1       1.212   7.572  -1.491  0.00  0.00    -0.178 NA
ATOM     22  H   UNL     1       2.105   8.185  -1.686  0.00  0.00    +0.149 HD
BRANCH  21  23
ATOM     23  S   UNL     1       1.270   6.411  -0.312  0.00  0.00    +0.059 S 
ATOM     24  O   UNL     1       0.038   6.485   0.392  0.00  0.00    -0.153 OA
ATOM     25  O   UNL     1       2.527   6.552   0.336  0.00  0.00    -0.153 OA
BRANCH  23  26
ATOM     26  C   UNL     1       1.294   4.847  -1.123  0.00  0.00    +0.106 A 
ATOM     27  C   UNL     1       2.515   4.269  -1.466  0.00  0.00    +0.029 A 
ATOM     28  C   UNL     1       2.568   3.063  -2.092  0.00  0.00    +0.010 A 
ATOM     29  C   UNL     1       1.376   2.385  -2.400  0.00  0.00    -0.018 A 
ATOM     30  C   UNL     1       1.391   1.138  -3.046  0.00  0.00    +0.008 A 
ATOM     31  C   UNL     1       0.216   0.511  -3.328  0.00  0.00    +0.001 A 
ATOM     32  C   UNL     1      -1.006   1.091  -2.990  0.00  0.00    +0.001 A 
ATOM     33  C   UNL     1      -1.059   2.295  -2.358  0.00  0.00    +0.008 A 
ATOM     34  C   UNL     1       0.134   2.972  -2.051  0.00  0.00    -0.016 A 
ATOM     35  C   UNL     1       0.119   4.220  -1.405  0.00  0.00    +0.037 A 
ENDBRANCH  23  26
ENDBRANCH  21  23
ENDBRANCH   1  21
TORSDOF 7
