REMARK  Name = ZINC46709433
REMARK  6 active torsions:
REMARK  status: ('A' for Active; 'I' for Inactive)
REMARK    1  A    between atoms: C_1  and  C_2
REMARK    2  A    between atoms: C_3  and  C_28
REMARK    3  A    between atoms: C_7  and  N_8
REMARK    4  A    between atoms: C_9  and  C_11
REMARK    5  A    between atoms: N_16  and  S_18
REMARK    6  A    between atoms: S_18  and  C_21
REMARK                            x       y       z     vdW  Elec       q    Type
REMARK                         _______ _______ _______ _____ _____    ______ ____
ROOT
ATOM      1  N   UNL     1       0.203  -0.005   2.399  0.00  0.00    -0.285 N 
ATOM      2  C   UNL     1       0.436  -0.676   3.544  0.00  0.00    +0.222 C 
ATOM      3  O   UNL     1       0.475  -1.888   3.540  0.00  0.00    -0.275 OA
ATOM      4  H   UNL     1       0.105   0.960   2.413  0.00  0.00    +0.155 HD
ENDROOT
BRANCH   1  11
ATOM      5  C   UNL     1       1.125   1.279   0.035  0.00  0.00    +0.046 C 
ATOM      6  C   UNL     1       0.541  -0.111   0.013  0.00  0.00    -0.017 A 
ATOM      7  C   UNL     1       0.445  -0.810  -1.191  0.00  0.00    +0.041 A 
ATOM      8  C   UNL     1      -0.096  -2.097  -1.203  0.00  0.00    +0.013 A 
ATOM      9  C   UNL     1      -0.533  -2.673  -0.028  0.00  0.00    +0.003 A 
ATOM     10  C   UNL     1      -0.438  -1.980   1.164  0.00  0.00    +0.023 A 
ATOM     11  C   UNL     1       0.104  -0.700   1.188  0.00  0.00    +0.037 A 
BRANCH   7  12
ATOM     12  C   UNL     1       0.914  -0.190  -2.448  0.00  0.00    +0.242 C 
ATOM     13  O   UNL     1       1.490   0.880  -2.421  0.00  0.00    -0.270 OA
ATOM     14  N   UNL     1       0.703  -0.812  -3.626  0.00  0.00    -0.325 N 
ATOM     15  H   UNL     1       0.244  -1.666  -3.647  0.00  0.00    +0.145 HD
ATOM     16  H   UNL     1       1.011  -0.406  -4.451  0.00  0.00    +0.145 HD
ENDBRANCH   7  12
ENDBRANCH   1  11
BRANCH   2  17
ATOM     17  C   UNL     1       0.648   0.080   4.830  0.00  0.00    +0.091 C 
ATOM     18  C   UNL     1      -0.594   0.919   5.141  0.00  0.00    +0.015 C 
ATOM     19  C   UNL     1      -0.367   1.712   6.430  0.00  0.00    +0.018 C 
ATOM     20  C   UNL     1      -0.138   0.739   7.590  0.00  0.00    +0.109 C 
ATOM     21  N   UNL     1       0.963  -0.168   7.237  0.00  0.00    -0.176 NA
ATOM     22  C   UNL     1       0.889  -0.912   5.973  0.00  0.00    +0.122 C 
BRANCH  21  23
ATOM     23  S   UNL     1       2.264  -0.347   8.246  0.00  0.00    +0.061 S 
ATOM     24  O   UNL     1       3.346  -0.790   7.439  0.00  0.00    -0.153 OA
ATOM     25  O   UNL     1       2.335   0.835   9.032  0.00  0.00    -0.153 OA
BRANCH  23  26
ATOM     26  C   UNL     1       1.888  -1.665   9.353  0.00  0.00    +0.106 A 
ATOM     27  C   UNL     1       1.249  -1.402  10.550  0.00  0.00    +0.029 A 
ATOM     28  C   UNL     1       0.954  -2.436  11.418  0.00  0.00    +0.017 A 
ATOM     29  C   UNL     1       1.297  -3.735  11.089  0.00  0.00    +0.018 A 
ATOM     30  C   UNL     1       1.936  -3.998   9.891  0.00  0.00    +0.017 A 
ATOM     31  C   UNL     1       2.227  -2.964   9.021  0.00  0.00    +0.029 A 
ATOM     32 BR   UNL     1       0.893  -5.150  12.276  0.00  0.00    -0.050 Br
ENDBRANCH  23  26
ENDBRANCH  21  23
ENDBRANCH   2  17
TORSDOF 5
