REMARK  Name = ZINC34976491
REMARK  8 active torsions:
REMARK  status: ('A' for Active; 'I' for Inactive)
REMARK    1  A    between atoms: C_4  and  C_7
REMARK    2  A    between atoms: C_8  and  C_9
REMARK    3  A    between atoms: N_11  and  C_12
REMARK    4  A    between atoms: C_12  and  C_13
REMARK    5  A    between atoms: C_13  and  N_14
REMARK    6  A    between atoms: N_14  and  C_15
REMARK    7  A    between atoms: N_24  and  C_25
REMARK    8  A    between atoms: C_28  and  N_31
REMARK                            x       y       z     vdW  Elec       q    Type
REMARK                         _______ _______ _______ _____ _____    ______ ____
ROOT
ATOM      1  N   UNL     1       6.745  -7.008  -0.021  0.00  0.00    -0.254 N 
ATOM      2  C   UNL     1       7.548  -7.672  -0.876  0.00  0.00    +0.311 C 
ATOM      3  O   UNL     1       8.240  -8.586  -0.473  0.00  0.00    -0.252 OA
ATOM      4  N   UNL     1       7.583  -7.322  -2.177  0.00  0.00    -0.269 N 
ATOM      5  H   UNL     1       7.141  -6.512  -2.474  0.00  0.00    +0.156 HD
ENDROOT
BRANCH   1   6
ATOM      6  C   UNL     1       6.818  -7.266   1.353  0.00  0.00    +0.038 A 
ATOM      7  C   UNL     1       7.992  -7.008   2.048  0.00  0.00    +0.026 A 
ATOM      8  C   UNL     1       8.062  -7.263   3.403  0.00  0.00    +0.040 A 
ATOM      9  C   UNL     1       6.962  -7.778   4.069  0.00  0.00    +0.124 A 
ATOM     10  C   UNL     1       5.790  -8.037   3.378  0.00  0.00    +0.040 A 
ATOM     11  C   UNL     1       5.714  -7.777   2.024  0.00  0.00    +0.026 A 
ATOM     12  F   UNL     1       7.033  -8.027   5.395  0.00  0.00    -0.205 F 
ENDBRANCH   1   6
BRANCH   4  13
ATOM     13  C   UNL     1       8.260  -8.128  -3.100  0.00  0.00    +0.035 A 
ATOM     14  C   UNL     1       9.266  -8.983  -2.671  0.00  0.00    +0.025 A 
ATOM     15  C   UNL     1       9.931  -9.777  -3.584  0.00  0.00    +0.034 A 
ATOM     16  C   UNL     1       9.597  -9.721  -4.925  0.00  0.00    +0.126 A 
ATOM     17  C   UNL     1       8.596  -8.869  -5.355  0.00  0.00    +0.034 A 
ATOM     18  C   UNL     1       7.922  -8.078  -4.446  0.00  0.00    +0.025 A 
BRANCH  16  19
ATOM     19  N   UNL     1      10.313 -10.573  -5.901  0.00  0.00    +0.056 N 
ATOM     20  O   UNL     1      11.189 -11.317  -5.526  0.00  0.00    -0.126 OA
ATOM     21  O   UNL     1      10.022 -10.524  -7.073  0.00  0.00    -0.126 OA
ENDBRANCH  16  19
ENDBRANCH   4  13
BRANCH   1  22
ATOM     22  C   UNL     1       5.795  -6.015  -0.530  0.00  0.00    +0.134 C 
BRANCH  22  23
ATOM     23  C   UNL     1       6.465  -4.640  -0.567  0.00  0.00    +0.124 C 
BRANCH  23  26
ATOM     24  C   UNL     1       5.888  -2.358  -1.196  0.00  0.00    +0.237 C 
ATOM     25  O   UNL     1       7.014  -2.018  -0.882  0.00  0.00    -0.271 OA
ATOM     26  N   UNL     1       5.515  -3.647  -1.076  0.00  0.00    -0.310 N 
ATOM     27  H   UNL     1       4.618  -3.918  -1.326  0.00  0.00    +0.149 HD
BRANCH  24  29
ATOM     28  C   UNL     1       5.312  -0.076  -1.825  0.00  0.00    +0.013 C 
ATOM     29  C   UNL     1       4.939  -1.365  -1.705  0.00  0.00    +0.068 C 
BRANCH  28  33
ATOM     30  C   UNL     1       2.563   2.799  -3.300  0.00  0.00    +0.000 A 
ATOM     31  C   UNL     1       3.842   3.189  -2.943  0.00  0.00    +0.001 A 
ATOM     32  C   UNL     1       4.741   2.261  -2.462  0.00  0.00    +0.008 A 
ATOM     33  C   UNL     1       4.358   0.922  -2.336  0.00  0.00    -0.025 A 
ATOM     34  C   UNL     1       3.064   0.535  -2.699  0.00  0.00    +0.008 A 
ATOM     35  C   UNL     1       2.176   1.475  -3.178  0.00  0.00    +0.001 A 
ENDBRANCH  28  33
ENDBRANCH  24  29
ENDBRANCH  23  26
ENDBRANCH  22  23
ENDBRANCH   1  22
TORSDOF 8
