REMARK  Name = ZINC09550689
REMARK  13 active torsions:
REMARK  status: ('A' for Active; 'I' for Inactive)
REMARK    1  A    between atoms: C_1  and  C_2
REMARK    2  A    between atoms: C_2  and  C_4
REMARK    3  A    between atoms: C_2  and  O_15
REMARK    4  A    between atoms: N_6  and  C_7
REMARK    5  A    between atoms: C_7  and  C_13
REMARK    6  A    between atoms: O_15  and  C_16
REMARK    7  A    between atoms: C_16  and  C_18
REMARK    8  A    between atoms: C_18  and  N_19
REMARK    9  A    between atoms: N_19  and  S_20
REMARK   10  A    between atoms: S_20  and  C_23
REMARK   11  A    between atoms: C_26  and  S_32
REMARK   12  A    between atoms: C_27  and  N_29
REMARK   13  A    between atoms: S_32  and  C_33
REMARK                            x       y       z     vdW  Elec       q    Type
REMARK                         _______ _______ _______ _____ _____    ______ ____
ROOT
ATOM      1  C   UNL     1      -4.241   3.572  -3.628  0.00  0.00    +0.323 C 
ATOM      2  O   UNL     1      -4.469   4.749  -3.775  0.00  0.00    -0.249 OA
ENDROOT
BRANCH   1   3
ATOM      3  O   UNL     1      -4.624   2.692  -4.566  0.00  0.00    -0.451 OA
BRANCH   3   5
ATOM      4  C   UNL     1      -6.814   3.251  -5.471  0.00  0.00    +0.062 C 
ATOM      5  C   UNL     1      -5.307   3.225  -5.731  0.00  0.00    +0.259 C 
BRANCH   5   6
ATOM      6  C   UNL     1      -5.018   2.353  -6.926  0.00  0.00    +0.255 C 
ATOM      7  O   UNL     1      -4.382   1.330  -6.790  0.00  0.00    -0.272 OA
ATOM      8  N   UNL     1      -5.466   2.711  -8.146  0.00  0.00    -0.294 N 
ATOM      9  H   UNL     1      -5.975   3.530  -8.254  0.00  0.00    +0.150 HD
BRANCH   8  10
ATOM     10  C   UNL     1      -5.186   1.864  -9.307  0.00  0.00    +0.121 C 
ATOM     11  C   UNL     1      -3.672   1.738  -9.492  0.00  0.00    +0.041 C 
ATOM     12  C   UNL     1      -3.379   0.853 -10.705  0.00  0.00    +0.003 C 
ATOM     13  C   UNL     1      -3.995   1.482 -11.957  0.00  0.00    +0.000 C 
ATOM     14  C   UNL     1      -5.508   1.608 -11.771  0.00  0.00    +0.003 C 
ATOM     15  C   UNL     1      -5.802   2.493 -10.558  0.00  0.00    +0.041 C 
BRANCH  10  16
ATOM     16  C   UNL     1      -5.767   0.529  -9.092  0.00  0.00    +0.088 C 
ATOM     17  N   UNL     1      -6.215  -0.502  -8.927  0.00  0.00    -0.194 NA
ENDBRANCH  10  16
ENDBRANCH   8  10
ENDBRANCH   5   6
ENDBRANCH   3   5
ENDBRANCH   1   3
BRANCH   1  18
ATOM     18  C   UNL     1      -3.526   3.092  -2.391  0.00  0.00    +0.226 C 
BRANCH  18  19
ATOM     19  N   UNL     1      -3.218   4.236  -1.530  0.00  0.00    -0.179 NA
ATOM     20  H   UNL     1      -3.272   5.138  -1.884  0.00  0.00    +0.149 HD
BRANCH  19  21
ATOM     21  S   UNL     1      -2.776   3.991   0.047  0.00  0.00    +0.059 S 
ATOM     22  O   UNL     1      -3.732   3.097   0.602  0.00  0.00    -0.153 OA
ATOM     23  O   UNL     1      -2.521   5.274   0.602  0.00  0.00    -0.153 OA
BRANCH  21  24
ATOM     24  C   UNL     1      -1.237   3.134   0.029  0.00  0.00    +0.107 A 
ATOM     25  C   UNL     1      -1.217   1.751   0.017  0.00  0.00    +0.030 A 
ATOM     26  C   UNL     1      -0.013   1.076   0.008  0.00  0.00    +0.019 A 
ATOM     27  C   UNL     1       1.181   1.788   0.000  0.00  0.00    +0.038 A 
ATOM     28  C   UNL     1       1.157   3.177   0.008  0.00  0.00    +0.141 A 
ATOM     29  C   UNL     1      -0.051   3.845   0.022  0.00  0.00    +0.062 A 
BRANCH  28  30
ATOM     30  N   UNL     1       2.426   3.940   0.000  0.00  0.00    +0.058 N 
ATOM     31  O   UNL     1       2.404   5.158   0.006  0.00  0.00    -0.126 OA
ATOM     32  O   UNL     1       3.491   3.350  -0.013  0.00  0.00    -0.126 OA
ENDBRANCH  28  30
BRANCH  27  33
ATOM     33  S   UNL     1       2.721   0.931  -0.019  0.00  0.00    -0.126 S 
ATOM     34  C   UNL     1       2.248  -0.820  -0.024  0.00  0.00    +0.090 C 
ENDBRANCH  27  33
ENDBRANCH  21  24
ENDBRANCH  19  21
ENDBRANCH  18  19
ENDBRANCH   1  18
TORSDOF 11
