REMARK  Name = ZINC01261323
REMARK  6 active torsions:
REMARK  status: ('A' for Active; 'I' for Inactive)
REMARK    1  A    between atoms: C_1  and  C_2
REMARK    2  A    between atoms: C_6  and  N_9
REMARK    3  A    between atoms: C_7  and  C_8
REMARK    4  A    between atoms: C_10  and  C_12
REMARK    5  A    between atoms: C_13  and  C_27
REMARK    6  A    between atoms: C_18  and  C_20
REMARK                            x       y       z     vdW  Elec       q    Type
REMARK                         _______ _______ _______ _____ _____    ______ ____
ROOT
ATOM      1  C   UNL     1      -1.561   3.647   0.132  0.00  0.00    +0.056 C 
ATOM      2  C   UNL     1      -0.492   4.308  -0.362  0.00  0.00    +0.017 C 
ATOM      3  N   UNL     1       0.706   3.677  -0.538  0.00  0.00    -0.300 N 
ATOM      4  C   UNL     1       0.917   2.387  -0.245  0.00  0.00    +0.135 C 
ATOM      5  S   UNL     1       2.470   1.720  -0.515  0.00  0.00    -0.019 S 
ATOM      6  N   UNL     1      -0.054   1.598   0.255  0.00  0.00    -0.315 N 
ATOM      7  C   UNL     1      -1.387   2.182   0.477  0.00  0.00    +0.139 C 
ATOM      8  C   UNL     1      -0.623   5.765  -0.724  0.00  0.00    +0.061 C 
ATOM      9  H   UNL     1       1.566   4.232  -0.942  0.00  0.00    +0.154 HD
ATOM     10  H   UNL     1       0.130   0.541   0.496  0.00  0.00    +0.149 HD
ENDROOT
BRANCH   7  11
ATOM     11  C   UNL     1      -1.733   2.009   1.934  0.00  0.00    -0.023 A 
ATOM     12  C   UNL     1      -0.803   2.321   2.907  0.00  0.00    +0.007 A 
ATOM     13  C   UNL     1      -1.121   2.167   4.243  0.00  0.00    +0.015 A 
ATOM     14  C   UNL     1      -2.368   1.690   4.606  0.00  0.00    +0.018 A 
ATOM     15  C   UNL     1      -3.297   1.373   3.631  0.00  0.00    +0.015 A 
ATOM     16  C   UNL     1      -2.979   1.532   2.296  0.00  0.00    +0.007 A 
ATOM     17 BR   UNL     1      -2.802   1.471   6.434  0.00  0.00    -0.050 Br
ENDBRANCH   7  11
BRANCH   1  19
ATOM     18  N   UNL     1      -2.995   5.096   1.386  0.00  0.00    -0.281 N 
ATOM     19  C   UNL     1      -2.804   4.301   0.315  0.00  0.00    +0.248 C 
ATOM     20  O   UNL     1      -3.700   4.143  -0.494  0.00  0.00    -0.270 OA
ATOM     21  H   UNL     1      -2.161   5.306   2.071  0.00  0.00    +0.155 HD
BRANCH  18  27
ATOM     22  C   UNL     1      -6.333   6.796   4.569  0.00  0.00    +0.044 C 
ATOM     23  C   UNL     1      -5.899   6.489   3.160  0.00  0.00    -0.046 A 
ATOM     24  C   UNL     1      -6.747   6.760   2.101  0.00  0.00    +0.004 A 
ATOM     25  C   UNL     1      -6.352   6.480   0.806  0.00  0.00    +0.002 A 
ATOM     26  C   UNL     1      -5.108   5.928   0.565  0.00  0.00    +0.023 A 
ATOM     27  C   UNL     1      -4.255   5.655   1.626  0.00  0.00    +0.037 A 
ATOM     28  C   UNL     1      -4.657   5.932   2.926  0.00  0.00    -0.026 A 
ATOM     29  C   UNL     1      -3.736   5.631   4.081  0.00  0.00    +0.046 C 
ENDBRANCH  18  27
ENDBRANCH   1  19
TORSDOF 3
