REMARK  Name = ZINC12851378
REMARK  12 active torsions:
REMARK  status: ('A' for Active; 'I' for Inactive)
REMARK    1  A    between atoms: C_1  and  C_2
REMARK    2  A    between atoms: C_7  and  O_8
REMARK    3  A    between atoms: O_8  and  C_9
REMARK    4  A    between atoms: C_9  and  C_10
REMARK    5  A    between atoms: C_10  and  C_11
REMARK    6  A    between atoms: C_11  and  C_12
REMARK    7  A    between atoms: N_14  and  N_15
REMARK    8  A    between atoms: C_16  and  C_18
REMARK    9  A    between atoms: C_18  and  C_20
REMARK   10  A    between atoms: C_18  and  N_21
REMARK   11  A    between atoms: N_21  and  S_22
REMARK   12  A    between atoms: S_22  and  C_25
REMARK                            x       y       z     vdW  Elec       q    Type
REMARK                         _______ _______ _______ _____ _____    ______ ____
ROOT
ATOM      1  N   UNL     1       3.018   7.961   0.016  0.00  0.00    -0.233 N 
ATOM      2  C   UNL     1       4.076   8.796   0.010  0.00  0.00    +0.247 C 
ATOM      3  O   UNL     1       5.202   8.348  -0.003  0.00  0.00    -0.273 OA
ATOM      4  H   UNL     1       2.117   8.319   0.026  0.00  0.00    +0.173 HD
ENDROOT
BRANCH   1   7
ATOM      5  C   UNL     1       2.163   5.739   0.012  0.00  0.00    +0.229 C 
ATOM      6  O   UNL     1       1.036   6.187   0.025  0.00  0.00    -0.274 OA
ATOM      7  N   UNL     1       3.220   6.575   0.007  0.00  0.00    -0.234 N 
ATOM      8  H   UNL     1       4.122   6.216  -0.004  0.00  0.00    +0.173 HD
BRANCH   5   9
ATOM      9  C   UNL     1       2.381   4.248   0.002  0.00  0.00    +0.100 C 
BRANCH   9  10
ATOM     10  C   UNL     1       1.027   3.535   0.011  0.00  0.00    +0.050 C 
BRANCH  10  11
ATOM     11  C   UNL     1       1.248   2.021   0.001  0.00  0.00    +0.229 C 
BRANCH  11  12
ATOM     12  O   UNL     1      -0.016   1.355   0.009  0.00  0.00    -0.492 OA
BRANCH  12  19
ATOM     13  C   UNL     1      -2.505   0.019   0.038  0.00  0.00    +0.047 C 
ATOM     14  C   UNL     1      -1.189  -0.715   0.015  0.00  0.00    -0.007 A 
ATOM     15  C   UNL     1      -1.168  -2.096   0.003  0.00  0.00    +0.027 A 
ATOM     16  C   UNL     1       0.040  -2.771  -0.012  0.00  0.00    +0.041 A 
ATOM     17  C   UNL     1       1.229  -2.063  -0.020  0.00  0.00    +0.023 A 
ATOM     18  C   UNL     1       1.212  -0.682  -0.013  0.00  0.00    +0.047 A 
ATOM     19  C   UNL     1       0.002  -0.004   0.002  0.00  0.00    +0.123 A 
ATOM     20 CL   UNL     1       0.063  -4.506  -0.021  0.00  0.00    -0.084 Cl
ENDBRANCH  12  19
ENDBRANCH  11  12
ENDBRANCH  10  11
ENDBRANCH   9  10
ENDBRANCH   5   9
ENDBRANCH   1   7
BRANCH   2  21
ATOM     21  C   UNL     1       3.858  10.288   0.021  0.00  0.00    +0.160 C 
ATOM     22  C   UNL     1       3.059  10.695  -1.219  0.00  0.00    +0.035 C 
BRANCH  21  23
ATOM     23  N   UNL     1       5.154  10.970   0.012  0.00  0.00    -0.178 NA
ATOM     24  H   UNL     1       5.899  10.590  -0.479  0.00  0.00    +0.149 HD
BRANCH  23  25
ATOM     25  S   UNL     1       5.347  12.391   0.840  0.00  0.00    +0.059 S 
ATOM     26  O   UNL     1       6.701  12.784   0.663  0.00  0.00    -0.153 OA
ATOM     27  O   UNL     1       4.257  13.226   0.474  0.00  0.00    -0.153 OA
BRANCH  25  28
ATOM     28  C   UNL     1       5.149  12.027   2.553  0.00  0.00    +0.105 A 
ATOM     29  C   UNL     1       3.897  12.102   3.134  0.00  0.00    +0.031 A 
ATOM     30  C   UNL     1       3.739  11.812   4.476  0.00  0.00    +0.040 A 
ATOM     31  C   UNL     1       4.837  11.456   5.241  0.00  0.00    +0.124 A 
ATOM     32  C   UNL     1       6.091  11.386   4.658  0.00  0.00    +0.040 A 
ATOM     33  C   UNL     1       6.246  11.671   3.315  0.00  0.00    +0.031 A 
ATOM     34  F   UNL     1       4.685  11.177   6.554  0.00  0.00    -0.205 F 
ENDBRANCH  25  28
ENDBRANCH  23  25
ENDBRANCH  21  23
ENDBRANCH   2  21
TORSDOF 10
