REMARK  Name = ZINC63619686
REMARK  8 active torsions:
REMARK  status: ('A' for Active; 'I' for Inactive)
REMARK    1  A    between atoms: C_1  and  C_2
REMARK    2  A    between atoms: C_2  and  O_3
REMARK    3  A    between atoms: O_3  and  C_4
REMARK    4  A    between atoms: C_8  and  C_10
REMARK    5  A    between atoms: C_14  and  S_17
REMARK    6  A    between atoms: N_15  and  N_16
REMARK    7  A    between atoms: S_17  and  C_18
REMARK    8  A    between atoms: C_18  and  C_19
REMARK                            x       y       z     vdW  Elec       q    Type
REMARK                         _______ _______ _______ _____ _____    ______ ____
ROOT
ATOM      1  C   UNL     1      -4.316  -4.366   0.008  0.00  0.00    +0.223 C 
ATOM      2  N   UNL     1      -5.243  -3.517   0.775  0.00  0.00    -0.241 N 
ATOM      3  N   UNL     1      -5.706  -4.304   1.837  0.00  0.00    -0.161 NA
ATOM      4  C   UNL     1      -5.191  -5.487   1.808  0.00  0.00    +0.189 C 
ATOM      5  N   UNL     1      -4.324  -5.648   0.733  0.00  0.00    -0.221 N 
ATOM      6  H   UNL     1      -5.484  -2.597   0.584  0.00  0.00    +0.171 HD
ENDROOT
BRANCH   1  11
ATOM      7  C   UNL     1      -1.498  -1.848   0.006  0.00  0.00    +0.121 A 
ATOM      8  C   UNL     1      -0.387  -2.679  -0.003  0.00  0.00    +0.045 A 
ATOM      9  C   UNL     1      -0.552  -4.051  -0.008  0.00  0.00    +0.004 A 
ATOM     10  C   UNL     1      -1.823  -4.596  -0.004  0.00  0.00    +0.007 A 
ATOM     11  C   UNL     1      -2.932  -3.769   0.004  0.00  0.00    -0.003 A 
ATOM     12  C   UNL     1      -2.772  -2.397   0.016  0.00  0.00    +0.052 A 
BRANCH   7  13
ATOM     13  O   UNL     1      -1.339  -0.499   0.012  0.00  0.00    -0.492 OA
BRANCH  13  15
ATOM     14  C   UNL     1      -0.019   1.526   0.010  0.00  0.00    +0.048 C 
ATOM     15  C   UNL     1       0.002  -0.004   0.002  0.00  0.00    +0.225 C 
ENDBRANCH  13  15
ENDBRANCH   7  13
ENDBRANCH   1  11
BRANCH   5  16
ATOM     16  N   UNL     1      -3.617  -6.772   0.412  0.00  0.00    -0.250 NA
ATOM     17  H   UNL     1      -3.800  -7.515   1.070  0.00  0.00    +0.141 HD
ATOM     18  H   UNL     1      -3.818  -7.068  -0.532  0.00  0.00    +0.141 HD
ENDBRANCH   5  16
BRANCH   4  19
ATOM     19  S   UNL     1      -5.545  -6.747   2.987  0.00  0.00    -0.084 S 
BRANCH  19  20
ATOM     20  C   UNL     1      -6.722  -5.965   4.125  0.00  0.00    +0.124 C 
BRANCH  20  21
ATOM     21  C   UNL     1      -7.118  -6.963   5.214  0.00  0.00    +0.184 C 
ATOM     22  N   UNL     1      -5.922  -7.443   5.918  0.00  0.00    -0.363 N 
ATOM     23  C   UNL     1      -5.858  -8.732   5.748  0.00  0.00    +0.060 A 
ATOM     24  C   UNL     1      -4.906  -9.754   6.203  0.00  0.00    +0.027 A 
ATOM     25  C   UNL     1      -5.102 -11.043   5.863  0.00  0.00    +0.002 A 
ATOM     26  C   UNL     1      -6.192 -11.464   5.080  0.00  0.00    +0.002 A 
ATOM     27  C   UNL     1      -7.122 -10.609   4.611  0.00  0.00    +0.027 A 
ATOM     28  C   UNL     1      -7.012  -9.177   4.920  0.00  0.00    +0.060 A 
ATOM     29  N   UNL     1      -7.744  -8.146   4.610  0.00  0.00    -0.363 N 
ATOM     30  H   UNL     1      -5.293  -6.898   6.418  0.00  0.00    +0.162 HD
ATOM     31  H   UNL     1      -8.555  -8.157   4.078  0.00  0.00    +0.162 HD
ENDBRANCH  20  21
ENDBRANCH  19  20
ENDBRANCH   4  19
TORSDOF 7
