REMARK  Name = ZINC63856851
REMARK  7 active torsions:
REMARK  status: ('A' for Active; 'I' for Inactive)
REMARK    1  A    between atoms: C_1  and  C_2
REMARK    2  A    between atoms: C_2  and  C_3
REMARK    3  A    between atoms: C_3  and  C_4
REMARK    4  A    between atoms: C_6  and  C_10
REMARK    5  A    between atoms: N_12  and  C_13
REMARK    6  A    between atoms: N_12  and  C_14
REMARK    7  A    between atoms: C_14  and  C_15
REMARK                            x       y       z     vdW  Elec       q    Type
REMARK                         _______ _______ _______ _____ _____    ______ ____
ROOT
ATOM      1  C   UNL     1       0.025  -6.146  -4.875  0.00  0.00    +0.154 C 
ENDROOT
BRANCH   1   2
ATOM      2  C   UNL     1       0.242  -7.630  -4.574  0.00  0.00    +0.192 C 
ATOM      3  N   UNL     1      -0.964  -8.202  -3.961  0.00  0.00    -0.362 N 
ATOM      4  C   UNL     1      -0.632  -8.639  -2.780  0.00  0.00    +0.060 A 
ATOM      5  C   UNL     1      -1.393  -9.300  -1.710  0.00  0.00    +0.029 A 
ATOM      6  C   UNL     1      -0.769  -9.647  -0.568  0.00  0.00    +0.022 A 
ATOM      7  C   UNL     1       0.600  -9.403  -0.347  0.00  0.00    +0.043 A 
ATOM      8  C   UNL     1       1.388  -8.802  -1.263  0.00  0.00    +0.047 A 
ATOM      9  C   UNL     1       0.815  -8.380  -2.547  0.00  0.00    +0.062 A 
ATOM     10  N   UNL     1       1.323  -7.793  -3.594  0.00  0.00    -0.362 N 
ATOM     11 CL   UNL     1       1.301  -9.893   1.164  0.00  0.00    -0.083 Cl
ATOM     12  H   UNL     1      -1.846  -8.245  -4.362  0.00  0.00    +0.162 HD
ATOM     13  H   UNL     1       2.246  -7.514  -3.705  0.00  0.00    +0.162 HD
ENDBRANCH   1   2
BRANCH   1  16
ATOM     14  C   UNL     1       0.658  -4.912  -2.871  0.00  0.00    +0.246 C 
ATOM     15  O   UNL     1       1.818  -5.019  -3.207  0.00  0.00    -0.273 OA
ATOM     16  N   UNL     1      -0.317  -5.441  -3.637  0.00  0.00    -0.299 N 
ATOM     17  C   UNL     1      -1.719  -5.312  -3.231  0.00  0.00    +0.132 C 
BRANCH  14  20
ATOM     18  C   UNL     1       0.739  -2.004  -1.265  0.00  0.00    +0.062 C 
ATOM     19  C   UNL     1      -0.154  -2.771  -1.895  0.00  0.00    +0.035 C 
ATOM     20  C   UNL     1       0.306  -4.187  -1.598  0.00  0.00    +0.238 C 
ATOM     21  N   UNL     1       1.502  -3.979  -0.765  0.00  0.00    -0.170 NA
ATOM     22  N   UNL     1       1.667  -2.763  -0.640  0.00  0.00    -0.158 NA
BRANCH  18  23
ATOM     23  C   UNL     1       0.718  -0.497  -1.257  0.00  0.00    +0.057 C 
BRANCH  23  25
ATOM     24  C   UNL     1      -0.019   1.526   0.010  0.00  0.00    +0.004 C 
ATOM     25  C   UNL     1       0.002  -0.004   0.002  0.00  0.00    +0.003 C 
ENDBRANCH  23  25
ENDBRANCH  18  23
ENDBRANCH  14  20
ENDBRANCH   1  16
TORSDOF 5
