REMARK  Name = ZINC39226223
REMARK  6 active torsions:
REMARK  status: ('A' for Active; 'I' for Inactive)
REMARK    1  A    between atoms: C_1  and  C_2
REMARK    2  A    between atoms: C_2  and  C_3
REMARK    3  A    between atoms: C_10  and  C_12
REMARK    4  A    between atoms: C_15  and  C_18
REMARK    5  A    between atoms: C_24  and  O_35
REMARK    6  A    between atoms: N_31  and  C_34
REMARK                            x       y       z     vdW  Elec       q    Type
REMARK                         _______ _______ _______ _____ _____    ______ ____
ROOT
ATOM      1  C   UNL     1       8.181   1.960  -0.034  0.00  0.00    -0.017 A 
ATOM      2  C   UNL     1       9.068   1.399  -0.953  0.00  0.00    +0.012 A 
ATOM      3  C   UNL     1      10.399   1.752  -0.923  0.00  0.00    +0.046 A 
ATOM      4  C   UNL     1      10.864   2.666   0.019  0.00  0.00    +0.127 A 
ATOM      5  C   UNL     1       9.984   3.227   0.931  0.00  0.00    +0.023 A 
ATOM      6  C   UNL     1       8.647   2.878   0.903  0.00  0.00    +0.018 A 
ATOM      7  C   UNL     1      10.449   4.230   1.957  0.00  0.00    +0.152 C 
ATOM      8  C   UNL     1      11.970   4.146   2.108  0.00  0.00    +0.084 C 
ATOM      9  C   UNL     1      12.596   4.156   0.710  0.00  0.00    +0.110 C 
ATOM     10  O   UNL     1      12.186   2.979   0.017  0.00  0.00    -0.485 OA
ATOM     11  C   UNL     1      12.130   5.397  -0.052  0.00  0.00    +0.029 C 
ATOM     12  C   UNL     1      12.823   5.442  -1.416  0.00  0.00    -0.075 C 
ATOM     13  N   UNL     1      14.278   5.495  -1.228  0.00  0.00    +0.378 N 
ATOM     14  C   UNL     1      14.740   4.270  -0.563  0.00  0.00    -0.075 C 
ATOM     15  C   UNL     1      14.121   4.179   0.834  0.00  0.00    +0.029 C 
ATOM     16  C   UNL     1      14.936   5.618  -2.535  0.00  0.00    -0.096 C 
ATOM     17  H   UNL     1      14.514   6.294  -0.658  0.00  0.00    -0.082 HD
ENDROOT
BRANCH   1  21
ATOM     18  C   UNL     1       4.067   0.878  -0.103  0.00  0.00    +0.037 A 
ATOM     19  C   UNL     1       4.954   0.311  -1.022  0.00  0.00    +0.013 A 
ATOM     20  C   UNL     1       6.285   0.662  -0.999  0.00  0.00    +0.009 A 
ATOM     21  C   UNL     1       6.748   1.583  -0.058  0.00  0.00    -0.018 A 
ATOM     22  C   UNL     1       5.862   2.150   0.860  0.00  0.00    +0.009 A 
ATOM     23  C   UNL     1       4.530   1.804   0.835  0.00  0.00    +0.013 A 
BRANCH  18  30
ATOM     24  C   UNL     1       0.861  -1.112  -0.602  0.00  0.00    +0.076 C 
ATOM     25  C   UNL     1       0.551  -2.315   0.294  0.00  0.00    +0.022 C 
ATOM     26  C   UNL     1       1.523  -3.451  -0.030  0.00  0.00    +0.003 C 
ATOM     27  C   UNL     1       2.956  -2.995   0.253  0.00  0.00    +0.019 C 
ATOM     28  C   UNL     1       3.293  -1.799  -0.644  0.00  0.00    +0.108 C 
ATOM     29  N   UNL     1       2.278  -0.756  -0.447  0.00  0.00    -0.294 N 
ATOM     30  C   UNL     1       2.638   0.503  -0.128  0.00  0.00    +0.247 C 
ATOM     31  O   UNL     1       1.788   1.329   0.141  0.00  0.00    -0.270 OA
BRANCH  24  33
ATOM     32  C   UNL     1      -1.489  -0.299  -0.355  0.00  0.00    +0.006 C 
ATOM     33  C   UNL     1      -0.014   0.074  -0.190  0.00  0.00    +0.019 C 
ENDBRANCH  24  33
ENDBRANCH  18  30
ENDBRANCH   1  21
BRANCH   7  34
ATOM     34  O   UNL     1       9.831   3.946   3.213  0.00  0.00    -0.387 OA
ATOM     35  H   UNL     1       8.865   3.984   3.194  0.00  0.00    +0.210 HD
ENDBRANCH   7  34
TORSDOF 4
