REMARK  Name = ZINC14805693
REMARK  9 active torsions:
REMARK  status: ('A' for Active; 'I' for Inactive)
REMARK    1  A    between atoms: C_1  and  C_2
REMARK    2  A    between atoms: C_2  and  C_4
REMARK    3  A    between atoms: C_2  and  O_25
REMARK    4  A    between atoms: N_6  and  N_7
REMARK    5  A    between atoms: C_8  and  C_10
REMARK    6  A    between atoms: C_15  and  N_16
REMARK    7  A    between atoms: N_16  and  S_17
REMARK    8  A    between atoms: S_17  and  C_20
REMARK    9  A    between atoms: O_25  and  C_26
REMARK                            x       y       z     vdW  Elec       q    Type
REMARK                         _______ _______ _______ _____ _____    ______ ____
ROOT
ATOM      1  N   UNL     1       1.432  -0.344  -0.147  0.00  0.00    -0.230 N 
ATOM      2  C   UNL     1       0.280   0.334  -0.322  0.00  0.00    +0.262 C 
ATOM      3  O   UNL     1      -0.786  -0.238  -0.201  0.00  0.00    -0.269 OA
ATOM      4  H   UNL     1       2.283   0.113  -0.244  0.00  0.00    +0.173 HD
ENDROOT
BRANCH   2   5
ATOM      5  C   UNL     1       0.313   1.769  -0.659  0.00  0.00    +0.060 A 
ATOM      6  C   UNL     1       1.536   2.430  -0.799  0.00  0.00    +0.015 A 
ATOM      7  C   UNL     1       1.559   3.771  -1.115  0.00  0.00    +0.001 A 
ATOM      8  C   UNL     1       0.376   4.469  -1.296  0.00  0.00    +0.002 A 
ATOM      9  C   UNL     1      -0.840   3.830  -1.161  0.00  0.00    +0.025 A 
ATOM     10  C   UNL     1      -0.884   2.477  -0.847  0.00  0.00    +0.060 A 
BRANCH  10  11
ATOM     11  N   UNL     1      -2.106   1.831  -0.717  0.00  0.00    -0.215 N 
ATOM     12  H   UNL     1      -2.216   1.132  -0.053  0.00  0.00    +0.174 HD
BRANCH  11  13
ATOM     13  S   UNL     1      -3.375   2.252  -1.694  0.00  0.00    +0.079 S 
ATOM     14  O   UNL     1      -4.423   1.334  -1.417  0.00  0.00    -0.149 OA
ATOM     15  O   UNL     1      -3.539   3.658  -1.563  0.00  0.00    -0.149 OA
BRANCH  13  16
ATOM     16  C   UNL     1      -2.872   1.957  -3.357  0.00  0.00    +0.146 A 
ATOM     17  C   UNL     1      -3.003   0.831  -4.101  0.00  0.00    +0.036 A 
ATOM     18  C   UNL     1      -2.530   0.827  -5.399  0.00  0.00    +0.010 A 
ATOM     19  C   UNL     1      -1.949   1.949  -5.891  0.00  0.00    +0.047 A 
ATOM     20  S   UNL     1      -2.066   3.064  -4.501  0.00  0.00    -0.077 S 
ENDBRANCH  13  16
ENDBRANCH  11  13
ENDBRANCH  10  11
ENDBRANCH   2   5
BRANCH   1  23
ATOM     21  C   UNL     1       2.553  -2.385   0.348  0.00  0.00    +0.270 C 
ATOM     22  O   UNL     1       3.616  -1.814   0.227  0.00  0.00    -0.270 OA
ATOM     23  N   UNL     1       1.401  -1.707   0.173  0.00  0.00    -0.231 N 
ATOM     24  H   UNL     1       0.550  -2.163   0.270  0.00  0.00    +0.173 HD
BRANCH  21  26
ATOM     25  C   UNL     1       1.915  -4.636  -0.473  0.00  0.00    +0.062 C 
ATOM     26  C   UNL     1       2.519  -3.851   0.693  0.00  0.00    +0.257 C 
BRANCH  26  27
ATOM     27  O   UNL     1       3.849  -4.313   0.939  0.00  0.00    -0.480 OA
BRANCH  27  28
ATOM     28  C   UNL     1       3.985  -5.404   1.738  0.00  0.00    +0.123 A 
ATOM     29  C   UNL     1       2.860  -6.080   2.188  0.00  0.00    +0.046 A 
ATOM     30  C   UNL     1       3.001  -7.192   2.995  0.00  0.00    +0.005 A 
ATOM     31  C   UNL     1       4.261  -7.626   3.364  0.00  0.00    +0.020 A 
ATOM     32  C   UNL     1       5.384  -6.950   2.922  0.00  0.00    +0.044 A 
ATOM     33  C   UNL     1       5.249  -5.840   2.109  0.00  0.00    +0.065 A 
ATOM     34 CL   UNL     1       6.965  -7.497   3.387  0.00  0.00    -0.083 Cl
ENDBRANCH  27  28
ENDBRANCH  26  27
ENDBRANCH  21  26
ENDBRANCH   1  23
TORSDOF 8
