REMARK  Name = ZINC64843254
REMARK  10 active torsions:
REMARK  status: ('A' for Active; 'I' for Inactive)
REMARK    1  A    between atoms: C_1  and  C_2
REMARK    2  A    between atoms: C_2  and  O_3
REMARK    3  A    between atoms: O_3  and  C_4
REMARK    4  A    between atoms: C_4  and  C_6
REMARK    5  A    between atoms: C_14  and  C_32
REMARK    6  A    between atoms: C_16  and  N_19
REMARK    7  A    between atoms: N_19  and  S_20
REMARK    8  A    between atoms: S_20  and  C_23
REMARK    9  A    between atoms: C_26  and  C_29
REMARK   10  A    between atoms: C_29  and  C_31
REMARK                            x       y       z     vdW  Elec       q    Type
REMARK                         _______ _______ _______ _____ _____    ______ ____
ROOT
ATOM      1  C   UNL     1       2.333  -4.109  -1.205  0.00  0.00    +0.115 C 
ATOM      2  C   UNL     1       2.330  -2.596  -1.440  0.00  0.00    +0.018 C 
ATOM      3  C   UNL     1       1.480  -2.271  -2.670  0.00  0.00    +0.020 C 
ATOM      4  C   UNL     1       2.088  -2.950  -3.901  0.00  0.00    +0.106 C 
ATOM      5  N   UNL     1       2.228  -4.387  -3.627  0.00  0.00    -0.315 N 
ATOM      6  C   UNL     1       2.950  -4.810  -2.419  0.00  0.00    +0.121 C 
ATOM      7  C   UNL     1       1.690  -5.325  -4.490  0.00  0.00    +0.113 A 
ATOM      8  C   UNL     1       2.432  -5.755  -5.605  0.00  0.00    +0.103 A 
ATOM      9  C   UNL     1       1.868  -6.705  -6.466  0.00  0.00    +0.046 A 
ATOM     10  C   UNL     1       0.596  -7.182  -6.178  0.00  0.00    +0.091 A 
ATOM     11  C   UNL     1      -0.072  -6.707  -5.056  0.00  0.00    +0.110 A 
ATOM     12  N   UNL     1       0.483  -5.816  -4.258  0.00  0.00    -0.347 N 
ATOM     13  H   UNL     1      -0.009  -5.508  -3.480  0.00  0.00    +0.167 HD
ENDROOT
BRANCH   8  14
ATOM     14  C   UNL     1       3.776  -5.216  -5.863  0.00  0.00    +0.390 C 
ATOM     15  O   UNL     1       4.368  -5.516  -6.890  0.00  0.00    -0.240 OA
ATOM     16  O   UNL     1       4.301  -4.467  -5.050  0.00  0.00    -0.240 OA
ENDBRANCH   8  14
BRANCH   1  17
ATOM     17  C   UNL     1       3.143  -4.425   0.025  0.00  0.00    +0.312 C 
ATOM     18  O   UNL     1       4.115  -5.139  -0.058  0.00  0.00    -0.250 OA
BRANCH  17  19
ATOM     19  O   UNL     1       2.786  -3.914   1.214  0.00  0.00    -0.465 OA
BRANCH  19  21
ATOM     20  C   UNL     1       3.042  -3.586   3.595  0.00  0.00    +0.048 C 
ATOM     21  C   UNL     1       3.600  -4.256   2.338  0.00  0.00    +0.229 C 
ENDBRANCH  19  21
ENDBRANCH  17  19
ENDBRANCH   1  17
BRANCH  10  22
ATOM     22  N   UNL     1      -0.009  -8.132  -7.011  0.00  0.00    -0.096 NA
BRANCH  22  23
ATOM     23  S   UNL     1      -1.526  -8.695  -6.659  0.00  0.00    +0.092 S 
ATOM     24  O   UNL     1      -1.417  -9.425  -5.445  0.00  0.00    -0.148 OA
ATOM     25  O   UNL     1      -2.413  -7.595  -6.811  0.00  0.00    -0.148 OA
BRANCH  23  26
ATOM     26  C   UNL     1      -1.952  -9.861  -7.910  0.00  0.00    +0.110 A 
ATOM     27  C   UNL     1      -2.593  -9.433  -9.060  0.00  0.00    +0.029 A 
ATOM     28  C   UNL     1      -2.930 -10.339 -10.043  0.00  0.00    +0.013 A 
ATOM     29  C   UNL     1      -2.621 -11.693  -9.877  0.00  0.00    +0.017 A 
ATOM     30  C   UNL     1      -1.973 -12.117  -8.712  0.00  0.00    +0.013 A 
ATOM     31  C   UNL     1      -1.638 -11.198  -7.740  0.00  0.00    +0.029 A 
BRANCH  29  32
ATOM     32  C   UNL     1      -2.978 -12.667 -10.921  0.00  0.00    +0.160 C 
ATOM     33  O   UNL     1      -3.540 -12.296 -11.929  0.00  0.00    -0.292 OA
ATOM     34  C   UNL     1      -2.644 -14.125 -10.738  0.00  0.00    +0.091 C 
ENDBRANCH  29  32
ENDBRANCH  23  26
ENDBRANCH  22  23
ENDBRANCH  10  22
TORSDOF 8
