REMARK  Name = ZINC02316486
REMARK  11 active torsions:
REMARK  status: ('A' for Active; 'I' for Inactive)
REMARK    1  A    between atoms: C_1  and  C_2
REMARK    2  A    between atoms: C_9  and  N_14
REMARK    3  A    between atoms: C_10  and  C_11
REMARK    4  A    between atoms: N_14  and  C_15
REMARK    5  A    between atoms: C_15  and  N_17
REMARK    6  A    between atoms: C_18  and  C_20
REMARK    7  A    between atoms: C_21  and  C_22
REMARK    8  A    between atoms: C_25  and  O_30
REMARK    9  A    between atoms: C_26  and  O_28
REMARK   10  A    between atoms: O_28  and  C_29
REMARK   11  A    between atoms: O_30  and  C_31
REMARK                            x       y       z     vdW  Elec       q    Type
REMARK                         _______ _______ _______ _____ _____    ______ ____
ROOT
ATOM      1  C   UNL     1       5.893   1.105   4.066  0.00  0.00    +0.141 C 
ATOM      2  S   UNL     1       6.281   1.523   2.452  0.00  0.00    -0.018 S 
ENDROOT
BRANCH   1   3
ATOM      3  N   UNL     1       6.872   0.985   4.985  0.00  0.00    -0.264 N 
ATOM      4  C   UNL     1       8.156   1.195   4.632  0.00  0.00    +0.242 C 
ATOM      5  O   UNL     1       8.432   1.492   3.485  0.00  0.00    -0.270 OA
ATOM      6  H   UNL     1       6.653   0.749   5.899  0.00  0.00    +0.157 HD
BRANCH   4   7
ATOM      7  C   UNL     1       9.218   1.065   5.628  0.00  0.00    +0.068 C 
ATOM      8  C   UNL     1      10.505   1.275   5.275  0.00  0.00    +0.013 C 
BRANCH   8   9
ATOM      9  C   UNL     1      11.572   1.145   6.277  0.00  0.00    -0.021 A 
ATOM     10  C   UNL     1      11.258   0.803   7.597  0.00  0.00    +0.012 A 
ATOM     11  C   UNL     1      12.260   0.681   8.534  0.00  0.00    +0.050 A 
ATOM     12  C   UNL     1      13.584   0.896   8.171  0.00  0.00    +0.162 A 
ATOM     13  C   UNL     1      13.905   1.236   6.858  0.00  0.00    +0.162 A 
ATOM     14  C   UNL     1      12.907   1.356   5.911  0.00  0.00    +0.057 A 
BRANCH  13  15
ATOM     15  O   UNL     1      15.203   1.444   6.508  0.00  0.00    -0.491 OA
ATOM     16  C   UNL     1      15.459   1.790   5.145  0.00  0.00    +0.277 C 
ENDBRANCH  13  15
BRANCH  12  17
ATOM     17  O   UNL     1      14.568   0.774   9.099  0.00  0.00    -0.491 OA
ATOM     18  C   UNL     1      14.169   0.423  10.426  0.00  0.00    +0.277 C 
ENDBRANCH  12  17
ENDBRANCH   8   9
ENDBRANCH   4   7
ENDBRANCH   1   3
BRANCH   1  19
ATOM     19  N   UNL     1       4.609   0.895   4.419  0.00  0.00    -0.291 N 
ATOM     20  H   UNL     1       4.390   0.659   5.333  0.00  0.00    +0.154 HD
BRANCH  19  28
ATOM     21  C   UNL     1      -0.758   1.595  -1.227  0.00  0.00    +0.008 C 
ATOM     22  C   UNL     1      -0.013   1.086   0.008  0.00  0.00    -0.009 C 
ATOM     23  C   UNL     1      -0.714   1.583   1.276  0.00  0.00    +0.008 C 
ATOM     24  C   UNL     1      -0.129   0.881   2.503  0.00  0.00    +0.037 C 
ATOM     25  C   UNL     1       1.387   1.034   2.479  0.00  0.00    -0.023 A 
ATOM     26  C   UNL     1       2.035   1.365   1.342  0.00  0.00    -0.004 A 
ATOM     27  S   UNL     1       3.745   1.426   1.796  0.00  0.00    -0.077 S 
ATOM     28  C   UNL     1       3.603   1.018   3.474  0.00  0.00    +0.084 A 
ATOM     29  C   UNL     1       2.236   0.844   3.643  0.00  0.00    +0.068 A 
ATOM     30  C   UNL     1       1.427   1.620  -0.003  0.00  0.00    +0.046 C 
BRANCH  29  31
ATOM     31  C   UNL     1       1.671   0.483   4.946  0.00  0.00    +0.244 C 
ATOM     32  O   UNL     1       1.336   1.355   5.727  0.00  0.00    -0.270 OA
ATOM     33  N   UNL     1       1.522  -0.814   5.280  0.00  0.00    -0.325 N 
ATOM     34  H   UNL     1       1.788  -1.509   4.658  0.00  0.00    +0.145 HD
ATOM     35  H   UNL     1       1.147  -1.053   6.142  0.00  0.00    +0.145 HD
ENDBRANCH  29  31
ENDBRANCH  19  28
ENDBRANCH   1  19
TORSDOF 8
