REMARK  Name = ZINC63941439
REMARK  4 active torsions:
REMARK  status: ('A' for Active; 'I' for Inactive)
REMARK    1  A    between atoms: C_7  and  C_10
REMARK    2  A    between atoms: C_10  and  C_11
REMARK    3  A    between atoms: N_13  and  C_14
REMARK    4  A    between atoms: C_14  and  C_15
REMARK                            x       y       z     vdW  Elec       q    Type
REMARK                         _______ _______ _______ _____ _____    ______ ____
ROOT
ATOM      1  C   UNL     1       0.705  -3.860  -1.413  0.00  0.00    +0.217 C 
ATOM      2  O   UNL     1       1.112  -3.168  -2.322  0.00  0.00    -0.275 OA
ATOM      3  N   UNL     1      -0.145  -4.874  -1.667  0.00  0.00    -0.311 N 
ATOM      4  H   UNL     1      -0.471  -5.428  -0.940  0.00  0.00    +0.149 HD
ENDROOT
BRANCH   1   5
ATOM      5  C   UNL     1       1.149  -3.585   0.001  0.00  0.00    +0.129 C 
BRANCH   5  12
ATOM      6  C   UNL     1       0.497   0.898   0.731  0.00  0.00    +0.001 A 
ATOM      7  C   UNL     1       1.672   1.658   0.645  0.00  0.00    +0.002 A 
ATOM      8  C   UNL     1       2.876   1.111   0.373  0.00  0.00    +0.026 A 
ATOM      9  C   UNL     1       2.998  -0.289   0.159  0.00  0.00    +0.043 A 
ATOM     10  N   UNL     1       4.034  -1.044  -0.115  0.00  0.00    -0.380 N 
ATOM     11  C   UNL     1       3.582  -2.434  -0.235  0.00  0.00    +0.145 C 
ATOM     12  C   UNL     1       2.090  -2.408   0.012  0.00  0.00    -0.033 C 
ATOM     13  C   UNL     1       1.772  -1.114   0.244  0.00  0.00    -0.001 A 
ATOM     14  C   UNL     1       0.502  -0.442   0.544  0.00  0.00    +0.010 A 
ATOM     15  H   UNL     1       4.947  -0.734  -0.222  0.00  0.00    +0.160 HD
ENDBRANCH   5  12
ENDBRANCH   1   5
BRANCH   3  16
ATOM     16  C   UNL     1      -0.577  -5.141  -3.042  0.00  0.00    +0.141 C 
BRANCH  16  17
ATOM     17  C   UNL     1      -1.518  -6.318  -3.053  0.00  0.00    -0.014 A 
ATOM     18  C   UNL     1      -1.026  -7.609  -3.200  0.00  0.00    +0.010 A 
ATOM     19  C   UNL     1      -1.923  -8.661  -3.205  0.00  0.00    +0.042 A 
ATOM     20  C   UNL     1      -3.281  -8.393  -3.063  0.00  0.00    +0.099 A 
ATOM     21  N   UNL     1      -3.711  -7.148  -2.925  0.00  0.00    -0.349 N 
ATOM     22  C   UNL     1      -2.877  -6.125  -2.911  0.00  0.00    +0.089 A 
ATOM     23  N   UNL     1      -4.194  -9.441  -3.067  0.00  0.00    -0.317 N 
ATOM     24  C   UNL     1      -3.693 -10.797  -3.072  0.00  0.00    +0.106 C 
ATOM     25  C   UNL     1      -3.495 -11.272  -4.532  0.00  0.00    +0.019 C 
ATOM     26  C   UNL     1      -4.798 -11.490  -5.179  0.00  0.00    +0.002 C 
ATOM     27  C   UNL     1      -5.655 -10.234  -5.304  0.00  0.00    +0.002 C 
ATOM     28  C   UNL     1      -6.430 -10.028  -4.026  0.00  0.00    +0.019 C 
ATOM     29  C   UNL     1      -5.636  -9.123  -3.060  0.00  0.00    +0.106 C 
ATOM     30  H   UNL     1      -4.662  -6.984  -2.828  0.00  0.00    +0.167 HD
ENDBRANCH  16  17
ENDBRANCH   3  16
TORSDOF 4
