REMARK  Name = ZINC65642473
REMARK  5 active torsions:
REMARK  status: ('A' for Active; 'I' for Inactive)
REMARK    1  A    between atoms: C_3  and  N_10
REMARK    2  A    between atoms: C_5  and  N_7
REMARK    3  A    between atoms: C_11  and  C_13
REMARK    4  A    between atoms: N_18  and  C_21
REMARK    5  A    between atoms: C_21  and  C_22
REMARK                            x       y       z     vdW  Elec       q    Type
REMARK                         _______ _______ _______ _____ _____    ______ ____
ROOT
ATOM      1  C   UNL     1       5.426   4.487   0.273  0.00  0.00    +0.302 C 
ATOM      2  O   UNL     1       6.497   3.942   0.097  0.00  0.00    -0.265 OA
ATOM      3  N   UNL     1       5.320   5.824   0.137  0.00  0.00    -0.291 N 
ATOM      4  C   UNL     1       4.011   6.489   0.221  0.00  0.00    +0.123 C 
ATOM      5  C   UNL     1       3.844   7.391  -1.006  0.00  0.00    +0.103 C 
ATOM      6  N   UNL     1       4.996   8.297  -1.105  0.00  0.00    -0.299 NA
ATOM      7  C   UNL     1       6.244   7.551  -1.315  0.00  0.00    +0.103 C 
ATOM      8  C   UNL     1       6.511   6.656  -0.094  0.00  0.00    +0.123 C 
ENDROOT
BRANCH   1  10
ATOM      9  N   UNL     1       4.300   2.330   0.648  0.00  0.00    -0.278 N 
ATOM     10  C   UNL     1       4.227   3.676   0.640  0.00  0.00    +0.303 C 
ATOM     11  O   UNL     1       3.187   4.229   0.932  0.00  0.00    -0.265 OA
ATOM     12  H   UNL     1       5.148   1.890   0.479  0.00  0.00    +0.155 HD
BRANCH   9  15
ATOM     13  C   UNL     1       1.834  -0.391   0.495  0.00  0.00    +0.004 A 
ATOM     14  C   UNL     1       2.967   0.359   0.244  0.00  0.00    +0.023 A 
ATOM     15  C   UNL     1       3.155   1.570   0.898  0.00  0.00    +0.036 A 
ATOM     16  C   UNL     1       2.202   2.023   1.802  0.00  0.00    +0.056 A 
ATOM     17  C   UNL     1       1.072   1.269   2.048  0.00  0.00    +0.128 A 
ATOM     18  C   UNL     1       0.888   0.064   1.395  0.00  0.00    +0.033 A 
BRANCH  17  19
ATOM     19  N   UNL     1       0.056   1.751   3.010  0.00  0.00    +0.056 N 
ATOM     20  O   UNL     1       0.217   2.805   3.581  0.00  0.00    -0.126 OA
ATOM     21  O   UNL     1      -0.933   1.091   3.226  0.00  0.00    -0.126 OA
ENDBRANCH  17  19
ENDBRANCH   9  15
ENDBRANCH   1  10
BRANCH   6  22
ATOM     22  C   UNL     1       4.794   9.292  -2.167  0.00  0.00    +0.088 C 
BRANCH  22  23
ATOM     23  C   UNL     1       3.813  10.362  -1.682  0.00  0.00    +0.003 C 
ATOM     24  C   UNL     1       4.382  11.050  -0.439  0.00  0.00    +0.005 C 
ATOM     25  C   UNL     1       3.402  12.120   0.045  0.00  0.00    +0.000 C 
ATOM     26  C   UNL     1       3.192  13.157  -1.060  0.00  0.00    +0.000 C 
ATOM     27  C   UNL     1       2.623  12.469  -2.302  0.00  0.00    +0.000 C 
ATOM     28  C   UNL     1       3.603  11.399  -2.787  0.00  0.00    +0.005 C 
ENDBRANCH  22  23
ENDBRANCH   6  22
TORSDOF 5
