REMARK  Name = ZINC06408692
REMARK  7 active torsions:
REMARK  status: ('A' for Active; 'I' for Inactive)
REMARK    1  A    between atoms: C_1  and  C_2
REMARK    2  A    between atoms: C_2  and  C_4
REMARK    3  A    between atoms: C_2  and  O_16
REMARK    4  A    between atoms: N_6  and  C_7
REMARK    5  A    between atoms: C_12  and  N_13
REMARK    6  A    between atoms: O_16  and  C_17
REMARK    7  A    between atoms: C_17  and  C_19
REMARK                            x       y       z     vdW  Elec       q    Type
REMARK                         _______ _______ _______ _____ _____    ______ ____
ROOT
ATOM      1  C   UNL     1       1.002   7.912   0.749  0.00  0.00    +0.258 C 
ATOM      2  O   UNL     1      -0.098   7.747   1.232  0.00  0.00    -0.271 OA
ATOM      3  N   UNL     1       1.618   9.104   0.869  0.00  0.00    -0.281 N 
ATOM      4  H   UNL     1       2.529   9.213   0.554  0.00  0.00    +0.155 HD
ENDROOT
BRANCH   3   5
ATOM      5  C   UNL     1       0.944  10.185   1.448  0.00  0.00    +0.064 A 
ATOM      6  C   UNL     1      -0.444  10.235   1.421  0.00  0.00    +0.025 A 
ATOM      7  C   UNL     1      -1.106  11.300   1.998  0.00  0.00    +0.002 A 
ATOM      8  C   UNL     1      -0.389  12.323   2.592  0.00  0.00    +0.002 A 
ATOM      9  C   UNL     1       0.993  12.279   2.615  0.00  0.00    +0.034 A 
ATOM     10  C   UNL     1       1.662  11.214   2.044  0.00  0.00    +0.147 A 
BRANCH  10  11
ATOM     11  N   UNL     1       3.141  11.168   2.068  0.00  0.00    +0.058 N 
ATOM     12  O   UNL     1       3.767  12.023   2.670  0.00  0.00    -0.126 OA
ATOM     13  O   UNL     1       3.732  10.276   1.487  0.00  0.00    -0.126 OA
ENDBRANCH  10  11
ENDBRANCH   3   5
BRANCH   1  15
ATOM     14  C   UNL     1       1.951   7.207  -1.431  0.00  0.00    +0.062 C 
ATOM     15  C   UNL     1       1.679   6.784   0.014  0.00  0.00    +0.259 C 
BRANCH  15  16
ATOM     16  O   UNL     1       0.832   5.633   0.022  0.00  0.00    -0.447 OA
BRANCH  16  17
ATOM     17  C   UNL     1       1.437   4.427  -0.001  0.00  0.00    +0.376 C 
ATOM     18  O   UNL     1       2.651   4.356  -0.027  0.00  0.00    -0.241 OA
BRANCH  17  19
ATOM     19  C   UNL     1       0.632   3.205   0.006  0.00  0.00    +0.213 A 
ATOM     20  C   UNL     1       1.113   1.926  -0.015  0.00  0.00    +0.058 A 
ATOM     21  C   UNL     1      -0.001   1.075   0.002  0.00  0.00    +0.058 A 
ATOM     22  C   UNL     1      -1.102   1.861   0.026  0.00  0.00    +0.171 A 
ATOM     23  O   UNL     1      -0.716   3.143   0.035  0.00  0.00    -0.442 OA
ATOM     24 BR   UNL     1      -2.891   1.249   0.050  0.00  0.00    -0.008 Br
ENDBRANCH  17  19
ENDBRANCH  16  17
ENDBRANCH  15  16
ENDBRANCH   1  15
TORSDOF 6
