REMARK  Name = ZINC06546234
REMARK  16 active torsions:
REMARK  status: ('A' for Active; 'I' for Inactive)
REMARK    1  A    between atoms: C_1  and  C_2
REMARK    2  A    between atoms: C_2  and  O_3
REMARK    3  A    between atoms: O_3  and  C_4
REMARK    4  A    between atoms: C_4  and  C_6
REMARK    5  A    between atoms: C_6  and  N_7
REMARK    6  A    between atoms: N_7  and  C_8
REMARK    7  A    between atoms: C_8  and  C_10
REMARK    8  A    between atoms: C_8  and  C_17
REMARK    9  A    between atoms: C_13  and  O_16
REMARK   10  A    between atoms: N_19  and  C_20
REMARK   11  A    between atoms: C_20  and  C_21
REMARK   12  A    between atoms: C_20  and  C_22
REMARK   13  A    between atoms: C_20  and  C_23
REMARK   14  A    between atoms: C_24  and  C_26
REMARK   15  A    between atoms: C_26  and  N_27
REMARK   16  A    between atoms: C_29  and  C_32
REMARK                            x       y       z     vdW  Elec       q    Type
REMARK                         _______ _______ _______ _____ _____    ______ ____
ROOT
ATOM      1  N   UNL     1      -0.414   2.288   0.029  0.00  0.00    -0.274 N 
ATOM      2  C   UNL     1      -0.653   1.643  -1.130  0.00  0.00    +0.240 C 
ATOM      3  O   UNL     1      -1.666   0.990  -1.262  0.00  0.00    -0.273 OA
ENDROOT
BRANCH   1   4
ATOM      4  C   UNL     1       0.810   3.078   0.189  0.00  0.00    +0.229 C 
BRANCH   4   5
ATOM      5  C   UNL     1       0.639   4.412  -0.491  0.00  0.00    +0.325 C 
ATOM      6  O   UNL     1      -0.340   4.624  -1.167  0.00  0.00    -0.249 OA
BRANCH   5   7
ATOM      7  O   UNL     1       1.573   5.364  -0.346  0.00  0.00    -0.464 OA
BRANCH   7   9
ATOM      8  C   UNL     1       2.506   7.577  -0.748  0.00  0.00    +0.048 C 
ATOM      9  C   UNL     1       1.343   6.624  -1.029  0.00  0.00    +0.229 C 
ENDBRANCH   7   9
ENDBRANCH   5   7
ENDBRANCH   4   5
ENDBRANCH   1   4
BRANCH   1  10
ATOM     10  C   UNL     1      -1.379   2.203   1.127  0.00  0.00    +0.193 C 
BRANCH  10  11
ATOM     11  C   UNL     1      -0.856   1.268   2.186  0.00  0.00    -0.018 A 
ATOM     12  C   UNL     1       0.507   1.091   2.338  0.00  0.00    +0.009 A 
ATOM     13  C   UNL     1       0.990   0.238   3.312  0.00  0.00    +0.046 A 
ATOM     14  C   UNL     1       0.106  -0.451   4.129  0.00  0.00    +0.117 A 
ATOM     15  C   UNL     1      -1.261  -0.277   3.971  0.00  0.00    +0.046 A 
ATOM     16  C   UNL     1      -1.739   0.582   3.000  0.00  0.00    +0.009 A 
BRANCH  14  17
ATOM     17  O   UNL     1       0.578  -1.296   5.083  0.00  0.00    -0.507 OA
ATOM     18  H   UNL     1       0.697  -2.206   4.779  0.00  0.00    +0.292 HD
ENDBRANCH  14  17
ENDBRANCH  10  11
BRANCH  10  19
ATOM     19  C   UNL     1      -1.583   3.572   1.724  0.00  0.00    +0.238 C 
ATOM     20  O   UNL     1      -0.646   4.336   1.824  0.00  0.00    -0.273 OA
ATOM     21  N   UNL     1      -2.807   3.949   2.145  0.00  0.00    -0.309 N 
ATOM     22  H   UNL     1      -3.557   3.338   2.064  0.00  0.00    +0.149 HD
BRANCH  21  23
ATOM     23  C   UNL     1      -3.005   5.280   2.724  0.00  0.00    +0.026 C 
ATOM     24  C   UNL     1      -2.624   6.346   1.695  0.00  0.00    +0.031 C 
ATOM     25  C   UNL     1      -4.474   5.451   3.117  0.00  0.00    +0.031 C 
ATOM     26  C   UNL     1      -2.124   5.432   3.966  0.00  0.00    +0.031 C 
ENDBRANCH  21  23
ENDBRANCH  10  19
ENDBRANCH   1  10
BRANCH   2  27
ATOM     27  C   UNL     1       0.337   1.735  -2.262  0.00  0.00    +0.264 C 
BRANCH  27  28
ATOM     28  N   UNL     1      -0.150   0.954  -3.402  0.00  0.00    -0.154 N 
ATOM     29  N   UNL     1       0.106  -0.291  -3.616  0.00  0.00    -0.130 NA
ATOM     30  C   UNL     1      -0.505  -0.643  -4.730  0.00  0.00    +0.205 A 
ATOM     31  N   UNL     1      -1.135   0.450  -5.184  0.00  0.00    -0.108 NA
ATOM     32  N   UNL     1      -0.896   1.404  -4.349  0.00  0.00    -0.045 NA
BRANCH  30  33
ATOM     33  C   UNL     1      -0.492  -1.986  -5.362  0.00  0.00    +0.023 A 
ATOM     34  C   UNL     1       0.217  -3.029  -4.771  0.00  0.00    +0.013 A 
ATOM     35  C   UNL     1       0.221  -4.278  -5.360  0.00  0.00    +0.021 A 
ATOM     36  C   UNL     1      -0.469  -4.491  -6.541  0.00  0.00    +0.041 A 
ATOM     37  C   UNL     1      -1.171  -3.456  -7.134  0.00  0.00    +0.021 A 
ATOM     38  C   UNL     1      -1.186  -2.205  -6.550  0.00  0.00    +0.013 A 
ATOM     39 CL   UNL     1      -0.455  -6.061  -7.280  0.00  0.00    -0.084 Cl
ENDBRANCH  30  33
ENDBRANCH  27  28
ENDBRANCH   2  27
TORSDOF 12
