REMARK  Name = ZINC16016675
REMARK  7 active torsions:
REMARK  status: ('A' for Active; 'I' for Inactive)
REMARK    1  A    between atoms: C_1  and  C_2
REMARK    2  A    between atoms: N_7  and  S_9
REMARK    3  A    between atoms: S_9  and  C_12
REMARK    4  A    between atoms: C_15  and  N_18
REMARK    5  A    between atoms: C_19  and  C_21
REMARK    6  A    between atoms: C_22  and  C_23
REMARK    7  A    between atoms: C_27  and  N_29
REMARK                            x       y       z     vdW  Elec       q    Type
REMARK                         _______ _______ _______ _____ _____    ______ ____
ROOT
ATOM      1  C   UNL     1      -2.339  12.254  -0.183  0.00  0.00    +0.106 A 
ATOM      2  C   UNL     1      -3.552  11.599  -0.079  0.00  0.00    +0.030 A 
ATOM      3  C   UNL     1      -3.590  10.221   0.004  0.00  0.00    +0.025 A 
ATOM      4  C   UNL     1      -2.408   9.492  -0.017  0.00  0.00    +0.034 A 
ATOM      5  C   UNL     1      -1.190  10.153  -0.115  0.00  0.00    +0.025 A 
ATOM      6  C   UNL     1      -1.159  11.531  -0.204  0.00  0.00    +0.030 A 
ENDROOT
BRANCH   4   7
ATOM      7  N   UNL     1      -2.443   8.097   0.067  0.00  0.00    -0.282 N 
ATOM      8  C   UNL     1      -3.449   7.412  -0.513  0.00  0.00    +0.241 C 
ATOM      9  O   UNL     1      -4.370   8.011  -1.036  0.00  0.00    -0.270 OA
ATOM     10  H   UNL     1      -1.743   7.622   0.541  0.00  0.00    +0.155 HD
BRANCH   8  11
ATOM     11  C   UNL     1      -3.433   5.949  -0.513  0.00  0.00    +0.068 C 
ATOM     12  C   UNL     1      -4.439   5.264  -1.093  0.00  0.00    +0.013 C 
BRANCH  12  13
ATOM     13  C   UNL     1      -4.423   3.792  -1.093  0.00  0.00    -0.023 A 
ATOM     14  C   UNL     1      -3.366   3.100  -0.492  0.00  0.00    +0.008 A 
ATOM     15  C   UNL     1      -3.361   1.722  -0.492  0.00  0.00    +0.003 A 
ATOM     16  C   UNL     1      -4.394   1.022  -1.092  0.00  0.00    +0.033 A 
ATOM     17  C   UNL     1      -5.443   1.699  -1.688  0.00  0.00    +0.127 A 
ATOM     18  C   UNL     1      -5.465   3.078  -1.693  0.00  0.00    +0.040 A 
BRANCH  17  19
ATOM     19  N   UNL     1      -6.545   0.941  -2.323  0.00  0.00    +0.056 N 
ATOM     20  O   UNL     1      -6.527  -0.277  -2.320  0.00  0.00    -0.126 OA
ATOM     21  O   UNL     1      -7.470   1.535  -2.848  0.00  0.00    -0.126 OA
ENDBRANCH  17  19
ENDBRANCH  12  13
ENDBRANCH   8  11
ENDBRANCH   4   7
BRANCH   1  22
ATOM     22  S   UNL     1      -2.295  14.012  -0.288  0.00  0.00    +0.061 S 
ATOM     23  O   UNL     1      -1.071  14.350  -0.926  0.00  0.00    -0.153 OA
ATOM     24  O   UNL     1      -3.557  14.420  -0.797  0.00  0.00    -0.153 OA
BRANCH  22  30
ATOM     25  C   UNL     1      -4.547  14.551   4.228  0.00  0.00    +0.009 C 
ATOM     26  C   UNL     1      -3.353  14.147   3.362  0.00  0.00    +0.002 C 
ATOM     27  C   UNL     1      -2.053  14.510   4.083  0.00  0.00    +0.006 C 
ATOM     28  C   UNL     1      -0.857  14.076   3.232  0.00  0.00    +0.017 C 
ATOM     29  C   UNL     1      -0.891  14.820   1.893  0.00  0.00    +0.109 C 
ATOM     30  N   UNL     1      -2.197  14.593   1.260  0.00  0.00    -0.176 NA
ATOM     31  C   UNL     1      -3.415  14.897   2.023  0.00  0.00    +0.112 C 
ENDBRANCH  22  30
ENDBRANCH   1  22
TORSDOF 6
