REMARK  Name = ZINC19417329
REMARK  12 active torsions:
REMARK  status: ('A' for Active; 'I' for Inactive)
REMARK    1  A    between atoms: C_1  and  C_2
REMARK    2  A    between atoms: C_2  and  C_3
REMARK    3  A    between atoms: C_3  and  C_30
REMARK    4  A    between atoms: N_6  and  N_10
REMARK    5  A    between atoms: C_11  and  C_13
REMARK    6  A    between atoms: C_13  and  S_14
REMARK    7  A    between atoms: S_14  and  C_15
REMARK    8  A    between atoms: C_18  and  C_20
REMARK    9  A    between atoms: C_23  and  C_26
REMARK   10  A    between atoms: C_26  and  C_27
REMARK   11  A    between atoms: C_26  and  C_28
REMARK   12  A    between atoms: C_26  and  C_29
REMARK                            x       y       z     vdW  Elec       q    Type
REMARK                         _______ _______ _______ _____ _____    ______ ____
ROOT
ATOM      1  C   UNL     1      -5.118  -0.796   4.523  0.00  0.00    +0.176 C 
ENDROOT
BRANCH   1   3
ATOM      2  N   UNL     1      -3.211  -0.478   2.981  0.00  0.00    -0.223 N 
ATOM      3  C   UNL     1      -3.936  -0.011   4.016  0.00  0.00    +0.240 C 
ATOM      4  O   UNL     1      -3.638   1.042   4.539  0.00  0.00    -0.273 OA
ATOM      5  H   UNL     1      -3.481  -1.433   2.506  0.00  0.00    +0.174 HD
BRANCH   2   9
ATOM      6  C   UNL     1      -0.729   1.579   1.267  0.00  0.00    +0.111 C 
ATOM      7  C   UNL     1      -2.112   0.968   1.368  0.00  0.00    +0.263 C 
ATOM      8  O   UNL     1      -3.029   1.097   0.585  0.00  0.00    -0.271 OA
ATOM      9  N   UNL     1      -2.112   0.252   2.509  0.00  0.00    -0.137 N 
ATOM     10  C   UNL     1      -0.933   0.325   3.137  0.00  0.00    +0.326 C 
ATOM     11  O   UNL     1      -0.690  -0.237   4.187  0.00  0.00    -0.251 OA
ATOM     12  N   UNL     1      -0.045   1.091   2.477  0.00  0.00    -0.284 N 
ATOM     13  C   UNL     1      -0.013   1.086   0.008  0.00  0.00    +0.041 C 
ATOM     14  H   UNL     1       0.997   1.380   2.675  0.00  0.00    +0.151 HD
BRANCH   6  16
ATOM     15  C   UNL     1       0.603   3.693   1.227  0.00  0.00    +0.006 C 
ATOM     16  C   UNL     1      -0.810   3.107   1.274  0.00  0.00    +0.032 C 
ENDBRANCH   6  16
ENDBRANCH   2   9
ENDBRANCH   1   3
BRANCH   1  17
ATOM     17  S   UNL     1      -5.880   0.086   5.907  0.00  0.00    -0.056 S 
BRANCH  17  18
ATOM     18  C   UNL     1      -7.194  -1.023   6.292  0.00  0.00    +0.278 A 
ATOM     19  N   UNL     1      -7.464  -2.151   5.676  0.00  0.00    -0.101 NA
ATOM     20  N   UNL     1      -8.489  -2.703   6.223  0.00  0.00    -0.106 NA
ATOM     21  C   UNL     1      -8.920  -1.946   7.203  0.00  0.00    +0.249 A 
ATOM     22  O   UNL     1      -8.110  -0.867   7.267  0.00  0.00    -0.411 OA
BRANCH  21  23
ATOM     23  C   UNL     1     -10.079  -2.223   8.077  0.00  0.00    +0.039 A 
ATOM     24  C   UNL     1     -10.422  -1.327   9.091  0.00  0.00    +0.013 A 
ATOM     25  C   UNL     1     -11.508  -1.589   9.901  0.00  0.00    +0.005 A 
ATOM     26  C   UNL     1     -12.250  -2.742   9.716  0.00  0.00    -0.042 A 
ATOM     27  C   UNL     1     -11.912  -3.637   8.716  0.00  0.00    +0.005 A 
ATOM     28  C   UNL     1     -10.832  -3.385   7.896  0.00  0.00    +0.013 A 
BRANCH  26  29
ATOM     29  C   UNL     1     -13.431  -3.025  10.609  0.00  0.00    -0.013 C 
ATOM     30  C   UNL     1     -13.205  -4.344  11.351  0.00  0.00    +0.015 C 
ATOM     31  C   UNL     1     -13.587  -1.890  11.622  0.00  0.00    +0.015 C 
ATOM     32  C   UNL     1     -14.699  -3.129   9.759  0.00  0.00    +0.015 C 
ENDBRANCH  26  29
ENDBRANCH  21  23
ENDBRANCH  17  18
ENDBRANCH   1  17
TORSDOF 7
