REMARK  Name = ZINC12418890
REMARK  8 active torsions:
REMARK  status: ('A' for Active; 'I' for Inactive)
REMARK    1  A    between atoms: C_1  and  C_2
REMARK    2  A    between atoms: C_5  and  O_8
REMARK    3  A    between atoms: O_8  and  C_9
REMARK    4  A    between atoms: C_9  and  C_10
REMARK    5  A    between atoms: C_13  and  C_15
REMARK    6  A    between atoms: C_17  and  C_29
REMARK    7  A    between atoms: C_18  and  N_20
REMARK    8  A    between atoms: C_23  and  C_26
REMARK                            x       y       z     vdW  Elec       q    Type
REMARK                         _______ _______ _______ _____ _____    ______ ____
ROOT
ATOM      1  C   UNL     1      -3.223   1.327  -3.834  0.00  0.00    +0.266 A 
ATOM      2  N   UNL     1      -3.617   2.060  -4.846  0.00  0.00    -0.194 NA
ATOM      3  C   UNL     1      -4.623   1.408  -5.487  0.00  0.00    +0.201 A 
ATOM      4  C   UNL     1      -4.836   0.221  -4.802  0.00  0.00    +0.228 A 
ATOM      5  O   UNL     1      -3.956   0.197  -3.784  0.00  0.00    -0.417 OA
ENDROOT
BRANCH   4   6
ATOM      6  N   UNL     1      -5.769  -0.747  -5.105  0.00  0.00    -0.299 N 
ATOM      7  C   UNL     1      -7.121  -0.177  -5.156  0.00  0.00    +0.109 C 
ATOM      8  C   UNL     1      -8.108  -1.244  -5.636  0.00  0.00    +0.032 C 
ATOM      9  C   UNL     1      -8.072  -2.435  -4.675  0.00  0.00    +0.078 C 
ATOM     10  C   UNL     1      -6.643  -2.979  -4.603  0.00  0.00    +0.032 C 
ATOM     11  C   UNL     1      -5.698  -1.862  -4.153  0.00  0.00    +0.109 C 
BRANCH   9  12
ATOM     12  C   UNL     1      -8.998  -3.514  -5.173  0.00  0.00    +0.214 C 
ATOM     13  O   UNL     1      -8.559  -4.612  -5.444  0.00  0.00    -0.276 OA
ATOM     14  N   UNL     1     -10.313  -3.260  -5.317  0.00  0.00    -0.329 N 
ATOM     15  H   UNL     1     -10.665  -2.383  -5.100  0.00  0.00    +0.145 HD
ATOM     16  H   UNL     1     -10.909  -3.955  -5.638  0.00  0.00    +0.145 HD
ENDBRANCH   9  12
ENDBRANCH   4   6
BRANCH   1  20
ATOM     17  C   UNL     1      -0.742   1.585  -1.213  0.00  0.00    +0.143 A 
ATOM     18  C   UNL     1      -0.505   2.751  -1.847  0.00  0.00    +0.049 A 
ATOM     19  C   UNL     1      -1.400   2.822  -2.931  0.00  0.00    +0.055 A 
ATOM     20  C   UNL     1      -2.151   1.685  -2.894  0.00  0.00    +0.190 A 
ATOM     21  O   UNL     1      -1.738   0.945  -1.845  0.00  0.00    -0.451 OA
BRANCH  17  22
ATOM     22  C   UNL     1      -0.013   1.086   0.008  0.00  0.00    +0.303 C 
BRANCH  22  23
ATOM     23  O   UNL     1      -0.682   1.547   1.184  0.00  0.00    -0.484 OA
BRANCH  23  28
ATOM     24  C   UNL     1       1.527   0.036   6.140  0.00  0.00    +0.044 C 
ATOM     25  C   UNL     1       0.936   0.440   4.814  0.00  0.00    -0.050 A 
ATOM     26  C   UNL     1      -0.203   1.223   4.776  0.00  0.00    +0.007 A 
ATOM     27  C   UNL     1      -0.747   1.595   3.561  0.00  0.00    +0.046 A 
ATOM     28  C   UNL     1      -0.149   1.182   2.380  0.00  0.00    +0.121 A 
ATOM     29  C   UNL     1       0.991   0.392   2.421  0.00  0.00    +0.046 A 
ATOM     30  C   UNL     1       1.534   0.028   3.638  0.00  0.00    +0.007 A 
ENDBRANCH  23  28
ENDBRANCH  22  23
ENDBRANCH  17  22
ENDBRANCH   1  20
BRANCH   3  31
ATOM     31  C   UNL     1      -5.331   1.862  -6.646  0.00  0.00    +0.124 C 
ATOM     32  N   UNL     1      -5.893   2.222  -7.566  0.00  0.00    -0.189 NA
ENDBRANCH   3  31
TORSDOF 7
