REMARK  Name = ZINC15901132
REMARK  7 active torsions:
REMARK  status: ('A' for Active; 'I' for Inactive)
REMARK    1  A    between atoms: N_10  and  C_11
REMARK    2  A    between atoms: C_11  and  C_12
REMARK    3  A    between atoms: N_14  and  N_15
REMARK    4  A    between atoms: C_16  and  C_18
REMARK    5  A    between atoms: C_21  and  S_24
REMARK    6  A    between atoms: S_24  and  N_27
REMARK    7  A    between atoms: N_27  and  C_28
REMARK                            x       y       z     vdW  Elec       q    Type
REMARK                         _______ _______ _______ _____ _____    ______ ____
ROOT
ATOM      1  N   UNL     1       1.951   2.102   0.374  0.00  0.00    -0.230 N 
ATOM      2  C   UNL     1       0.864   1.320   0.532  0.00  0.00    +0.260 C 
ATOM      3  O   UNL     1       0.993   0.117   0.648  0.00  0.00    -0.269 OA
ATOM      4  H   UNL     1       1.848   3.062   0.282  0.00  0.00    +0.173 HD
ENDROOT
BRANCH   2   5
ATOM      5  C   UNL     1      -0.484   1.925   0.559  0.00  0.00    +0.038 A 
ATOM      6  C   UNL     1      -0.635   3.307   0.432  0.00  0.00    +0.015 A 
ATOM      7  C   UNL     1      -1.897   3.865   0.452  0.00  0.00    +0.029 A 
ATOM      8  C   UNL     1      -3.011   3.059   0.608  0.00  0.00    +0.109 A 
ATOM      9  C   UNL     1      -2.868   1.689   0.740  0.00  0.00    +0.029 A 
ATOM     10  C   UNL     1      -1.612   1.118   0.716  0.00  0.00    +0.015 A 
BRANCH   8  11
ATOM     11  S   UNL     1      -4.618   3.780   0.640  0.00  0.00    +0.072 S 
ATOM     12  O   UNL     1      -4.521   5.019  -0.049  0.00  0.00    -0.150 OA
ATOM     13  O   UNL     1      -5.528   2.760   0.250  0.00  0.00    -0.150 OA
BRANCH  11  14
ATOM     14  N   UNL     1      -4.961   4.142   2.219  0.00  0.00    -0.215 N 
ATOM     15  H   UNL     1      -5.729   3.738   2.654  0.00  0.00    +0.174 HD
BRANCH  14  16
ATOM     16  C   UNL     1      -4.146   5.030   2.925  0.00  0.00    +0.066 A 
ATOM     17  C   UNL     1      -3.574   6.116   2.276  0.00  0.00    +0.026 A 
ATOM     18  C   UNL     1      -2.772   6.995   2.979  0.00  0.00    +0.002 A 
ATOM     19  C   UNL     1      -2.529   6.788   4.324  0.00  0.00    +0.002 A 
ATOM     20  C   UNL     1      -3.092   5.705   4.973  0.00  0.00    +0.022 A 
ATOM     21  C   UNL     1      -3.900   4.824   4.278  0.00  0.00    +0.063 A 
ATOM     22 CL   UNL     1      -4.606   3.464   5.093  0.00  0.00    -0.082 Cl
ENDBRANCH  14  16
ENDBRANCH  11  14
ENDBRANCH   8  11
ENDBRANCH   2   5
BRANCH   1  25
ATOM     23  C   UNL     1       4.315   2.310   0.186  0.00  0.00    +0.246 C 
ATOM     24  O   UNL     1       4.186   3.511   0.070  0.00  0.00    -0.273 OA
ATOM     25  N   UNL     1       3.228   1.528   0.344  0.00  0.00    -0.233 N 
ATOM     26  H   UNL     1       3.331   0.568   0.436  0.00  0.00    +0.173 HD
BRANCH  23  27
ATOM     27  C   UNL     1       5.689   1.693   0.152  0.00  0.00    +0.202 C 
BRANCH  27  37
ATOM     28  C   UNL     1       5.720   4.514  -3.806  0.00  0.00    +0.000 A 
ATOM     29  C   UNL     1       5.462   3.173  -3.585  0.00  0.00    +0.002 A 
ATOM     30  C   UNL     1       5.785   2.601  -2.373  0.00  0.00    +0.023 A 
ATOM     31  C   UNL     1       6.373   3.366  -1.364  0.00  0.00    +0.033 A 
ATOM     32  C   UNL     1       6.624   4.708  -1.589  0.00  0.00    -0.026 A 
ATOM     33  C   UNL     1       6.298   5.277  -2.811  0.00  0.00    +0.005 A 
ATOM     34  C   UNL     1       7.248   5.592  -0.538  0.00  0.00    +0.038 C 
ATOM     35  C   UNL     1       7.874   4.726   0.557  0.00  0.00    +0.024 C 
ATOM     36  C   UNL     1       6.850   3.655   0.955  0.00  0.00    +0.106 C 
ATOM     37  N   UNL     1       6.683   2.727  -0.165  0.00  0.00    -0.321 N 
ENDBRANCH  27  37
ENDBRANCH  23  27
ENDBRANCH   1  25
TORSDOF 7
