REMARK  Name = ZINC04601248
REMARK  6 active torsions:
REMARK  status: ('A' for Active; 'I' for Inactive)
REMARK    1  A    between atoms: C_1  and  C_2
REMARK    2  A    between atoms: C_2  and  C_4
REMARK    3  A    between atoms: C_2  and  S_14
REMARK    4  A    between atoms: S_14  and  C_15
REMARK    5  A    between atoms: C_18  and  C_21
REMARK    6  A    between atoms: N_19  and  N_20
REMARK                            x       y       z     vdW  Elec       q    Type
REMARK                         _______ _______ _______ _____ _____    ______ ____
ROOT
ATOM      1  S   UNL     1       3.532   8.000  -0.392  0.00  0.00    -0.072 S 
ENDROOT
BRANCH   1   2
ATOM      2  C   UNL     1       2.175   6.905  -0.136  0.00  0.00    +0.209 A 
ATOM      3  N   UNL     1       0.957   7.244   0.216  0.00  0.00    -0.121 NA
ATOM      4  N   UNL     1       0.216   6.198   0.314  0.00  0.00    -0.126 NA
ATOM      5  C   UNL     1       0.918   5.123   0.029  0.00  0.00    +0.188 A 
ATOM      6  N   UNL     1       2.197   5.543  -0.263  0.00  0.00    -0.223 N 
BRANCH   5   7
ATOM      7  C   UNL     1       0.431   3.735   0.028  0.00  0.00    +0.058 A 
ATOM      8  C   UNL     1      -0.860   3.271   0.039  0.00  0.00    +0.019 A 
ATOM      9  C   UNL     1      -1.074   1.911   0.029  0.00  0.00    +0.008 A 
ATOM     10  C   UNL     1      -0.005   1.073   0.021  0.00  0.00    +0.046 A 
ATOM     11  S   UNL     1       1.367   2.214   0.012  0.00  0.00    -0.093 S 
ENDBRANCH   5   7
BRANCH   6  12
ATOM     12  N   UNL     1       3.263   4.763  -0.610  0.00  0.00    -0.295 N 
ATOM     13  H   UNL     1       3.311   4.640  -1.610  0.00  0.00    +0.163 HD
ATOM     14  H   UNL     1       4.125   5.148  -0.252  0.00  0.00    +0.163 HD
ENDBRANCH   6  12
ENDBRANCH   1   2
BRANCH   1  16
ATOM     15  C   UNL     1       1.649   9.855  -1.080  0.00  0.00    +0.029 C 
ATOM     16  C   UNL     1       2.731   9.582  -0.033  0.00  0.00    +0.137 C 
BRANCH  16  17
ATOM     17  C   UNL     1       3.757  10.685  -0.073  0.00  0.00    +0.231 C 
ATOM     18  O   UNL     1       4.767  10.550  -0.731  0.00  0.00    -0.274 OA
ATOM     19  N   UNL     1       3.552  11.821   0.623  0.00  0.00    -0.269 N 
ATOM     20  C   UNL     1       4.547  12.797   0.673  0.00  0.00    +0.125 A 
ATOM     21  C   UNL     1       4.373  13.918   1.477  0.00  0.00    +0.045 A 
ATOM     22  C   UNL     1       5.367  14.879   1.517  0.00  0.00    +0.025 A 
ATOM     23  C   UNL     1       6.508  14.685   0.748  0.00  0.00    +0.059 A 
ATOM     24  C   UNL     1       6.614  13.547  -0.028  0.00  0.00    +0.132 A 
ATOM     25  N   UNL     1       5.651  12.645  -0.042  0.00  0.00    -0.239 NA
ATOM     26 CL   UNL     1       7.785  15.860   0.762  0.00  0.00    -0.082 Cl
ATOM     27  H   UNL     1       2.713  11.960   1.089  0.00  0.00    +0.156 HD
ENDBRANCH  16  17
ENDBRANCH   1  16
TORSDOF 5
