REMARK  Name = ZINC04124932
REMARK  7 active torsions:
REMARK  status: ('A' for Active; 'I' for Inactive)
REMARK    1  A    between atoms: C_5  and  C_7
REMARK    2  A    between atoms: C_7  and  N_8
REMARK    3  A    between atoms: C_15  and  C_18
REMARK    4  A    between atoms: C_15  and  O_28
REMARK    5  A    between atoms: C_18  and  C_19
REMARK    6  A    between atoms: C_19  and  C_21
REMARK    7  A    between atoms: C_24  and  N_27
REMARK                            x       y       z     vdW  Elec       q    Type
REMARK                         _______ _______ _______ _____ _____    ______ ____
ROOT
ATOM      1  N   UNL     1       2.736   4.399  -1.360  0.00  0.00    -0.264 N 
ATOM      2  C   UNL     1       3.387   3.628  -2.325  0.00  0.00    +0.043 A 
ATOM      3  C   UNL     1       3.894   2.331  -2.264  0.00  0.00    +0.025 A 
ATOM      4  C   UNL     1       4.506   1.774  -3.367  0.00  0.00    +0.017 A 
ATOM      5  C   UNL     1       4.621   2.496  -4.542  0.00  0.00    +0.018 A 
ATOM      6  C   UNL     1       4.109   3.781  -4.613  0.00  0.00    +0.024 A 
ATOM      7  C   UNL     1       3.504   4.341  -3.511  0.00  0.00    +0.016 A 
ATOM      8  C   UNL     1       2.874   5.691  -3.259  0.00  0.00    +0.175 C 
ATOM      9  C   UNL     1       2.406   5.617  -1.821  0.00  0.00    +0.257 C 
ATOM     10  O   UNL     1       1.841   6.493  -1.201  0.00  0.00    -0.272 OA
ATOM     11 BR   UNL     1       5.462   1.726  -6.051  0.00  0.00    -0.050 Br
ENDROOT
BRANCH   8  12
ATOM     12  O   UNL     1       1.765   5.898  -4.136  0.00  0.00    -0.374 OA
ATOM     13  H   UNL     1       1.287   6.723  -3.978  0.00  0.00    +0.211 HD
ENDBRANCH   8  12
BRANCH   1  14
ATOM     14  C   UNL     1       2.452   3.936   0.000  0.00  0.00    +0.150 C 
BRANCH  14  19
ATOM     15  C   UNL     1      -0.813   2.411  -1.126  0.00  0.00    +0.000 A 
ATOM     16  C   UNL     1      -1.236   1.779   0.029  0.00  0.00    +0.001 A 
ATOM     17  C   UNL     1      -0.462   1.836   1.172  0.00  0.00    +0.020 A 
ATOM     18  C   UNL     1       0.732   2.537   1.164  0.00  0.00    +0.046 A 
ATOM     19  C   UNL     1       1.152   3.174   0.010  0.00  0.00    -0.011 A 
ATOM     20  C   UNL     1       0.379   3.111  -1.135  0.00  0.00    +0.006 A 
ATOM     21 CL   UNL     1       1.702   2.616   2.601  0.00  0.00    -0.083 Cl
ENDBRANCH  14  19
ENDBRANCH   1  14
BRANCH   8  22
ATOM     22  C   UNL     1       3.909   6.806  -3.429  0.00  0.00    +0.129 C 
BRANCH  22  23
ATOM     23  C   UNL     1       3.321   8.113  -2.964  0.00  0.00    +0.167 C 
ATOM     24  O   UNL     1       2.185   8.150  -2.538  0.00  0.00    -0.292 OA
BRANCH  23  25
ATOM     25  C   UNL     1       4.121   9.341  -3.027  0.00  0.00    +0.018 A 
ATOM     26  C   UNL     1       5.435   9.300  -3.513  0.00  0.00    +0.013 A 
ATOM     27  C   UNL     1       6.174  10.446  -3.575  0.00  0.00    +0.023 A 
ATOM     28  C   UNL     1       5.628  11.653  -3.144  0.00  0.00    +0.025 A 
ATOM     29  C   UNL     1       4.325  11.698  -2.655  0.00  0.00    +0.023 A 
ATOM     30  C   UNL     1       3.576  10.557  -2.595  0.00  0.00    +0.013 A 
BRANCH  28  31
ATOM     31  N   UNL     1       6.386  12.816  -3.204  0.00  0.00    -0.358 N 
ATOM     32  H   UNL     1       6.007  13.657  -2.905  0.00  0.00    +0.142 HD
ATOM     33  H   UNL     1       7.293  12.787  -3.545  0.00  0.00    +0.142 HD
ENDBRANCH  28  31
ENDBRANCH  23  25
ENDBRANCH  22  23
ENDBRANCH   8  22
TORSDOF 7
