REMARK  Name = ZINC58915681
REMARK  6 active torsions:
REMARK  status: ('A' for Active; 'I' for Inactive)
REMARK    1  A    between atoms: C_1  and  C_2
REMARK    2  A    between atoms: C_2  and  C_4
REMARK    3  A    between atoms: C_2  and  N_14
REMARK    4  A    between atoms: C_7  and  N_10
REMARK    5  A    between atoms: C_15  and  C_17
REMARK    6  A    between atoms: C_23  and  C_25
REMARK                            x       y       z     vdW  Elec       q    Type
REMARK                         _______ _______ _______ _____ _____    ______ ____
ROOT
ATOM      1  N   UNL     1      -1.314   0.215   0.258  0.00  0.00    -0.309 N 
ATOM      2  C   UNL     1      -1.935  -0.150   1.397  0.00  0.00    +0.217 C 
ATOM      3  O   UNL     1      -1.425   0.090   2.470  0.00  0.00    -0.275 OA
ATOM      4  H   UNL     1      -1.722   0.024  -0.601  0.00  0.00    +0.149 HD
ENDROOT
BRANCH   2   5
ATOM      5  C   UNL     1      -3.264  -0.858   1.336  0.00  0.00    +0.078 C 
ATOM      6  C   UNL     1      -4.285   0.035   0.626  0.00  0.00    +0.032 C 
ATOM      7  C   UNL     1      -5.625  -0.701   0.535  0.00  0.00    +0.109 C 
ATOM      8  N   UNL     1      -6.027  -1.121   1.885  0.00  0.00    -0.297 N 
ATOM      9  C   UNL     1      -5.082  -1.908   2.690  0.00  0.00    +0.109 C 
ATOM     10  C   UNL     1      -3.748  -1.158   2.756  0.00  0.00    +0.032 C 
ATOM     11  C   UNL     1      -7.238  -0.791   2.375  0.00  0.00    +0.247 C 
ATOM     12  O   UNL     1      -7.522  -1.061   3.526  0.00  0.00    -0.270 OA
BRANCH  11  13
ATOM     13  C   UNL     1      -8.221  -0.101   1.514  0.00  0.00    +0.037 A 
ATOM     14  C   UNL     1      -8.270  -0.378   0.146  0.00  0.00    +0.014 A 
ATOM     15  C   UNL     1      -9.190   0.270  -0.652  0.00  0.00    +0.016 A 
ATOM     16  C   UNL     1     -10.063   1.192  -0.100  0.00  0.00    +0.018 A 
ATOM     17  C   UNL     1     -10.019   1.470   1.256  0.00  0.00    +0.016 A 
ATOM     18  C   UNL     1      -9.107   0.825   2.066  0.00  0.00    +0.014 A 
ATOM     19 BR   UNL     1     -11.320   2.075  -1.202  0.00  0.00    -0.050 Br
ENDBRANCH  11  13
ENDBRANCH   2   5
BRANCH   1  21
ATOM     20  C   UNL     1      -0.251   2.405   0.502  0.00  0.00    +0.033 C 
ATOM     21  C   UNL     1      -0.021   0.903   0.318  0.00  0.00    +0.100 C 
BRANCH  21  22
ATOM     22  C   UNL     1       0.734   0.664  -0.964  0.00  0.00    -0.027 A 
ATOM     23  C   UNL     1       0.064   0.681  -2.174  0.00  0.00    +0.007 A 
ATOM     24  C   UNL     1       0.753   0.462  -3.350  0.00  0.00    +0.023 A 
ATOM     25  C   UNL     1       2.121   0.225  -3.318  0.00  0.00    +0.035 A 
ATOM     26  C   UNL     1       2.791   0.208  -2.102  0.00  0.00    +0.023 A 
ATOM     27  C   UNL     1       2.097   0.434  -0.929  0.00  0.00    +0.007 A 
BRANCH  25  28
ATOM     28  N   UNL     1       2.823   0.003  -4.508  0.00  0.00    -0.270 N 
ATOM     29  C   UNL     1       2.373   0.529  -5.664  0.00  0.00    +0.301 C 
ATOM     30  O   UNL     1       1.410   1.272  -5.660  0.00  0.00    -0.253 OA
ATOM     31  N   UNL     1       2.989   0.232  -6.825  0.00  0.00    -0.313 N 
ATOM     32  H   UNL     1       3.633  -0.530  -4.501  0.00  0.00    +0.156 HD
ATOM     33  H   UNL     1       3.757  -0.361  -6.829  0.00  0.00    +0.146 HD
ATOM     34  H   UNL     1       2.665   0.610  -7.657  0.00  0.00    +0.146 HD
ENDBRANCH  25  28
ENDBRANCH  21  22
ENDBRANCH   1  21
TORSDOF 5
