REMARK  Name = ZINC35057291
REMARK  13 active torsions:
REMARK  status: ('A' for Active; 'I' for Inactive)
REMARK    1  A    between atoms: C_1  and  C_2
REMARK    2  A    between atoms: C_2  and  C_3
REMARK    3  A    between atoms: C_3  and  C_5
REMARK    4  A    between atoms: C_3  and  C_6
REMARK    5  A    between atoms: C_9  and  O_12
REMARK    6  A    between atoms: O_12  and  C_13
REMARK    7  A    between atoms: C_15  and  N_41
REMARK    8  A    between atoms: C_17  and  O_34
REMARK    9  A    between atoms: C_26  and  C_29
REMARK   10  A    between atoms: O_34  and  C_35
REMARK   11  A    between atoms: C_35  and  C_37
REMARK   12  A    between atoms: C_35  and  C_38
REMARK   13  A    between atoms: C_42  and  C_44
REMARK                            x       y       z     vdW  Elec       q    Type
REMARK                         _______ _______ _______ _____ _____    ______ ____
ROOT
ATOM      1  C   UNL     1      -0.212  -6.702   2.597  0.00  0.00    +0.331 C 
ATOM      2  C   UNL     1       0.018  -8.214   2.604  0.00  0.00    +0.173 C 
ATOM      3  C   UNL     1      -0.733  -8.846   3.782  0.00  0.00    +0.177 C 
ATOM      4  C   UNL     1      -2.211  -8.471   3.670  0.00  0.00    +0.183 C 
ATOM      5  C   UNL     1      -2.330  -6.941   3.673  0.00  0.00    +0.179 C 
ATOM      6  O   UNL     1      -1.615  -6.422   2.553  0.00  0.00    -0.332 OA
ATOM      7  C   UNL     1      -3.812  -6.571   3.603  0.00  0.00    +0.197 C 
ATOM      8  O   UNL     1      -4.488  -7.211   4.693  0.00  0.00    -0.342 OA
ATOM      9  C   UNL     1      -4.345  -8.632   4.722  0.00  0.00    +0.319 C 
ATOM     10  O   UNL     1      -2.959  -8.987   4.770  0.00  0.00    -0.336 OA
ENDROOT
BRANCH   9  11
ATOM     11  C   UNL     1      -5.041  -9.178   5.942  0.00  0.00    +0.161 A 
ATOM     12  C   UNL     1      -6.351  -9.053   6.223  0.00  0.00    +0.050 A 
ATOM     13  C   UNL     1      -6.570  -9.711   7.455  0.00  0.00    +0.041 A 
ATOM     14  C   UNL     1      -5.381 -10.199   7.853  0.00  0.00    +0.195 A 
ATOM     15  O   UNL     1      -4.460  -9.879   6.930  0.00  0.00    -0.463 OA
ENDBRANCH   9  11
BRANCH   2  16
ATOM     16  N   UNL     1      -0.473  -8.787   1.348  0.00  0.00    -0.304 N 
ATOM     17  C   UNL     1       0.318  -8.801   0.258  0.00  0.00    +0.210 C 
ATOM     18  O   UNL     1       1.438  -8.339   0.316  0.00  0.00    -0.276 OA
ATOM     19  C   UNL     1      -0.188  -9.391  -1.033  0.00  0.00    +0.109 C 
ATOM     20  H   UNL     1      -1.369  -9.157   1.302  0.00  0.00    +0.149 HD
ENDBRANCH   2  16
BRANCH   1  21
ATOM     21  O   UNL     1       0.422  -6.130   1.451  0.00  0.00    -0.462 OA
BRANCH  21  25
ATOM     22  C   UNL     1       0.657  -2.014   1.298  0.00  0.00    -0.044 A 
ATOM     23  C   UNL     1       1.179  -2.774   0.268  0.00  0.00    +0.007 A 
ATOM     24  C   UNL     1       1.102  -4.153   0.317  0.00  0.00    +0.046 A 
ATOM     25  C   UNL     1       0.500  -4.774   1.401  0.00  0.00    +0.124 A 
ATOM     26  C   UNL     1      -0.024  -4.010   2.433  0.00  0.00    +0.046 A 
ATOM     27  C   UNL     1       0.061  -2.632   2.382  0.00  0.00    +0.007 A 
BRANCH  22  28
ATOM     28  C   UNL     1       0.742  -0.511   1.242  0.00  0.00    +0.016 C 
ATOM     29  C   UNL     1       2.210  -0.086   1.169  0.00  0.00    +0.012 C 
BRANCH  28  31
ATOM     30  C   UNL     1      -0.019   1.526   0.010  0.00  0.00    +0.004 C 
ATOM     31  C   UNL     1       0.002  -0.004   0.002  0.00  0.00    +0.004 C 
ENDBRANCH  28  31
ENDBRANCH  22  28
ENDBRANCH  21  25
ENDBRANCH   1  21
BRANCH   3  32
ATOM     32  O   UNL     1      -0.590 -10.267   3.736  0.00  0.00    -0.358 OA
BRANCH  32  33
ATOM     33  C   UNL     1       0.545 -10.760   4.451  0.00  0.00    +0.228 C 
ATOM     34  C   UNL     1       0.148 -11.055   5.899  0.00  0.00    +0.050 C 
BRANCH  33  35
ATOM     35  C   UNL     1       1.040 -12.025   3.798  0.00  0.00    +0.384 C 
ATOM     36  O   UNL     1       0.473 -12.464   2.812  0.00  0.00    -0.243 OA
ATOM     37  O   UNL     1       2.007 -12.609   4.256  0.00  0.00    -0.243 OA
ENDBRANCH  33  35
ENDBRANCH  32  33
ENDBRANCH   3  32
TORSDOF 9
