REMARK  Name = ZINC24509468
REMARK  14 active torsions:
REMARK  status: ('A' for Active; 'I' for Inactive)
REMARK    1  A    between atoms: C_1  and  C_2
REMARK    2  A    between atoms: C_3  and  C_28
REMARK    3  A    between atoms: C_4  and  N_10
REMARK    4  A    between atoms: C_6  and  C_7
REMARK    5  A    between atoms: C_11  and  C_13
REMARK    6  A    between atoms: C_13  and  O_14
REMARK    7  A    between atoms: O_14  and  C_15
REMARK    8  A    between atoms: C_15  and  C_17
REMARK    9  A    between atoms: C_18  and  C_22
REMARK   10  A    between atoms: C_28  and  O_30
REMARK   11  A    between atoms: O_30  and  C_31
REMARK   12  A    between atoms: C_31  and  C_32
REMARK   13  A    between atoms: C_32  and  O_33
REMARK   14  A    between atoms: O_33  and  C_34
REMARK                            x       y       z     vdW  Elec       q    Type
REMARK                         _______ _______ _______ _____ _____    ______ ____
ROOT
ATOM      1  N   UNL     1      -1.280  -2.329  -2.491  0.00  0.00    -0.277 N 
ATOM      2  C   UNL     1      -1.323  -3.183  -3.533  0.00  0.00    +0.255 C 
ATOM      3  O   UNL     1      -1.367  -4.379  -3.334  0.00  0.00    -0.272 OA
ATOM      4  H   UNL     1      -1.240  -1.244  -2.671  0.00  0.00    +0.155 HD
ENDROOT
BRANCH   1   8
ATOM      5  C   UNL     1      -1.214  -2.129   2.524  0.00  0.00    +0.046 C 
ATOM      6  C   UNL     1      -1.259  -2.822   1.186  0.00  0.00    -0.015 A 
ATOM      7  C   UNL     1      -1.248  -2.099   0.003  0.00  0.00    +0.091 A 
ATOM      8  C   UNL     1      -1.287  -2.815  -1.198  0.00  0.00    +0.087 A 
ATOM      9  S   UNL     1      -1.345  -4.463  -0.664  0.00  0.00    -0.068 S 
ATOM     10  C   UNL     1      -1.318  -4.186   1.097  0.00  0.00    +0.079 A 
BRANCH  10  11
ATOM     11  C   UNL     1      -1.346  -5.173   2.178  0.00  0.00    +0.248 C 
ATOM     12  O   UNL     1      -1.321  -4.805   3.338  0.00  0.00    -0.270 OA
ATOM     13  N   UNL     1      -1.399  -6.488   1.889  0.00  0.00    -0.325 N 
ATOM     14  H   UNL     1      -1.421  -7.229   2.701  0.00  0.00    +0.145 HD
ATOM     15  H   UNL     1      -1.422  -6.820   0.841  0.00  0.00    +0.145 HD
ENDBRANCH  10  11
BRANCH   7  16
ATOM     16  C   UNL     1      -1.191  -0.632   0.010  0.00  0.00    +0.342 C 
ATOM     17  O   UNL     1      -2.220   0.016   0.023  0.00  0.00    -0.245 OA
BRANCH  16  18
ATOM     18  O   UNL     1       0.002  -0.004   0.002  0.00  0.00    -0.459 OA
BRANCH  18  19
ATOM     19  C   UNL     1      -0.018   1.448   0.010  0.00  0.00    +0.260 C 
BRANCH  19  20
ATOM     20  C   UNL     1       1.418   1.977  -0.001  0.00  0.00    +0.200 C 
BRANCH  20  21
ATOM     21  O   UNL     1       2.050   1.615  -1.230  0.00  0.00    -0.380 OA
ATOM     22  C   UNL     1       3.402   2.063  -1.343  0.00  0.00    +0.194 C 
ENDBRANCH  20  21
ENDBRANCH  19  20
ENDBRANCH  18  19
ENDBRANCH  16  18
ENDBRANCH   7  16
ENDBRANCH   1   8
BRANCH   2  23
ATOM     23  C   UNL     1      -1.315  -2.653  -4.943  0.00  0.00    +0.328 C 
BRANCH  23  24
ATOM     24  O   UNL     1      -1.366  -3.745  -5.863  0.00  0.00    -0.450 OA
BRANCH  24  25
ATOM     25  C   UNL     1      -1.367  -3.440  -7.177  0.00  0.00    +0.376 C 
ATOM     26  O   UNL     1      -1.325  -2.277  -7.532  0.00  0.00    -0.241 OA
BRANCH  25  27
ATOM     27  C   UNL     1      -1.417  -4.506  -8.175  0.00  0.00    +0.219 A 
ATOM     28  C   UNL     1      -1.429  -4.340  -9.554  0.00  0.00    +0.034 A 
ATOM     29  C   UNL     1      -1.479  -5.640 -10.108  0.00  0.00    +0.050 A 
ATOM     30  C   UNL     1      -1.504  -6.509  -9.078  0.00  0.00    +0.196 A 
ATOM     31  O   UNL     1      -1.467  -5.832  -7.924  0.00  0.00    -0.456 OA
BRANCH  28  32
ATOM     32  C   UNL     1      -1.394  -3.057 -10.295  0.00  0.00    -0.014 A 
ATOM     33  C   UNL     1      -2.283  -2.034  -9.966  0.00  0.00    +0.008 A 
ATOM     34  C   UNL     1      -2.241  -0.839 -10.656  0.00  0.00    +0.001 A 
ATOM     35  C   UNL     1      -1.328  -0.661 -11.681  0.00  0.00    +0.000 A 
ATOM     36  C   UNL     1      -0.449  -1.675 -12.016  0.00  0.00    +0.001 A 
ATOM     37  C   UNL     1      -0.476  -2.871 -11.329  0.00  0.00    +0.008 A 
ENDBRANCH  28  32
ENDBRANCH  25  27
ENDBRANCH  24  25
ENDBRANCH  23  24
ENDBRANCH   2  23
TORSDOF 12
