REMARK  Name = ZINC16917085
REMARK  11 active torsions:
REMARK  status: ('A' for Active; 'I' for Inactive)
REMARK    1  A    between atoms: C_1  and  C_2
REMARK    2  A    between atoms: C_2  and  O_3
REMARK    3  A    between atoms: O_3  and  C_4
REMARK    4  A    between atoms: C_6  and  C_16
REMARK    5  A    between atoms: C_9  and  O_10
REMARK    6  A    between atoms: O_10  and  C_11
REMARK    7  A    between atoms: C_11  and  C_13
REMARK    8  A    between atoms: C_11  and  C_14
REMARK    9  A    between atoms: N_20  and  N_24
REMARK   10  A    between atoms: C_25  and  C_27
REMARK   11  A    between atoms: C_31  and  N_33
REMARK                            x       y       z     vdW  Elec       q    Type
REMARK                         _______ _______ _______ _____ _____    ______ ____
ROOT
ATOM      1  C   UNL     1       3.058  -0.603   1.052  0.00  0.00    +0.028 C 
ATOM      2  C   UNL     1       3.957  -0.190   1.982  0.00  0.00    +0.079 C 
ATOM      3  C   UNL     1       3.880   0.942   2.926  0.00  0.00    +0.275 C 
ATOM      4  O   UNL     1       2.913   1.681   2.963  0.00  0.00    -0.267 OA
ATOM      5  N   UNL     1       4.915   1.113   3.731  0.00  0.00    -0.169 N 
ATOM      6  C   UNL     1       5.984   0.292   3.688  0.00  0.00    +0.138 C 
ATOM      7  S   UNL     1       7.407   0.348   4.639  0.00  0.00    -0.026 S 
ATOM      8  S   UNL     1       5.554  -0.872   2.405  0.00  0.00    -0.059 S 
ENDROOT
BRANCH   1  11
ATOM      9  C   UNL     1      -0.480   0.367   0.273  0.00  0.00    +0.162 A 
ATOM     10  C   UNL     1       0.633  -0.405   0.542  0.00  0.00    +0.057 A 
ATOM     11  C   UNL     1       1.870   0.211   0.766  0.00  0.00    -0.020 A 
ATOM     12  C   UNL     1       1.971   1.607   0.715  0.00  0.00    +0.012 A 
ATOM     13  C   UNL     1       0.855   2.368   0.447  0.00  0.00    +0.050 A 
ATOM     14  C   UNL     1      -0.371   1.756   0.225  0.00  0.00    +0.163 A 
BRANCH   9  15
ATOM     15  O   UNL     1      -1.683  -0.228   0.056  0.00  0.00    -0.489 OA
BRANCH  15  17
ATOM     16  C   UNL     1      -3.149  -2.139  -0.149  0.00  0.00    +0.048 C 
ATOM     17  C   UNL     1      -1.722  -1.655   0.120  0.00  0.00    +0.226 C 
ENDBRANCH  15  17
ENDBRANCH   9  15
BRANCH  14  18
ATOM     18  O   UNL     1      -1.467   2.512  -0.045  0.00  0.00    -0.474 OA
BRANCH  18  19
ATOM     19  C   UNL     1      -1.275   3.926  -0.125  0.00  0.00    +0.283 C 
ATOM     20  C   UNL     1      -1.305   4.526   1.282  0.00  0.00    +0.064 C 
BRANCH  19  21
ATOM     21  C   UNL     1      -2.376   4.536  -0.954  0.00  0.00    +0.395 C 
ATOM     22  O   UNL     1      -3.285   3.846  -1.352  0.00  0.00    -0.242 OA
ATOM     23  O   UNL     1      -2.347   5.845  -1.251  0.00  0.00    -0.242 OA
ENDBRANCH  19  21
ENDBRANCH  18  19
ENDBRANCH  14  18
ENDBRANCH   1  11
BRANCH   5  24
ATOM     24  N   UNL     1       4.901   2.171   4.650  0.00  0.00    -0.222 N 
ATOM     25  C   UNL     1       4.683   1.925   5.957  0.00  0.00    +0.261 C 
ATOM     26  O   UNL     1       4.498   0.786   6.339  0.00  0.00    -0.269 OA
ATOM     27  H   UNL     1       5.049   3.080   4.345  0.00  0.00    +0.174 HD
BRANCH  25  28
ATOM     28  C   UNL     1       4.668   3.041   6.926  0.00  0.00    +0.040 A 
ATOM     29  C   UNL     1       4.879   4.351   6.491  0.00  0.00    +0.013 A 
ATOM     30  C   UNL     1       4.864   5.388   7.401  0.00  0.00    +0.003 A 
ATOM     31  C   UNL     1       4.639   5.132   8.742  0.00  0.00    +0.033 A 
ATOM     32  C   UNL     1       4.428   3.837   9.180  0.00  0.00    +0.127 A 
ATOM     33  C   UNL     1       4.436   2.791   8.280  0.00  0.00    +0.045 A 
BRANCH  32  34
ATOM     34  N   UNL     1       4.188   3.573  10.616  0.00  0.00    +0.056 N 
ATOM     35  O   UNL     1       4.177   4.496  11.411  0.00  0.00    -0.126 OA
ATOM     36  O   UNL     1       4.003   2.433  11.003  0.00  0.00    -0.126 OA
ENDBRANCH  32  34
ENDBRANCH  25  28
ENDBRANCH   5  24
TORSDOF 9
