REMARK  Name = ZINC13397825
REMARK  9 active torsions:
REMARK  status: ('A' for Active; 'I' for Inactive)
REMARK    1  A    between atoms: CG_4  and  CB_7
REMARK    2  A    between atoms: CB_7  and  CA_8
REMARK    3  A    between atoms: CA_8  and  C_10
REMARK    4  A    between atoms: CA_8  and  N_12
REMARK    5  A    between atoms: C_13  and  C_15
REMARK    6  A    between atoms: C_15  and  S_16
REMARK    7  A    between atoms: S_16  and  C_17
REMARK    8  A    between atoms: N_27  and  C_28
REMARK    9  A    between atoms: C_28  and  C_29
REMARK                            x       y       z     vdW  Elec       q    Type
REMARK                         _______ _______ _______ _____ _____    ______ ____
ROOT
ATOM      1  C   UNK A   0       0.676   4.272  -2.001  0.00  0.00    +0.173 A 
ATOM      2  N   UNK A   0       0.708   4.720  -3.232  0.00  0.00    -0.223 NA
ATOM      3  C   UNK A   0       1.840   4.675  -3.972  0.00  0.00    +0.080 A 
ATOM      4  C   UNK A   0       1.875   5.152  -5.286  0.00  0.00    +0.048 A 
ATOM      5  C   UNK A   0       3.050   5.085  -6.001  0.00  0.00    +0.043 A 
ATOM      6  C   UNK A   0       4.201   4.550  -5.432  0.00  0.00    +0.021 A 
ATOM      7  C   UNK A   0       4.191   4.077  -4.149  0.00  0.00    +0.017 A 
ATOM      8  C   UNK A   0       3.014   4.133  -3.403  0.00  0.00    +0.065 A 
ATOM      9  C   UNK A   0       2.951   3.643  -2.019  0.00  0.00    +0.263 A 
ATOM     10  O   UNK A   0       3.931   3.170  -1.472  0.00  0.00    -0.267 OA
ATOM     11  N   UNK A   0       1.764   3.734  -1.376  0.00  0.00    -0.280 N 
ATOM     12 CL   UNK A   0       3.096   5.676  -7.633  0.00  0.00    -0.083 Cl
ENDROOT
BRANCH   1  13
ATOM     13  S   UNK A   0      -0.841   4.369  -1.110  0.00  0.00    -0.078 S 
BRANCH  13  14
ATOM     14  C   UNK A   0      -1.896   5.133  -2.368  0.00  0.00    +0.173 C 
BRANCH  14  16
ATOM     15  N   PHE A   1      -4.246   5.873  -2.577  0.00  0.00    -0.301 N 
ATOM     16  C   UNK A   0      -3.285   5.319  -1.813  0.00  0.00    +0.224 C 
ATOM     17  O   UNK A   0      -3.537   4.969  -0.680  0.00  0.00    -0.275 OA
ATOM     18  H   PHE A   1      -4.045   6.153  -3.484  0.00  0.00    +0.150 HD
BRANCH  15  19
ATOM     19  CA  PHE A   1      -5.597   6.054  -2.038  0.00  0.00    +0.191 C 
BRANCH  19  20
ATOM     20  C   PHE A   1      -5.662   7.349  -1.270  0.00  0.00    +0.376 C 
ATOM     21  O   PHE A   1      -4.681   8.049  -1.182  0.00  0.00    -0.244 OA
ATOM     22  OXT PHE A   1      -6.810   7.724  -0.684  0.00  0.00    -0.244 OA
ENDBRANCH  19  20
BRANCH  19  23
ATOM     23  CB  PHE A   1      -6.604   6.092  -3.189  0.00  0.00    +0.069 C 
BRANCH  23  27
ATOM     24  CZ  PHE A   1      -6.669   2.299  -5.153  0.00  0.00    +0.000 A 
ATOM     25  CE1 PHE A   1      -7.521   2.543  -4.092  0.00  0.00    +0.000 A 
ATOM     26  CD1 PHE A   1      -7.500   3.771  -3.457  0.00  0.00    +0.004 A 
ATOM     27  CG  PHE A   1      -6.627   4.754  -3.882  0.00  0.00    -0.045 A 
ATOM     28  CD2 PHE A   1      -5.779   4.512  -4.946  0.00  0.00    +0.004 A 
ATOM     29  CE2 PHE A   1      -5.796   3.283  -5.578  0.00  0.00    +0.000 A 
ENDBRANCH  23  27
ENDBRANCH  19  23
ENDBRANCH  15  19
ENDBRANCH  14  16
ENDBRANCH  13  14
ENDBRANCH   1  13
BRANCH  11  30
ATOM     30  C   UNK A   0       1.647   3.256   0.004  0.00  0.00    +0.201 C 
BRANCH  30  31
ATOM     31  C   UNK A   0       1.244   1.804  -0.000  0.00  0.00    +0.125 A 
ATOM     32  C   UNK A   0       2.084   0.754  -0.014  0.00  0.00    +0.046 A 
ATOM     33  C   UNK A   0       1.284  -0.412  -0.012  0.00  0.00    +0.041 A 
ATOM     34  C   UNK A   0       0.002  -0.004   0.002  0.00  0.00    +0.195 A 
ATOM     35  O   UNK A   0      -0.016   1.339   0.009  0.00  0.00    -0.466 OA
ENDBRANCH  30  31
ENDBRANCH  11  30
TORSDOF 9
