REMARK  Name = ZINC19790803
REMARK  9 active torsions:
REMARK  status: ('A' for Active; 'I' for Inactive)
REMARK    1  A    between atoms: N_13  and  C_16
REMARK    2  A    between atoms: C_16  and  C_17
REMARK    3  A    between atoms: C_17  and  N_18
REMARK    4  A    between atoms: N_21  and  C_24
REMARK    5  A    between atoms: C_24  and  C_25
REMARK    6  A    between atoms: C_25  and  C_27
REMARK    7  A    between atoms: C_25  and  O_38
REMARK    8  A    between atoms: C_27  and  O_28
REMARK    9  A    between atoms: O_28  and  C_29
REMARK                            x       y       z     vdW  Elec       q    Type
REMARK                         _______ _______ _______ _____ _____    ______ ____
ROOT
ATOM      1  N   UNL     1       4.984   7.531  -1.319  0.00  0.00    +0.382 N 
ATOM      2  C   UNL     1       4.941   8.952  -0.944  0.00  0.00    -0.063 C 
ATOM      3  C   UNL     1       6.366   9.506  -0.889  0.00  0.00    +0.066 C 
ATOM      4  N   UNL     1       7.009   9.329  -2.199  0.00  0.00    -0.303 NA
ATOM      5  C   UNL     1       7.052   7.908  -2.573  0.00  0.00    +0.066 C 
ATOM      6  C   UNL     1       5.627   7.354  -2.628  0.00  0.00    -0.063 C 
ATOM      7  H   UNL     1       5.589   7.001  -0.569  0.00  0.00    -0.082 HD
ENDROOT
BRANCH   1   8
ATOM      8  C   UNL     1       3.638   6.943  -1.309  0.00  0.00    -0.059 C 
BRANCH   8   9
ATOM      9  C   UNL     1       3.101   6.922   0.124  0.00  0.00    +0.098 C 
BRANCH   9  22
ATOM     10  C   UNL     1      -1.150   2.469   0.487  0.00  0.00    +0.001 A 
ATOM     11  C   UNL     1      -2.260   3.247   0.328  0.00  0.00    +0.008 A 
ATOM     12  C   UNL     1      -2.127   4.637   0.161  0.00  0.00    -0.016 A 
ATOM     13  C   UNL     1      -3.239   5.481  -0.003  0.00  0.00    +0.008 A 
ATOM     14  C   UNL     1      -3.059   6.824  -0.168  0.00  0.00    +0.001 A 
ATOM     15  C   UNL     1      -1.791   7.393  -0.178  0.00  0.00    +0.014 A 
ATOM     16  C   UNL     1      -0.668   6.595  -0.019  0.00  0.00    +0.046 A 
ATOM     17  C   UNL     1      -0.835   5.202   0.152  0.00  0.00    +0.006 A 
ATOM     18  C   UNL     1       0.303   4.379   0.313  0.00  0.00    +0.046 A 
ATOM     19  C   UNL     1       0.129   3.013   0.480  0.00  0.00    +0.014 A 
ATOM     20  C   UNL     1       1.634   5.005   0.298  0.00  0.00    +0.254 C 
ATOM     21  O   UNL     1       2.627   4.316   0.435  0.00  0.00    -0.270 OA
ATOM     22  N   UNL     1       1.758   6.335   0.133  0.00  0.00    -0.236 N 
ATOM     23  C   UNL     1       0.695   7.146  -0.023  0.00  0.00    +0.254 C 
ATOM     24  O   UNL     1       0.863   8.342  -0.168  0.00  0.00    -0.270 OA
ENDBRANCH   9  22
ENDBRANCH   8   9
ENDBRANCH   1   8
BRANCH   4  25
ATOM     25  C   UNL     1       8.355   9.917  -2.208  0.00  0.00    +0.119 C 
BRANCH  25  26
ATOM     26  C   UNL     1       8.796  10.158  -3.654  0.00  0.00    +0.166 C 
BRANCH  26  27
ATOM     27  O   UNL     1       7.916  11.101  -4.269  0.00  0.00    -0.387 OA
ATOM     28  H   UNL     1       8.076  11.400  -5.315  0.00  0.00    +0.210 HD
ENDBRANCH  26  27
BRANCH  26  29
ATOM     29  C   UNL     1      10.223  10.708  -3.666  0.00  0.00    +0.261 C 
BRANCH  29  30
ATOM     30  O   UNL     1      10.677  10.824  -5.016  0.00  0.00    -0.489 OA
BRANCH  30  31
ATOM     31  C   UNL     1      11.936  11.301  -5.205  0.00  0.00    +0.124 A 
ATOM     32  C   UNL     1      12.714  11.657  -4.114  0.00  0.00    +0.049 A 
ATOM     33  C   UNL     1      13.995  12.139  -4.303  0.00  0.00    +0.053 A 
ATOM     34  C   UNL     1      14.503  12.277  -5.585  0.00  0.00    +0.166 A 
ATOM     35  C   UNL     1      13.722  11.926  -6.683  0.00  0.00    +0.170 A 
ATOM     36  C   UNL     1      12.440  11.438  -6.490  0.00  0.00    +0.095 A 
ATOM     37  O   UNL     1      14.441  12.152  -7.821  0.00  0.00    -0.452 OA
ATOM     38  C   UNL     1      15.515  13.027  -7.429  0.00  0.00    +0.466 C 
ATOM     39  O   UNL     1      15.713  12.724  -6.035  0.00  0.00    -0.453 OA
ENDBRANCH  30  31
ENDBRANCH  29  30
ENDBRANCH  26  29
ENDBRANCH  25  26
ENDBRANCH   4  25
TORSDOF 9
