REMARK  Name = ZINC39676674
REMARK  7 active torsions:
REMARK  status: ('A' for Active; 'I' for Inactive)
REMARK    1  A    between atoms: C_1  and  C_2
REMARK    2  A    between atoms: C_2  and  C_4
REMARK    3  A    between atoms: C_2  and  N_12
REMARK    4  A    between atoms: C_8  and  O_10
REMARK    5  A    between atoms: O_10  and  C_11
REMARK    6  A    between atoms: C_13  and  C_15
REMARK    7  A    between atoms: C_26  and  C_28
REMARK                            x       y       z     vdW  Elec       q    Type
REMARK                         _______ _______ _______ _____ _____    ______ ____
ROOT
ATOM      1  C   UNL     1       2.783  -0.414   2.245  0.00  0.00    +0.100 C 
ATOM      2  C   UNL     1       2.650   0.316   3.600  0.00  0.00    +0.121 C 
ATOM      3  N   UNL     1       3.982   0.174   4.234  0.00  0.00    -0.296 N 
ATOM      4  C   UNL     1       4.942   0.343   3.118  0.00  0.00    +0.115 C 
ATOM      5  C   UNL     1       4.289  -0.394   1.931  0.00  0.00    -0.004 C 
ATOM      6  C   UNL     1       4.548   0.364   0.633  0.00  0.00    -0.010 C 
ATOM      7  C   UNL     1       6.044   0.321   0.312  0.00  0.00    -0.082 C 
ATOM      8  N   UNL     1       6.479  -1.075   0.182  0.00  0.00    +0.379 N 
ATOM      9  C   UNL     1       6.313  -1.772   1.463  0.00  0.00    -0.082 C 
ATOM     10  C   UNL     1       4.827  -1.818   1.833  0.00  0.00    -0.010 C 
ATOM     11  C   UNL     1       4.258  -0.057   5.533  0.00  0.00    +0.247 C 
ATOM     12  O   UNL     1       3.357  -0.301   6.312  0.00  0.00    -0.270 OA
ATOM     13  H   UNL     1       5.923  -1.535  -0.524  0.00  0.00    -0.086 HD
ATOM     14  H   UNL     1       7.450  -1.100  -0.089  0.00  0.00    -0.086 HD
ENDROOT
BRANCH  11  15
ATOM     15  C   UNL     1       5.656  -0.012   6.011  0.00  0.00    +0.037 A 
ATOM     16  C   UNL     1       6.627   0.668   5.274  0.00  0.00    +0.014 A 
ATOM     17  C   UNL     1       7.929   0.707   5.725  0.00  0.00    +0.021 A 
ATOM     18  C   UNL     1       8.275   0.071   6.906  0.00  0.00    +0.041 A 
ATOM     19  C   UNL     1       7.316  -0.606   7.641  0.00  0.00    +0.021 A 
ATOM     20  C   UNL     1       6.009  -0.646   7.203  0.00  0.00    +0.014 A 
ATOM     21 CL   UNL     1       9.917   0.122   7.467  0.00  0.00    -0.084 Cl
ENDBRANCH  11  15
BRANCH   1  23
ATOM     22  N   UNL     1       1.480  -0.363   0.143  0.00  0.00    -0.308 N 
ATOM     23  C   UNL     1       2.014   0.318   1.176  0.00  0.00    +0.219 C 
ATOM     24  O   UNL     1       1.876   1.521   1.245  0.00  0.00    -0.275 OA
ATOM     25  H   UNL     1       1.591  -1.325   0.088  0.00  0.00    +0.149 HD
BRANCH  22  27
ATOM     26  C   UNL     1      -0.720   0.523  -0.451  0.00  0.00    +0.033 C 
ATOM     27  C   UNL     1       0.733   0.349  -0.896  0.00  0.00    +0.100 C 
BRANCH  27  28
ATOM     28  C   UNL     1       0.774  -0.444  -2.177  0.00  0.00    -0.024 A 
ATOM     29  C   UNL     1       0.650  -1.820  -2.142  0.00  0.00    +0.005 A 
ATOM     30  C   UNL     1       0.688  -2.550  -3.315  0.00  0.00    +0.004 A 
ATOM     31  C   UNL     1       0.849  -1.906  -4.526  0.00  0.00    +0.045 A 
ATOM     32  C   UNL     1       0.973  -0.525  -4.565  0.00  0.00    +0.120 A 
ATOM     33  C   UNL     1       0.930   0.206  -3.386  0.00  0.00    +0.051 A 
BRANCH  32  34
ATOM     34  O   UNL     1       1.132   0.112  -5.755  0.00  0.00    -0.495 OA
ATOM     35  C   UNL     1       1.163  -0.704  -6.928  0.00  0.00    +0.277 C 
ENDBRANCH  32  34
ENDBRANCH  27  28
ENDBRANCH  22  27
ENDBRANCH   1  23
TORSDOF 5
