REMARK  Name = ZINC67066962
REMARK  6 active torsions:
REMARK  status: ('A' for Active; 'I' for Inactive)
REMARK    1  A    between atoms: C_4  and  C_7
REMARK    2  A    between atoms: C_7  and  C_8
REMARK    3  A    between atoms: N_10  and  N_11
REMARK    4  A    between atoms: N_14  and  C_15
REMARK    5  A    between atoms: C_15  and  C_16
REMARK    6  A    between atoms: C_16  and  N_17
REMARK                            x       y       z     vdW  Elec       q    Type
REMARK                         _______ _______ _______ _____ _____    ______ ____
ROOT
ATOM      1  N   UNL     1       3.785  -4.053   3.327  0.00  0.00    -0.218 N 
ATOM      2  C   UNL     1       4.406  -4.723   4.318  0.00  0.00    +0.316 C 
ATOM      3  O   UNL     1       4.509  -5.933   4.261  0.00  0.00    -0.251 OA
ATOM      4  N   UNL     1       4.913  -4.051   5.371  0.00  0.00    -0.297 N 
ATOM      5  H   UNL     1       3.421  -4.536   2.569  0.00  0.00    +0.174 HD
ATOM      6  H   UNL     1       4.830  -3.086   5.416  0.00  0.00    +0.150 HD
ENDROOT
BRANCH   1   9
ATOM      7  C   UNL     1       3.045  -1.988   2.401  0.00  0.00    +0.229 C 
ATOM      8  O   UNL     1       2.590  -2.592   1.453  0.00  0.00    -0.274 OA
ATOM      9  N   UNL     1       3.666  -2.658   3.392  0.00  0.00    -0.233 N 
ATOM     10  H   UNL     1       4.031  -2.175   4.149  0.00  0.00    +0.173 HD
BRANCH   7  11
ATOM     11  C   UNL     1       2.917  -0.488   2.470  0.00  0.00    +0.101 C 
BRANCH  11  15
ATOM     12  C   UNL     1      -0.019   1.526   0.010  0.00  0.00    +0.000 C 
ATOM     13  C   UNL     1       1.417   2.055  -0.000  0.00  0.00    +0.000 C 
ATOM     14  C   UNL     1       2.157   1.548   1.239  0.00  0.00    +0.004 C 
ATOM     15  C   UNL     1       2.178   0.019   1.231  0.00  0.00    -0.002 C 
ATOM     16  C   UNL     1       0.742  -0.511   1.242  0.00  0.00    +0.004 C 
ATOM     17  C   UNL     1       0.002  -0.004   0.002  0.00  0.00    +0.000 C 
ENDBRANCH  11  15
ENDBRANCH   7  11
ENDBRANCH   1   9
BRANCH   4  18
ATOM     18  C   UNL     1       5.588  -4.780   6.448  0.00  0.00    +0.125 C 
BRANCH  18  19
ATOM     19  C   UNL     1       6.065  -3.790   7.512  0.00  0.00    +0.136 C 
BRANCH  19  20
ATOM     20  N   UNL     1       6.740  -4.518   8.589  0.00  0.00    -0.231 N 
ATOM     21  C   UNL     1       6.013  -4.946   9.607  0.00  0.00    +0.233 C 
ATOM     22  O   UNL     1       4.817  -4.756   9.675  0.00  0.00    -0.274 OA
ATOM     23  C   UNL     1       6.780  -5.695  10.688  0.00  0.00    +0.175 C 
ATOM     24  S   UNL     1       8.476  -5.622   9.975  0.00  0.00    -0.058 S 
ATOM     25  C   UNL     1       8.067  -4.721   8.488  0.00  0.00    +0.281 C 
ATOM     26  O   UNL     1       8.812  -4.371   7.594  0.00  0.00    -0.262 OA
ENDBRANCH  19  20
ENDBRANCH  18  19
ENDBRANCH   4  18
TORSDOF 6
