REMARK  Name = ZINC64058387
REMARK  4 active torsions:
REMARK  status: ('A' for Active; 'I' for Inactive)
REMARK    1  A    between atoms: C_8  and  C_16
REMARK    2  A    between atoms: N_18  and  C_19
REMARK    3  A    between atoms: C_19  and  C_20
REMARK    4  A    between atoms: C_25  and  C_31
REMARK                            x       y       z     vdW  Elec       q    Type
REMARK                         _______ _______ _______ _____ _____    ______ ____
ROOT
ATOM      1  C   UNL     1       3.412  -2.202   2.337  0.00  0.00    +0.219 C 
ATOM      2  O   UNL     1       2.860  -1.122   2.348  0.00  0.00    -0.275 OA
ATOM      3  N   UNL     1       3.789  -2.778   3.496  0.00  0.00    -0.311 N 
ATOM      4  H   UNL     1       4.231  -3.642   3.488  0.00  0.00    +0.149 HD
ENDROOT
BRANCH   1  11
ATOM      5  C   UNL     1      -0.016   1.347   0.009  0.00  0.00    +0.001 A 
ATOM      6  C   UNL     1       1.165   2.101   0.002  0.00  0.00    +0.002 A 
ATOM      7  C   UNL     1       2.390   1.534  -0.016  0.00  0.00    +0.026 A 
ATOM      8  C   UNL     1       2.529   0.120  -0.029  0.00  0.00    +0.043 A 
ATOM      9  N   UNL     1       3.592  -0.653  -0.026  0.00  0.00    -0.377 N 
ATOM     10  C   UNL     1       3.154  -2.043  -0.127  0.00  0.00    +0.118 C 
ATOM     11  C   UNL     1       3.676  -2.901   1.028  0.00  0.00    +0.101 C 
ATOM     12  C   UNL     1       2.946  -4.248   1.003  0.00  0.00    +0.015 C 
ATOM     13  C   UNL     1       1.455  -4.072   1.288  0.00  0.00    +0.005 C 
ATOM     14  C   UNL     1       0.801  -3.240   0.172  0.00  0.00    +0.033 C 
ATOM     15  C   UNL     1       1.639  -1.997  -0.017  0.00  0.00    -0.038 C 
ATOM     16  C   UNL     1       1.294  -0.702  -0.014  0.00  0.00    -0.001 A 
ATOM     17  C   UNL     1       0.002  -0.004   0.002  0.00  0.00    +0.010 A 
ATOM     18  H   UNL     1       4.512  -0.352   0.034  0.00  0.00    +0.160 HD
ENDBRANCH   1  11
BRANCH   3  19
ATOM     19  C   UNL     1       3.533  -2.099   4.769  0.00  0.00    +0.149 C 
BRANCH  19  20
ATOM     20  C   UNL     1       4.056  -2.959   5.921  0.00  0.00    +0.195 C 
ATOM     21  C   UNL     1       3.744  -2.298   7.284  0.00  0.00    +0.085 C 
ATOM     22  C   UNL     1       4.978  -2.651   8.093  0.00  0.00    -0.000 A 
ATOM     23  C   UNL     1       5.236  -2.616   9.443  0.00  0.00    +0.016 A 
ATOM     24  C   UNL     1       6.483  -3.012   9.924  0.00  0.00    -0.013 A 
ATOM     25  C   UNL     1       7.460  -3.441   9.027  0.00  0.00    +0.032 A 
ATOM     26  C   UNL     1       7.195  -3.470   7.675  0.00  0.00    +0.083 A 
ATOM     27  C   UNL     1       5.949  -3.071   7.191  0.00  0.00    +0.143 A 
ATOM     28  O   UNL     1       5.492  -3.010   5.907  0.00  0.00    -0.485 OA
ATOM     29 CL   UNL     1       8.420  -4.007   6.567  0.00  0.00    -0.080 Cl
BRANCH  24  30
ATOM     30  C   UNL     1       6.769  -2.977  11.379  0.00  0.00    +0.018 A 
ATOM     31  C   UNL     1       5.798  -2.554  12.291  0.00  0.00    +0.122 A 
ATOM     32  N   UNL     1       6.095  -2.538  13.580  0.00  0.00    -0.243 NA
ATOM     33  C   UNL     1       7.284  -2.913  14.006  0.00  0.00    +0.221 A 
ATOM     34  N   UNL     1       8.228  -3.318  13.180  0.00  0.00    -0.243 NA
ATOM     35  C   UNL     1       8.014  -3.370  11.876  0.00  0.00    +0.122 A 
ENDBRANCH  24  30
ENDBRANCH  19  20
ENDBRANCH   3  19
TORSDOF 4
