REMARK  Name = ZINC41078165
REMARK  8 active torsions:
REMARK  status: ('A' for Active; 'I' for Inactive)
REMARK    1  A    between atoms: C_1  and  C_2
REMARK    2  A    between atoms: C_5  and  O_8
REMARK    3  A    between atoms: O_8  and  C_9
REMARK    4  A    between atoms: C_9  and  C_10
REMARK    5  A    between atoms: N_12  and  C_13
REMARK    6  A    between atoms: C_13  and  C_14
REMARK    7  A    between atoms: C_22  and  C_24
REMARK    8  A    between atoms: C_28  and  C_30
REMARK                            x       y       z     vdW  Elec       q    Type
REMARK                         _______ _______ _______ _____ _____    ______ ____
ROOT
ATOM      1  C   UNL     1       0.140  -9.247   3.247  0.00  0.00    +0.066 A 
ATOM      2  C   UNL     1      -0.922 -10.033   3.643  0.00  0.00    +0.097 A 
ATOM      3  C   UNL     1      -0.889 -10.665   4.886  0.00  0.00    +0.275 A 
ATOM      4  O   UNL     1      -1.825 -11.363   5.243  0.00  0.00    -0.266 OA
ATOM      5  N   UNL     1       0.193 -10.502   5.704  0.00  0.00    -0.171 N 
ATOM      6  C   UNL     1       1.201  -9.706   5.232  0.00  0.00    +0.199 A 
ATOM      7  N   UNL     1       1.180  -9.114   4.065  0.00  0.00    -0.225 NA
ATOM      8  S   UNL     1       2.386  -9.753   6.560  0.00  0.00    -0.028 S 
ATOM      9  C   UNL     1       1.470 -10.825   7.655  0.00  0.00    +0.132 A 
ATOM     10  N   UNL     1       0.384 -11.057   6.966  0.00  0.00    -0.154 NA
ENDROOT
BRANCH   9  11
ATOM     11  C   UNL     1       1.844 -11.322   8.998  0.00  0.00    +0.009 A 
ATOM     12  C   UNL     1       0.981 -12.166   9.697  0.00  0.00    +0.010 A 
ATOM     13  C   UNL     1       1.336 -12.628  10.948  0.00  0.00    +0.001 A 
ATOM     14  C   UNL     1       2.545 -12.255  11.509  0.00  0.00    +0.003 A 
ATOM     15  C   UNL     1       3.404 -11.418  10.820  0.00  0.00    -0.050 A 
ATOM     16  C   UNL     1       3.063 -10.954   9.566  0.00  0.00    +0.014 A 
ATOM     17  C   UNL     1       4.719 -11.016  11.439  0.00  0.00    +0.044 C 
ENDBRANCH   9  11
BRANCH   1  18
ATOM     18  C   UNL     1       0.124  -8.555   1.908  0.00  0.00    +0.160 C 
BRANCH  18  21
ATOM     19  C   UNL     1       0.090  -6.277   1.043  0.00  0.00    +0.251 C 
ATOM     20  O   UNL     1       0.090  -6.735  -0.080  0.00  0.00    -0.272 OA
ATOM     21  N   UNL     1       0.106  -7.104   2.108  0.00  0.00    -0.307 N 
ATOM     22  H   UNL     1       0.106  -6.738   3.006  0.00  0.00    +0.149 HD
BRANCH  19  23
ATOM     23  C   UNL     1       0.072  -4.785   1.249  0.00  0.00    +0.324 C 
BRANCH  23  24
ATOM     24  O   UNL     1       0.057  -4.129  -0.021  0.00  0.00    -0.483 OA
BRANCH  24  29
ATOM     25  C   UNL     1      -0.018   1.503   0.010  0.00  0.00    +0.044 C 
ATOM     26  C   UNL     1       0.002  -0.004   0.002  0.00  0.00    -0.050 A 
ATOM     27  C   UNL     1       0.006  -0.688  -1.200  0.00  0.00    +0.007 A 
ATOM     28  C   UNL     1       0.024  -2.069  -1.210  0.00  0.00    +0.046 A 
ATOM     29  C   UNL     1       0.039  -2.770  -0.013  0.00  0.00    +0.121 A 
ATOM     30  C   UNL     1       0.036  -2.082   1.191  0.00  0.00    +0.046 A 
ATOM     31  C   UNL     1       0.023  -0.701   1.196  0.00  0.00    +0.007 A 
ENDBRANCH  24  29
ENDBRANCH  23  24
ENDBRANCH  19  23
ENDBRANCH  18  21
ENDBRANCH   1  18
TORSDOF 6
