REMARK  Name = ZINC10337110
REMARK  2 active torsions:
REMARK  status: ('A' for Active; 'I' for Inactive)
REMARK    1  A    between atoms: C_3  and  C_7
REMARK    2  A    between atoms: C_18  and  C_20
REMARK                            x       y       z     vdW  Elec       q    Type
REMARK                         _______ _______ _______ _____ _____    ______ ____
ROOT
ATOM      1  C   UNL     1       3.696   2.049  -0.023  0.00  0.00    +0.162 C 
ATOM      2  C   UNL     1       4.182   2.124  -1.454  0.00  0.00    +0.027 C 
ATOM      3  C   UNL     1       5.374   1.568  -1.750  0.00  0.00    +0.083 C 
ATOM      4  C   UNL     1       5.841   1.658  -3.157  0.00  0.00    +0.044 A 
ATOM      5  C   UNL     1       6.875   0.860  -3.630  0.00  0.00    +0.033 A 
ATOM      6  C   UNL     1       7.277   0.975  -4.948  0.00  0.00    +0.042 A 
ATOM      7  C   UNL     1       6.652   1.879  -5.791  0.00  0.00    +0.023 A 
ATOM      8  C   UNL     1       5.623   2.677  -5.326  0.00  0.00    +0.048 A 
ATOM      9  C   UNL     1       5.212   2.574  -4.009  0.00  0.00    +0.131 A 
ATOM     10  O   UNL     1       4.208   3.350  -3.525  0.00  0.00    -0.479 OA
ATOM     11  C   UNL     1       3.361   2.787  -2.521  0.00  0.00    +0.234 C 
ATOM     12 CL   UNL     1       8.569  -0.017  -5.548  0.00  0.00    -0.084 Cl
ATOM     13  N   UNL     1       6.124   0.949  -0.804  0.00  0.00    -0.213 NA
ATOM     14  C   UNL     1       5.778   0.840   0.452  0.00  0.00    +0.232 C 
ATOM     15  N   UNL     1       4.587   1.359   0.916  0.00  0.00    -0.193 N 
ATOM     16  N   UNL     1       4.551   1.062   2.278  0.00  0.00    -0.165 N 
ATOM     17  N   UNL     1       5.632   0.420   2.565  0.00  0.00    -0.086 NA
ATOM     18  N   UNL     1       6.373   0.273   1.536  0.00  0.00    -0.231 N 
ATOM     19  H   UNL     1       3.841   1.295   2.897  0.00  0.00    +0.195 HD
ATOM     20  H   UNL     1       7.231  -0.180   1.528  0.00  0.00    +0.193 HD
ENDROOT
BRANCH  11  21
ATOM     21  C   UNL     1       2.448   1.768  -3.154  0.00  0.00    -0.003 A 
ATOM     22  C   UNL     1       2.940   0.900  -4.110  0.00  0.00    +0.009 A 
ATOM     23  C   UNL     1       2.103  -0.035  -4.691  0.00  0.00    +0.020 A 
ATOM     24  C   UNL     1       0.774  -0.101  -4.314  0.00  0.00    +0.041 A 
ATOM     25  C   UNL     1       0.282   0.769  -3.357  0.00  0.00    +0.020 A 
ATOM     26  C   UNL     1       1.121   1.699  -2.773  0.00  0.00    +0.009 A 
ATOM     27 CL   UNL     1      -0.278  -1.274  -5.043  0.00  0.00    -0.084 Cl
ENDBRANCH  11  21
BRANCH   1  30
ATOM     28  C   UNL     1      -0.017   1.378   0.010  0.00  0.00    +0.020 A 
ATOM     29  C   UNL     1       1.185   2.070   0.002  0.00  0.00    +0.009 A 
ATOM     30  C   UNL     1       2.365   1.343  -0.013  0.00  0.00    -0.003 A 
ATOM     31  C   UNL     1       2.305  -0.038  -0.020  0.00  0.00    +0.116 A 
ATOM     32  N   UNL     1       1.144  -0.663  -0.013  0.00  0.00    -0.263 NA
ATOM     33  C   UNL     1       0.002  -0.004   0.002  0.00  0.00    +0.111 A 
ENDBRANCH   1  30
TORSDOF 2
