REMARK  Name = ZINC14232549
REMARK  6 active torsions:
REMARK  status: ('A' for Active; 'I' for Inactive)
REMARK    1  A    between atoms: C_6  and  O_7
REMARK    2  A    between atoms: O_7  and  C_8
REMARK    3  A    between atoms: C_8  and  C_9
REMARK    4  A    between atoms: C_12  and  C_14
REMARK    5  A    between atoms: N_16  and  N_17
REMARK    6  A    between atoms: C_18  and  C_20
REMARK                            x       y       z     vdW  Elec       q    Type
REMARK                         _______ _______ _______ _____ _____    ______ ____
ROOT
ATOM      1  C   UNL     1       1.436   4.427   0.013  0.00  0.00    +0.295 C 
ATOM      2  O   UNL     1       2.651   4.352   0.001  0.00  0.00    -0.265 OA
ATOM      3  N   UNL     1       0.835   5.633   0.025  0.00  0.00    -0.228 N 
ATOM      4  H   UNL     1      -0.133   5.692   0.034  0.00  0.00    +0.173 HD
ENDROOT
BRANCH   1   8
ATOM      5  C   UNL     1      -1.110   1.864   0.017  0.00  0.00    +0.143 A 
ATOM      6  C   UNL     1      -0.013   1.076   0.008  0.00  0.00    +0.049 A 
ATOM      7  C   UNL     1       1.105   1.925   0.002  0.00  0.00    +0.055 A 
ATOM      8  C   UNL     1       0.627   3.204   0.013  0.00  0.00    +0.191 A 
ATOM      9  O   UNL     1      -0.721   3.145   0.026  0.00  0.00    -0.452 OA
BRANCH   5  10
ATOM     10  C   UNL     1      -2.538   1.380   0.020  0.00  0.00    +0.303 C 
BRANCH  10  11
ATOM     11  O   UNL     1      -2.983   1.220   1.368  0.00  0.00    -0.484 OA
BRANCH  11  17
ATOM     12  C   UNL     1      -5.066   0.526   0.452  0.00  0.00    +0.048 A 
ATOM     13  C   UNL     1      -6.361   0.081   0.637  0.00  0.00    +0.042 A 
ATOM     14  C   UNL     1      -6.856  -0.096   1.918  0.00  0.00    +0.124 A 
ATOM     15  C   UNL     1      -6.053   0.169   3.014  0.00  0.00    +0.042 A 
ATOM     16  C   UNL     1      -4.756   0.609   2.832  0.00  0.00    +0.048 A 
ATOM     17  C   UNL     1      -4.259   0.786   1.549  0.00  0.00    +0.121 A 
ATOM     18  F   UNL     1      -8.124  -0.527   2.098  0.00  0.00    -0.205 F 
ENDBRANCH  11  17
ENDBRANCH  10  11
ENDBRANCH   5  10
ENDBRANCH   1   8
BRANCH   3  19
ATOM     19  N   UNL     1       1.608   6.801   0.024  0.00  0.00    -0.230 N 
ATOM     20  C   UNL     1       1.007   8.007   0.036  0.00  0.00    +0.260 C 
ATOM     21  O   UNL     1      -0.207   8.081   0.048  0.00  0.00    -0.269 OA
ATOM     22  H   UNL     1       2.576   6.742   0.015  0.00  0.00    +0.173 HD
BRANCH  20  23
ATOM     23  C   UNL     1       1.821   9.238   0.035  0.00  0.00    +0.042 A 
ATOM     24  C   UNL     1       3.216   9.155   0.028  0.00  0.00    +0.017 A 
ATOM     25  C   UNL     1       3.975  10.305   0.022  0.00  0.00    +0.050 A 
ATOM     26  C   UNL     1       3.358  11.549   0.035  0.00  0.00    +0.166 A 
ATOM     27  C   UNL     1       1.966  11.639   0.048  0.00  0.00    +0.167 A 
ATOM     28  C   UNL     1       1.200  10.489   0.048  0.00  0.00    +0.062 A 
ATOM     29  O   UNL     1       1.615  12.958   0.059  0.00  0.00    -0.453 OA
ATOM     30  C   UNL     1       2.800  13.667   0.465  0.00  0.00    +0.466 C 
ATOM     31  O   UNL     1       3.875  12.811   0.037  0.00  0.00    -0.453 OA
ENDBRANCH  20  23
ENDBRANCH   3  19
TORSDOF 6
