REMARK  Name = ZINC07458388
REMARK  8 active torsions:
REMARK  status: ('A' for Active; 'I' for Inactive)
REMARK    1  A    between atoms: C_1  and  C_2
REMARK    2  A    between atoms: C_5  and  N_8
REMARK    3  A    between atoms: C_12  and  O_28
REMARK    4  A    between atoms: C_13  and  C_15
REMARK    5  A    between atoms: N_17  and  C_18
REMARK    6  A    between atoms: C_19  and  C_27
REMARK    7  A    between atoms: C_23  and  N_24
REMARK    8  A    between atoms: O_28  and  C_29
REMARK                            x       y       z     vdW  Elec       q    Type
REMARK                         _______ _______ _______ _____ _____    ______ ____
ROOT
ATOM      1  N   UNL     1      -1.998   5.551   1.261  0.00  0.00    -0.196 N 
ATOM      2  C   UNL     1      -0.770   5.574   0.715  0.00  0.00    +0.275 A 
ATOM      3  O   UNL     1      -0.504   6.396  -0.147  0.00  0.00    -0.266 OA
ATOM      4  C   UNL     1       0.209   4.659   1.137  0.00  0.00    +0.120 A 
ATOM      5  C   UNL     1      -0.143   3.744   2.113  0.00  0.00    +0.157 A 
ATOM      6  C   UNL     1      -1.510   3.808   2.640  0.00  0.00    +0.188 A 
ATOM      7  N   UNL     1      -2.340   4.714   2.170  0.00  0.00    -0.155 NA
ENDROOT
BRANCH   1  12
ATOM      8  C   UNL     1      -5.835   9.326  -0.531  0.00  0.00    +0.044 C 
ATOM      9  C   UNL     1      -4.816   8.323  -0.055  0.00  0.00    -0.050 A 
ATOM     10  C   UNL     1      -5.150   6.984   0.023  0.00  0.00    +0.005 A 
ATOM     11  C   UNL     1      -4.218   6.062   0.459  0.00  0.00    +0.028 A 
ATOM     12  C   UNL     1      -2.944   6.482   0.819  0.00  0.00    +0.069 A 
ATOM     13  C   UNL     1      -2.613   7.829   0.744  0.00  0.00    +0.028 A 
ATOM     14  C   UNL     1      -3.548   8.745   0.303  0.00  0.00    +0.005 A 
ENDBRANCH   1  12
BRANCH   6  15
ATOM     15  C   UNL     1      -1.951   2.865   3.687  0.00  0.00    +0.272 C 
ATOM     16  O   UNL     1      -1.179   2.030   4.118  0.00  0.00    -0.268 OA
ATOM     17  N   UNL     1      -3.209   2.930   4.166  0.00  0.00    -0.278 N 
ATOM     18  H   UNL     1      -3.808   3.630   3.863  0.00  0.00    +0.155 HD
BRANCH  17  19
ATOM     19  C   UNL     1      -3.650   1.988   5.101  0.00  0.00    +0.067 A 
ATOM     20  C   UNL     1      -3.547   0.631   4.824  0.00  0.00    -0.027 A 
ATOM     21  C   UNL     1      -3.978  -0.297   5.752  0.00  0.00    +0.005 A 
ATOM     22  C   UNL     1      -4.524   0.125   6.951  0.00  0.00    +0.003 A 
ATOM     23  C   UNL     1      -4.634   1.475   7.227  0.00  0.00    +0.034 A 
ATOM     24  C   UNL     1      -4.199   2.408   6.306  0.00  0.00    +0.148 A 
ATOM     25  C   UNL     1      -2.958   0.171   3.515  0.00  0.00    +0.046 C 
BRANCH  24  26
ATOM     26  N   UNL     1      -4.316   3.853   6.603  0.00  0.00    +0.058 N 
ATOM     27  O   UNL     1      -4.712   4.220   7.695  0.00  0.00    -0.126 OA
ATOM     28  O   UNL     1      -4.018   4.675   5.755  0.00  0.00    -0.126 OA
ENDBRANCH  24  26
ENDBRANCH  17  19
ENDBRANCH   6  15
BRANCH   5  29
ATOM     29  O   UNL     1       0.743   2.827   2.569  0.00  0.00    -0.493 OA
ATOM     30  C   UNL     1       2.051   2.846   1.992  0.00  0.00    +0.277 C 
ENDBRANCH   5  29
TORSDOF 5
