REMARK  Name = ZINC14668017
REMARK  10 active torsions:
REMARK  status: ('A' for Active; 'I' for Inactive)
REMARK    1  A    between atoms: C_1  and  C_2
REMARK    2  A    between atoms: C_2  and  C_3
REMARK    3  A    between atoms: C_2  and  O_4
REMARK    4  A    between atoms: O_4  and  C_5
REMARK    5  A    between atoms: C_10  and  C_11
REMARK    6  A    between atoms: N_13  and  N_14
REMARK    7  A    between atoms: C_15  and  C_17
REMARK    8  A    between atoms: C_17  and  C_18
REMARK    9  A    between atoms: C_18  and  C_19
REMARK   10  A    between atoms: N_21  and  C_22
REMARK                            x       y       z     vdW  Elec       q    Type
REMARK                         _______ _______ _______ _____ _____    ______ ____
ROOT
ATOM      1  N   UNL     1      -5.082   0.011   0.430  0.00  0.00    -0.234 N 
ATOM      2  C   UNL     1      -6.121  -0.839   0.551  0.00  0.00    +0.230 C 
ATOM      3  O   UNL     1      -5.932  -2.037   0.515  0.00  0.00    -0.274 OA
ATOM      4  H   UNL     1      -5.233   0.969   0.459  0.00  0.00    +0.173 HD
ENDROOT
BRANCH   1   7
ATOM      5  C   UNL     1      -2.745   0.362   0.141  0.00  0.00    +0.264 C 
ATOM      6  O   UNL     1      -2.935   1.562   0.178  0.00  0.00    -0.269 OA
ATOM      7  N   UNL     1      -3.784  -0.488   0.262  0.00  0.00    -0.230 N 
ATOM      8  H   UNL     1      -3.633  -1.446   0.233  0.00  0.00    +0.173 HD
BRANCH   5  14
ATOM      9  C   UNL     1      -0.295   0.717  -0.162  0.00  0.00    +0.133 A 
ATOM     10  C   UNL     1       0.987   0.211  -0.322  0.00  0.00    +0.047 A 
ATOM     11  C   UNL     1       1.193  -1.153  -0.361  0.00  0.00    +0.019 A 
ATOM     12  C   UNL     1       0.124  -2.028  -0.243  0.00  0.00    +0.019 A 
ATOM     13  C   UNL     1      -1.157  -1.543  -0.084  0.00  0.00    +0.032 A 
ATOM     14  C   UNL     1      -1.378  -0.164  -0.036  0.00  0.00    +0.081 A 
ATOM     15 BR   UNL     1       0.424  -3.894  -0.299  0.00  0.00    -0.050 Br
BRANCH   9  16
ATOM     16  O   UNL     1      -0.499   2.057  -0.123  0.00  0.00    -0.489 OA
BRANCH  16  18
ATOM     17  C   UNL     1       0.978   3.315  -1.564  0.00  0.00    +0.051 C 
ATOM     18  C   UNL     1       0.662   2.890  -0.129  0.00  0.00    +0.167 C 
ATOM     19  C   UNL     1       0.402   4.133   0.725  0.00  0.00    +0.051 C 
ENDBRANCH  16  18
ENDBRANCH   9  16
ENDBRANCH   5  14
ENDBRANCH   1   7
BRANCH   2  20
ATOM     20  C   UNL     1      -7.517  -0.302   0.732  0.00  0.00    +0.106 C 
BRANCH  20  21
ATOM     21  C   UNL     1      -8.502  -1.468   0.843  0.00  0.00    +0.105 C 
BRANCH  21  22
ATOM     22  C   UNL     1      -9.898  -0.931   1.024  0.00  0.00    +0.218 C 
ATOM     23  O   UNL     1     -10.087   0.267   1.060  0.00  0.00    -0.275 OA
ATOM     24  N   UNL     1     -10.937  -1.781   1.145  0.00  0.00    -0.284 N 
ATOM     25  H   UNL     1     -10.777  -2.736   1.200  0.00  0.00    +0.155 HD
BRANCH  24  26
ATOM     26  C   UNL     1     -12.245  -1.285   1.191  0.00  0.00    +0.052 A 
ATOM     27  C   UNL     1     -12.544  -0.055   0.621  0.00  0.00    +0.025 A 
ATOM     28  C   UNL     1     -13.837   0.428   0.663  0.00  0.00    +0.002 A 
ATOM     29  C   UNL     1     -14.832  -0.306   1.283  0.00  0.00    +0.002 A 
ATOM     30  C   UNL     1     -14.537  -1.528   1.857  0.00  0.00    +0.022 A 
ATOM     31  C   UNL     1     -13.246  -2.021   1.813  0.00  0.00    +0.062 A 
ATOM     32 CL   UNL     1     -12.877  -3.556   2.534  0.00  0.00    -0.082 Cl
ENDBRANCH  24  26
ENDBRANCH  21  22
ENDBRANCH  20  21
ENDBRANCH   2  20
TORSDOF 8
