REMARK  Name = ZINC13462223
REMARK  14 active torsions:
REMARK  status: ('A' for Active; 'I' for Inactive)
REMARK    1  A    between atoms: C_1  and  C_2
REMARK    2  A    between atoms: C_2  and  O_3
REMARK    3  A    between atoms: O_3  and  C_4
REMARK    4  A    between atoms: C_5  and  C_14
REMARK    5  A    between atoms: C_6  and  C_13
REMARK    6  A    between atoms: N_8  and  C_9
REMARK    7  A    between atoms: C_9  and  C_10
REMARK    8  A    between atoms: C_10  and  C_11
REMARK    9  A    between atoms: C_10  and  C_12
REMARK   10  A    between atoms: C_16  and  C_34
REMARK   11  A    between atoms: C_17  and  C_24
REMARK   12  A    between atoms: C_27  and  O_30
REMARK   13  A    between atoms: O_30  and  C_31
REMARK   14  A    between atoms: C_31  and  C_32
REMARK                            x       y       z     vdW  Elec       q    Type
REMARK                         _______ _______ _______ _____ _____    ______ ____
ROOT
ATOM      1  C   UNL     1       0.097   1.002   0.664  0.00  0.00    +0.177 C 
ATOM      2  C   UNL     1       1.422   1.715   0.628  0.00  0.00    -0.022 C 
ATOM      3  C   UNL     1       1.692   2.792   1.353  0.00  0.00    +0.042 C 
ATOM      4  N   UNL     1       0.752   3.353   2.228  0.00  0.00    -0.282 N 
ATOM      5  C   UNL     1      -0.378   2.601   2.508  0.00  0.00    +0.240 A 
ATOM      6  N   UNL     1      -0.694   1.494   1.786  0.00  0.00    -0.201 N 
ATOM      7  N   UNL     1      -1.869   1.002   2.353  0.00  0.00    -0.042 NA
ATOM      8  N   UNL     1      -2.174   1.804   3.322  0.00  0.00    -0.021 NA
ATOM      9  N   UNL     1      -1.300   2.747   3.416  0.00  0.00    -0.092 NA
ATOM     10  C   UNL     1       2.497   1.178  -0.281  0.00  0.00    +0.043 C 
ATOM     11  H   UNL     1       0.886   4.230   2.621  0.00  0.00    +0.155 HD
ENDROOT
BRANCH   1  13
ATOM     12  C   UNL     1      -1.053   0.315  -1.512  0.00  0.00    +0.219 A 
ATOM     13  C   UNL     1      -0.646   1.258  -0.622  0.00  0.00    +0.065 A 
ATOM     14  C   UNL     1      -1.045   2.507  -1.108  0.00  0.00    +0.069 A 
ATOM     15  N   UNL     1      -1.659   2.326  -2.249  0.00  0.00    -0.173 NA
ATOM     16  N   UNL     1      -1.681   0.953  -2.525  0.00  0.00    -0.232 N 
ATOM     17  C   UNL     1      -0.805   3.834  -0.435  0.00  0.00    +0.068 C 
BRANCH  12  18
ATOM     18  O   UNL     1      -0.863  -1.025  -1.404  0.00  0.00    -0.477 OA
BRANCH  18  20
ATOM     19  C   UNL     1       0.259  -3.098  -1.935  0.00  0.00    +0.048 C 
ATOM     20  C   UNL     1       0.273  -1.575  -2.074  0.00  0.00    +0.227 C 
ENDBRANCH  18  20
ENDBRANCH  12  18
BRANCH  16  21
ATOM     21  C   UNL     1      -2.279   0.320  -3.703  0.00  0.00    +0.150 C 
BRANCH  21  22
ATOM     22  C   UNL     1      -3.701  -0.135  -3.371  0.00  0.00    +0.004 C 
ATOM     23  C   UNL     1      -4.574   1.088  -3.082  0.00  0.00    +0.009 C 
ATOM     24  C   UNL     1      -4.281  -0.906  -4.559  0.00  0.00    +0.009 C 
ENDBRANCH  21  22
ENDBRANCH  16  21
ENDBRANCH   1  13
BRANCH   3  25
ATOM     25  C   UNL     1       3.027   3.420   1.235  0.00  0.00    -0.004 A 
ATOM     26  C   UNL     1       3.764   3.718   2.381  0.00  0.00    +0.013 A 
ATOM     27  C   UNL     1       5.008   4.300   2.267  0.00  0.00    +0.046 A 
ATOM     28  C   UNL     1       5.525   4.598   1.013  0.00  0.00    +0.121 A 
ATOM     29  C   UNL     1       4.792   4.308  -0.130  0.00  0.00    +0.046 A 
ATOM     30  C   UNL     1       3.549   3.722  -0.023  0.00  0.00    +0.013 A 
BRANCH  28  31
ATOM     31  O   UNL     1       6.750   5.176   0.905  0.00  0.00    -0.481 OA
BRANCH  31  32
ATOM     32  C   UNL     1       7.449   5.447   2.121  0.00  0.00    +0.353 C 
BRANCH  32  33
ATOM     33  C   UNL     1       8.778   6.083   1.805  0.00  0.00    +0.393 C 
ATOM     34  O   UNL     1       9.094   6.283   0.656  0.00  0.00    -0.243 OA
ATOM     35  O   UNL     1       9.611   6.427   2.800  0.00  0.00    -0.243 OA
ENDBRANCH  32  33
ENDBRANCH  31  32
ENDBRANCH  28  31
ENDBRANCH   3  25
TORSDOF 9
