REMARK  Name = ZINC07987873
REMARK  9 active torsions:
REMARK  status: ('A' for Active; 'I' for Inactive)
REMARK    1  A    between atoms: C_1  and  C_2
REMARK    2  A    between atoms: C_2  and  C_4
REMARK    3  A    between atoms: C_2  and  N_14
REMARK    4  A    between atoms: C_15  and  C_17
REMARK    5  A    between atoms: C_17  and  C_19
REMARK    6  A    between atoms: C_17  and  N_22
REMARK    7  A    between atoms: C_19  and  C_20
REMARK    8  A    between atoms: C_19  and  C_21
REMARK    9  A    between atoms: N_25  and  C_26
REMARK                            x       y       z     vdW  Elec       q    Type
REMARK                         _______ _______ _______ _____ _____    ______ ____
ROOT
ATOM      1  N   UNL     1       0.836   0.064  -1.427  0.00  0.00    -0.307 N 
ATOM      2  C   UNL     1       2.060  -0.488  -1.312  0.00  0.00    +0.234 C 
ATOM      3  O   UNL     1       2.625  -0.493  -0.238  0.00  0.00    -0.274 OA
ATOM      4  H   UNL     1       0.416   0.135  -2.298  0.00  0.00    +0.149 HD
ENDROOT
BRANCH   1   6
ATOM      5  C   UNL     1       0.593   1.984   0.069  0.00  0.00    +0.033 C 
ATOM      6  C   UNL     1       0.139   0.554  -0.235  0.00  0.00    +0.100 C 
BRANCH   6   7
ATOM      7  C   UNL     1      -1.348   0.541  -0.482  0.00  0.00    -0.024 A 
ATOM      8  C   UNL     1      -1.846   0.920  -1.714  0.00  0.00    +0.009 A 
ATOM      9  C   UNL     1      -3.209   0.911  -1.944  0.00  0.00    +0.050 A 
ATOM     10  C   UNL     1      -4.080   0.521  -0.938  0.00  0.00    +0.162 A 
ATOM     11  C   UNL     1      -3.579   0.138   0.300  0.00  0.00    +0.162 A 
ATOM     12  C   UNL     1      -2.210   0.146   0.523  0.00  0.00    +0.055 A 
ATOM     13  O   UNL     1      -4.416  -0.255   1.299  0.00  0.00    -0.485 OA
ATOM     14  C   UNL     1      -5.796   0.100   1.160  0.00  0.00    +0.270 C 
ATOM     15  C   UNL     1      -6.236  -0.232  -0.273  0.00  0.00    +0.270 C 
ATOM     16  O   UNL     1      -5.420   0.521  -1.177  0.00  0.00    -0.485 OA
ENDBRANCH   6   7
ENDBRANCH   1   6
BRANCH   2  17
ATOM     17  C   UNL     1       2.728  -1.098  -2.517  0.00  0.00    +0.163 C 
BRANCH  17  18
ATOM     18  N   UNL     1       4.158  -1.268  -2.249  0.00  0.00    -0.288 N 
ATOM     19  C   UNL     1       5.035  -1.306  -3.272  0.00  0.00    +0.304 C 
ATOM     20  O   UNL     1       4.639  -1.200  -4.417  0.00  0.00    -0.252 OA
ATOM     21  N   UNL     1       6.351  -1.462  -3.026  0.00  0.00    -0.269 N 
ATOM     22  H   UNL     1       4.474  -1.353  -1.336  0.00  0.00    +0.151 HD
ATOM     23  H   UNL     1       6.658  -1.632  -2.122  0.00  0.00    +0.156 HD
BRANCH  21  24
ATOM     24  C   UNL     1       7.274  -1.380  -4.075  0.00  0.00    +0.035 A 
ATOM     25  C   UNL     1       8.409  -2.179  -4.067  0.00  0.00    +0.023 A 
ATOM     26  C   UNL     1       9.318  -2.096  -5.104  0.00  0.00    +0.002 A 
ATOM     27  C   UNL     1       9.097  -1.218  -6.150  0.00  0.00    +0.000 A 
ATOM     28  C   UNL     1       7.967  -0.422  -6.161  0.00  0.00    +0.002 A 
ATOM     29  C   UNL     1       7.052  -0.504  -5.130  0.00  0.00    +0.023 A 
ENDBRANCH  21  24
ENDBRANCH  17  18
BRANCH  17  30
ATOM     30  C   UNL     1       2.099  -2.462  -2.812  0.00  0.00    +0.012 C 
ATOM     31  C   UNL     1       0.633  -2.272  -3.207  0.00  0.00    +0.009 C 
ATOM     32  C   UNL     1       2.853  -3.133  -3.962  0.00  0.00    +0.009 C 
ENDBRANCH  17  30
ENDBRANCH   2  17
TORSDOF 6
