REMARK  Name = ZINC15822842
REMARK  6 active torsions:
REMARK  status: ('A' for Active; 'I' for Inactive)
REMARK    1  A    between atoms: C_4  and  N_21
REMARK    2  A    between atoms: C_5  and  C_7
REMARK    3  A    between atoms: N_9  and  C_10
REMARK    4  A    between atoms: C_11  and  C_18
REMARK    5  A    between atoms: N_21  and  S_22
REMARK    6  A    between atoms: S_22  and  C_25
REMARK                            x       y       z     vdW  Elec       q    Type
REMARK                         _______ _______ _______ _____ _____    ______ ____
ROOT
ATOM      1  C   UNL     1       3.339  -1.086  -0.540  0.00  0.00    +0.001 A 
ATOM      2  C   UNL     1       4.582  -0.479  -0.450  0.00  0.00    +0.002 A 
ATOM      3  C   UNL     1       4.682   0.886  -0.277  0.00  0.00    +0.025 A 
ATOM      4  C   UNL     1       3.534   1.664  -0.197  0.00  0.00    +0.060 A 
ATOM      5  C   UNL     1       2.273   1.052  -0.282  0.00  0.00    +0.059 A 
ATOM      6  C   UNL     1       2.189  -0.332  -0.458  0.00  0.00    +0.015 A 
ENDROOT
BRANCH   5   7
ATOM      7  C   UNL     1       1.047   1.864  -0.194  0.00  0.00    +0.250 C 
ATOM      8  O   UNL     1       1.125   3.068  -0.041  0.00  0.00    -0.270 OA
ATOM      9  N   UNL     1      -0.161   1.273  -0.282  0.00  0.00    -0.275 N 
ATOM     10  H   UNL     1      -0.223   0.312  -0.404  0.00  0.00    +0.156 HD
BRANCH   9  11
ATOM     11  C   UNL     1      -1.314   2.037  -0.205  0.00  0.00    +0.085 A 
ATOM     12  C   UNL     1      -2.631   1.618  -0.285  0.00  0.00    +0.068 A 
ATOM     13  C   UNL     1      -3.674   2.637  -0.169  0.00  0.00    -0.023 A 
ATOM     14  C   UNL     1      -3.227   3.895  -0.003  0.00  0.00    -0.004 A 
ATOM     15  S   UNL     1      -1.457   3.749   0.007  0.00  0.00    -0.077 S 
ATOM     16  C   UNL     1      -4.356   4.885   0.105  0.00  0.00    +0.043 C 
ATOM     17  C   UNL     1      -5.600   4.024   0.418  0.00  0.00    +0.010 C 
ATOM     18  C   UNL     1      -5.203   2.665  -0.193  0.00  0.00    +0.037 C 
BRANCH  12  19
ATOM     19  C   UNL     1      -2.969   0.204  -0.475  0.00  0.00    +0.244 C 
ATOM     20  O   UNL     1      -3.129  -0.518   0.491  0.00  0.00    -0.270 OA
ATOM     21  N   UNL     1      -3.101  -0.296  -1.720  0.00  0.00    -0.325 N 
ATOM     22  H   UNL     1      -2.973   0.280  -2.490  0.00  0.00    +0.145 HD
ATOM     23  H   UNL     1      -3.324  -1.231  -1.845  0.00  0.00    +0.145 HD
ENDBRANCH  12  19
ENDBRANCH   9  11
ENDBRANCH   5   7
BRANCH   4  24
ATOM     24  N   UNL     1       3.632   3.039  -0.028  0.00  0.00    -0.216 N 
ATOM     25  H   UNL     1       2.980   3.509   0.515  0.00  0.00    +0.174 HD
BRANCH  24  26
ATOM     26  S   UNL     1       4.862   3.876  -0.754  0.00  0.00    +0.072 S 
ATOM     27  O   UNL     1       4.617   5.254  -0.507  0.00  0.00    -0.150 OA
ATOM     28  O   UNL     1       6.072   3.237  -0.369  0.00  0.00    -0.150 OA
BRANCH  26  29
ATOM     29  C   UNL     1       4.699   3.639  -2.493  0.00  0.00    +0.109 A 
ATOM     30  C   UNL     1       5.339   2.580  -3.108  0.00  0.00    +0.031 A 
ATOM     31  C   UNL     1       5.207   2.390  -4.471  0.00  0.00    +0.040 A 
ATOM     32  C   UNL     1       4.443   3.268  -5.221  0.00  0.00    +0.124 A 
ATOM     33  C   UNL     1       3.807   4.332  -4.604  0.00  0.00    +0.040 A 
ATOM     34  C   UNL     1       3.935   4.516  -3.240  0.00  0.00    +0.031 A 
ATOM     35  F   UNL     1       4.317   3.086  -6.554  0.00  0.00    -0.205 F 
ENDBRANCH  26  29
ENDBRANCH  24  26
ENDBRANCH   4  24
TORSDOF 6
