REMARK  Name = ZINC39766558
REMARK  7 active torsions:
REMARK  status: ('A' for Active; 'I' for Inactive)
REMARK    1  A    between atoms: C_1  and  C_2
REMARK    2  A    between atoms: C_2  and  O_3
REMARK    3  A    between atoms: O_3  and  C_4
REMARK    4  A    between atoms: C_9  and  C_10
REMARK    5  A    between atoms: C_11  and  C_12
REMARK    6  A    between atoms: C_12  and  C_14
REMARK    7  A    between atoms: C_25  and  C_28
REMARK                            x       y       z     vdW  Elec       q    Type
REMARK                         _______ _______ _______ _____ _____    ______ ____
ROOT
ATOM      1  C   UNL     1      -3.968  -1.538   0.025  0.00  0.00    +0.015 C 
ATOM      2  C   UNL     1      -5.210  -2.081   0.034  0.00  0.00    +0.052 C 
ENDROOT
BRANCH   1   8
ATOM      3  C   UNL     1      -1.498  -1.846   0.006  0.00  0.00    +0.128 A 
ATOM      4  C   UNL     1      -0.391  -2.682  -0.003  0.00  0.00    +0.053 A 
ATOM      5  C   UNL     1      -0.556  -4.049  -0.005  0.00  0.00    +0.001 A 
ATOM      6  C   UNL     1      -1.826  -4.622   0.008  0.00  0.00    +0.125 A 
ATOM      7  C   UNL     1      -2.941  -3.798   0.011  0.00  0.00    +0.057 A 
ATOM      8  C   UNL     1      -2.787  -2.408   0.016  0.00  0.00    +0.020 A 
ATOM      9  O   UNL     1      -1.750  -5.983   0.026  0.00  0.00    -0.488 OA
ATOM     10  C   UNL     1      -0.447  -6.390  -0.422  0.00  0.00    +0.175 C 
ATOM     11  C   UNL     1       0.444  -5.190  -0.026  0.00  0.00    +0.083 C 
ATOM     12  C   UNL     1      -0.436  -6.601  -1.937  0.00  0.00    +0.052 C 
BRANCH   3  13
ATOM     13  O   UNL     1      -1.339  -0.499   0.012  0.00  0.00    -0.492 OA
BRANCH  13  15
ATOM     14  C   UNL     1      -0.019   1.526   0.010  0.00  0.00    +0.048 C 
ATOM     15  C   UNL     1       0.002  -0.004   0.002  0.00  0.00    +0.226 C 
ENDBRANCH  13  15
ENDBRANCH   3  13
ENDBRANCH   1   8
BRANCH   2  16
ATOM     16  C   UNL     1      -6.351  -1.241   0.043  0.00  0.00    +0.186 C 
ATOM     17  O   UNL     1      -6.215  -0.030   0.042  0.00  0.00    -0.287 OA
BRANCH  16  18
ATOM     18  C   UNL     1      -7.705  -1.833   0.052  0.00  0.00    +0.024 A 
ATOM     19  C   UNL     1      -7.855  -3.292   0.059  0.00  0.00    +0.013 A 
ATOM     20  C   UNL     1      -9.066  -3.885   0.067  0.00  0.00    +0.026 A 
ATOM     21  C   UNL     1     -10.246  -3.106   0.070  0.00  0.00    +0.056 A 
ATOM     22  N   UNL     1     -11.531  -3.382   0.078  0.00  0.00    -0.268 N 
ATOM     23  C   UNL     1     -12.228  -2.204   0.077  0.00  0.00    +0.308 C 
ATOM     24  O   UNL     1     -13.437  -2.110   0.083  0.00  0.00    -0.252 OA
ATOM     25  N   UNL     1     -11.351  -1.142   0.069  0.00  0.00    -0.268 N 
ATOM     26  C   UNL     1     -10.131  -1.614   0.064  0.00  0.00    +0.057 A 
ATOM     27  C   UNL     1      -8.797  -1.013   0.061  0.00  0.00    +0.037 A 
ATOM     28  H   UNL     1     -11.596  -0.203   0.066  0.00  0.00    +0.156 HD
ATOM     29  H   UNL     1     -11.919  -4.271   0.083  0.00  0.00    +0.156 HD
ENDBRANCH  16  18
ENDBRANCH   2  16
TORSDOF 5
