REMARK  Name = ZINC67160223
REMARK  11 active torsions:
REMARK  status: ('A' for Active; 'I' for Inactive)
REMARK    1  A    between atoms: C_1  and  C_2
REMARK    2  A    between atoms: C_8  and  N_10
REMARK    3  A    between atoms: N_10  and  C_11
REMARK    4  A    between atoms: C_12  and  C_14
REMARK    5  A    between atoms: C_14  and  C_16
REMARK    6  A    between atoms: C_14  and  N_17
REMARK    7  A    between atoms: C_18  and  O_20
REMARK    8  A    between atoms: O_20  and  C_21
REMARK    9  A    between atoms: C_21  and  C_22
REMARK   10  A    between atoms: C_21  and  C_23
REMARK   11  A    between atoms: C_21  and  C_24
REMARK                            x       y       z     vdW  Elec       q    Type
REMARK                         _______ _______ _______ _____ _____    ______ ____
ROOT
ATOM      1  N   UNL     1       1.842  -0.026   1.274  0.00  0.00    -0.300 N 
ATOM      2  C   UNL     1       0.544  -0.703   1.320  0.00  0.00    +0.132 C 
ATOM      3  C   UNL     1       2.266   0.692   2.332  0.00  0.00    +0.236 C 
ATOM      4  O   UNL     1       1.554   0.816   3.305  0.00  0.00    -0.274 OA
ENDROOT
BRANCH   1  11
ATOM      5  C   UNL     1       3.552  -2.330   0.875  0.00  0.00    +0.009 C 
ATOM      6  C   UNL     1       2.871  -1.604  -0.287  0.00  0.00    +0.006 C 
ATOM      7  C   UNL     1       3.745  -1.712  -1.538  0.00  0.00    +0.005 C 
ATOM      8  C   UNL     1       3.065  -0.985  -2.700  0.00  0.00    +0.000 C 
ATOM      9  C   UNL     1       2.873   0.489  -2.337  0.00  0.00    +0.002 C 
ATOM     10  C   UNL     1       1.999   0.597  -1.086  0.00  0.00    +0.023 C 
ATOM     11  C   UNL     1       2.679  -0.130   0.076  0.00  0.00    +0.079 C 
ENDBRANCH   1  11
BRANCH   3  12
ATOM     12  C   UNL     1       3.627   1.340   2.307  0.00  0.00    +0.159 C 
ATOM     13  C   UNL     1       4.707   0.257   2.280  0.00  0.00    +0.038 C 
BRANCH  12  14
ATOM     14  N   UNL     1       3.795   2.168   3.503  0.00  0.00    -0.270 N 
ATOM     15  C   UNL     1       4.654   3.207   3.488  0.00  0.00    +0.401 C 
ATOM     16  O   UNL     1       5.288   3.456   2.482  0.00  0.00    -0.226 OA
ATOM     17  H   UNL     1       3.289   1.969   4.306  0.00  0.00    +0.153 HD
BRANCH  15  18
ATOM     18  O   UNL     1       4.809   3.969   4.588  0.00  0.00    -0.445 OA
BRANCH  18  19
ATOM     19  C   UNL     1       5.736   5.053   4.500  0.00  0.00    +0.107 C 
ATOM     20  C   UNL     1       5.294   6.013   3.394  0.00  0.00    +0.055 C 
ATOM     21  C   UNL     1       5.776   5.798   5.836  0.00  0.00    +0.055 C 
ATOM     22  C   UNL     1       7.128   4.509   4.178  0.00  0.00    +0.055 C 
ENDBRANCH  18  19
ENDBRANCH  15  18
ENDBRANCH  12  14
ENDBRANCH   3  12
TORSDOF 5
