REMARK  Name = ZINC00562946
REMARK  5 active torsions:
REMARK  status: ('A' for Active; 'I' for Inactive)
REMARK    1  A    between atoms: C_3  and  N_20
REMARK    2  A    between atoms: C_6  and  C_7
REMARK    3  A    between atoms: C_7  and  N_8
REMARK    4  A    between atoms: N_8  and  C_9
REMARK    5  A    between atoms: C_10  and  C_18
REMARK                            x       y       z     vdW  Elec       q    Type
REMARK                         _______ _______ _______ _____ _____    ______ ____
ROOT
ATOM      1  N   UNL     1      -1.965   6.942  -1.643  0.00  0.00    -0.333 N 
ATOM      2  H   UNL     1      -1.980   7.648  -0.978  0.00  0.00    +0.147 HD
ENDROOT
BRANCH   1   3
ATOM      3  C   UNL     1      -1.622   5.653  -1.276  0.00  0.00    +0.084 A 
ATOM      4  C   UNL     1      -1.272   5.178  -0.020  0.00  0.00    +0.083 A 
ATOM      5  C   UNL     1      -0.952   3.765   0.099  0.00  0.00    -0.018 A 
ATOM      6  C   UNL     1      -1.032   3.059  -1.049  0.00  0.00    -0.004 A 
ATOM      7  S   UNL     1      -1.524   4.239  -2.273  0.00  0.00    -0.077 S 
ATOM      8  C   UNL     1      -0.761   1.597  -1.232  0.00  0.00    +0.043 C 
ATOM      9  C   UNL     1      -0.013   1.086   0.008  0.00  0.00    +0.005 C 
ATOM     10  C   UNL     1      -0.735   1.583   1.264  0.00  0.00    +0.005 C 
ATOM     11  C   UNL     1      -0.551   3.094   1.407  0.00  0.00    +0.037 C 
BRANCH   4  12
ATOM     12  C   UNL     1      -1.228   6.048   1.117  0.00  0.00    +0.102 C 
ATOM     13  N   UNL     1      -1.193   6.737   2.019  0.00  0.00    -0.191 NA
ENDBRANCH   4  12
ENDBRANCH   1   3
BRANCH   1  14
ATOM     14  C   UNL     1      -2.306   7.241  -3.036  0.00  0.00    +0.137 C 
BRANCH  14  20
ATOM     15  C   UNL     1      -3.943   9.134  -3.006  0.00  0.00    +0.007 A 
ATOM     16  C   UNL     1      -4.248  10.478  -3.124  0.00  0.00    +0.033 A 
ATOM     17  C   UNL     1      -3.250  11.390  -3.414  0.00  0.00    +0.126 A 
ATOM     18  C   UNL     1      -1.947  10.960  -3.582  0.00  0.00    +0.033 A 
ATOM     19  C   UNL     1      -1.642   9.617  -3.460  0.00  0.00    +0.007 A 
ATOM     20  C   UNL     1      -2.639   8.705  -3.169  0.00  0.00    -0.030 A 
BRANCH  17  21
ATOM     21  N   UNL     1      -3.578  12.828  -3.544  0.00  0.00    +0.056 N 
ATOM     22  O   UNL     1      -2.699  13.631  -3.799  0.00  0.00    -0.126 OA
ATOM     23  O   UNL     1      -4.726  13.207  -3.396  0.00  0.00    -0.126 OA
ENDBRANCH  17  21
ENDBRANCH  14  20
ENDBRANCH   1  14
TORSDOF 5
