REMARK  Name = ZINC11086916
REMARK  11 active torsions:
REMARK  status: ('A' for Active; 'I' for Inactive)
REMARK    1  A    between atoms: C_1  and  C_2
REMARK    2  A    between atoms: C_5  and  N_8
REMARK    3  A    between atoms: C_12  and  S_13
REMARK    4  A    between atoms: S_13  and  C_14
REMARK    5  A    between atoms: C_14  and  C_15
REMARK    6  A    between atoms: C_15  and  C_17
REMARK    7  A    between atoms: C_18  and  N_30
REMARK    8  A    between atoms: N_19  and  C_26
REMARK    9  A    between atoms: C_26  and  C_27
REMARK   10  A    between atoms: C_27  and  C_28
REMARK   11  A    between atoms: C_27  and  C_29
REMARK                            x       y       z     vdW  Elec       q    Type
REMARK                         _______ _______ _______ _____ _____    ______ ____
ROOT
ATOM      1  S   UNL     1       6.203   4.947   1.125  0.00  0.00    -0.078 S 
ENDROOT
BRANCH   1   6
ATOM      2  N   UNL     1       3.792   3.547   1.329  0.00  0.00    -0.259 N 
ATOM      3  C   UNL     1       3.365   2.260   1.514  0.00  0.00    +0.225 A 
ATOM      4  N   UNL     1       4.423   1.495   1.626  0.00  0.00    -0.112 NA
ATOM      5  N   UNL     1       5.559   2.304   1.502  0.00  0.00    -0.120 NA
ATOM      6  C   UNL     1       5.161   3.541   1.327  0.00  0.00    +0.198 A 
ATOM      7  N   UNL     1       2.043   1.839   1.577  0.00  0.00    -0.299 N 
ATOM      8  C   UNL     1       1.690   1.033   0.401  0.00  0.00    +0.108 C 
ATOM      9  C   UNL     1       0.195   0.710   0.431  0.00  0.00    +0.019 C 
ATOM     10  C   UNL     1      -0.131  -0.057   1.716  0.00  0.00    +0.003 C 
ATOM     11  C   UNL     1       0.290   0.784   2.924  0.00  0.00    +0.019 C 
ATOM     12  C   UNL     1       1.783   1.104   2.821  0.00  0.00    +0.108 C 
BRANCH   2  17
ATOM     13  C   UNL     1       0.471   8.106   0.689  0.00  0.00    +0.044 C 
ATOM     14  C   UNL     1       1.352   6.896   0.859  0.00  0.00    -0.050 A 
ATOM     15  C   UNL     1       2.152   6.777   1.981  0.00  0.00    +0.005 A 
ATOM     16  C   UNL     1       2.961   5.668   2.139  0.00  0.00    +0.026 A 
ATOM     17  C   UNL     1       2.971   4.674   1.171  0.00  0.00    +0.052 A 
ATOM     18  C   UNL     1       2.172   4.799   0.043  0.00  0.00    +0.026 A 
ATOM     19  C   UNL     1       1.360   5.906  -0.107  0.00  0.00    +0.005 A 
ENDBRANCH   2  17
ENDBRANCH   1   6
BRANCH   1  20
ATOM     20  C   UNL     1       7.881   4.266   1.218  0.00  0.00    +0.157 C 
BRANCH  20  21
ATOM     21  C   UNL     1       8.885   5.379   1.057  0.00  0.00    +0.182 C 
ATOM     22  O   UNL     1       8.504   6.521   0.895  0.00  0.00    -0.291 OA
BRANCH  21  23
ATOM     23  C   UNL     1      10.267   5.095   1.094  0.00  0.00    +0.120 A 
ATOM     24  C   UNL     1      11.221   6.126   1.063  0.00  0.00    +0.116 A 
ATOM     25  N   UNL     1      12.546   5.801   1.107  0.00  0.00    -0.281 N 
ATOM     26  C   UNL     1      12.950   4.523   1.168  0.00  0.00    +0.331 A 
ATOM     27  O   UNL     1      14.141   4.286   1.200  0.00  0.00    -0.246 OA
ATOM     28  N   UNL     1      12.085   3.496   1.195  0.00  0.00    -0.274 N 
ATOM     29  H   UNL     1      12.432   2.559   1.240  0.00  0.00    +0.173 HD
ATOM     30  C   UNL     1      10.754   3.711   1.161  0.00  0.00    +0.266 A 
ATOM     31  O   UNL     1       9.973   2.778   1.186  0.00  0.00    -0.267 OA
BRANCH  24  32
ATOM     32  N   UNL     1      10.830   7.428   0.996  0.00  0.00    -0.344 N 
ATOM     33  H   UNL     1       9.892   7.647   0.883  0.00  0.00    +0.144 HD
ATOM     34  H   UNL     1      11.489   8.136   1.061  0.00  0.00    +0.144 HD
ENDBRANCH  24  32
BRANCH  25  35
ATOM     35  C   UNL     1      13.549   6.870   1.081  0.00  0.00    +0.131 C 
BRANCH  35  36
ATOM     36  C   UNL     1      13.924   7.182  -0.369  0.00  0.00    +0.003 C 
ATOM     37  C   UNL     1      14.876   8.379  -0.403  0.00  0.00    +0.009 C 
ATOM     38  C   UNL     1      14.613   5.965  -0.990  0.00  0.00    +0.009 C 
ENDBRANCH  35  36
ENDBRANCH  25  35
ENDBRANCH  21  23
ENDBRANCH  20  21
ENDBRANCH   1  20
TORSDOF 8
