REMARK  Name = ZINC19460137
REMARK  7 active torsions:
REMARK  status: ('A' for Active; 'I' for Inactive)
REMARK    1  A    between atoms: C_1  and  C_2
REMARK    2  A    between atoms: C_2  and  C_32
REMARK    3  A    between atoms: N_5  and  C_9
REMARK    4  A    between atoms: C_9  and  C_10
REMARK    5  A    between atoms: C_10  and  C_11
REMARK    6  A    between atoms: N_13  and  C_14
REMARK    7  A    between atoms: C_24  and  C_26
REMARK                            x       y       z     vdW  Elec       q    Type
REMARK                         _______ _______ _______ _____ _____    ______ ____
ROOT
ATOM      1  C   UNL     1       0.582  -3.918   0.051  0.00  0.00    +0.215 C 
ATOM      2  O   UNL     1      -0.149  -4.454   0.858  0.00  0.00    -0.276 OA
ATOM      3  N   UNL     1       0.726  -2.578   0.059  0.00  0.00    -0.312 N 
ATOM      4  H   UNL     1       1.389  -2.092  -0.672  0.00  0.00    +0.149 HD
ENDROOT
BRANCH   3   5
ATOM      5  C   UNL     1      -0.000  -1.769   1.040  0.00  0.00    +0.084 C 
ATOM      6  C   UNL     1       0.649  -0.449   1.348  0.00  0.00    +0.014 C 
ATOM      7  C   UNL     1       2.135  -0.176   1.220  0.00  0.00    +0.005 C 
ATOM      8  C   UNL     1       2.270   1.358   1.133  0.00  0.00    +0.000 C 
ATOM      9  C   UNL     1       1.450   1.961  -0.009  0.00  0.00    +0.000 C 
ATOM     10  C   UNL     1      -0.023   1.511   0.005  0.00  0.00    +0.004 C 
ATOM     11  C   UNL     1       0.000  -0.003  -0.001  0.00  0.00    +0.003 C 
ATOM     12  C   UNL     1      -1.126  -0.890   0.450  0.00  0.00    +0.043 C 
BRANCH  12  13
ATOM     13  C   UNL     1      -2.022  -0.267   1.489  0.00  0.00    -0.042 A 
ATOM     14  C   UNL     1      -1.802  -0.516   2.831  0.00  0.00    +0.004 A 
ATOM     15  C   UNL     1      -2.622   0.059   3.784  0.00  0.00    +0.000 A 
ATOM     16  C   UNL     1      -3.666   0.877   3.395  0.00  0.00    +0.000 A 
ATOM     17  C   UNL     1      -3.889   1.122   2.053  0.00  0.00    +0.000 A 
ATOM     18  C   UNL     1      -3.067   0.550   1.100  0.00  0.00    +0.004 A 
ENDBRANCH  12  13
ENDBRANCH   3   5
BRANCH   1  19
ATOM     19  C   UNL     1       1.329  -4.751  -0.959  0.00  0.00    +0.115 C 
BRANCH  19  20
ATOM     20  C   UNL     1       0.991  -6.228  -0.751  0.00  0.00    +0.127 C 
BRANCH  20  25
ATOM     21  C   UNL     1       4.532  -7.705  -3.462  0.00  0.00    +0.041 C 
ATOM     22  C   UNL     1       3.290  -8.305  -2.799  0.00  0.00    +0.107 C 
ATOM     23  C   UNL     1       2.946  -7.552  -1.530  0.00  0.00    +0.246 C 
ATOM     24  O   UNL     1       3.634  -7.435  -0.539  0.00  0.00    -0.273 OA
ATOM     25  N   UNL     1       1.717  -7.038  -1.733  0.00  0.00    -0.224 N 
ATOM     26  C   UNL     1       1.240  -7.363  -2.940  0.00  0.00    +0.309 C 
ATOM     27  O   UNL     1       0.148  -7.019  -3.350  0.00  0.00    -0.252 OA
ATOM     28  N   UNL     1       2.104  -8.110  -3.650  0.00  0.00    -0.285 N 
ATOM     29  C   UNL     1       3.502  -9.791  -2.503  0.00  0.00    +0.041 C 
ATOM     30  H   UNL     1       2.070  -8.552  -4.657  0.00  0.00    +0.151 HD
ENDBRANCH  20  25
ENDBRANCH  19  20
ENDBRANCH   1  19
TORSDOF 5
