REMARK  Name = ZINC58499545
REMARK  8 active torsions:
REMARK  status: ('A' for Active; 'I' for Inactive)
REMARK    1  A    between atoms: C_1  and  C_2
REMARK    2  A    between atoms: C_2  and  C_3
REMARK    3  A    between atoms: C_10  and  C_11
REMARK    4  A    between atoms: N_13  and  C_14
REMARK    5  A    between atoms: C_14  and  C_15
REMARK    6  A    between atoms: C_14  and  C_16
REMARK    7  A    between atoms: C_19  and  N_22
REMARK    8  A    between atoms: N_25  and  C_26
REMARK                            x       y       z     vdW  Elec       q    Type
REMARK                         _______ _______ _______ _____ _____    ______ ____
ROOT
ATOM      1  C   UNL     1       2.411   0.002  -5.584  0.00  0.00    +0.100 C 
ATOM      2  C   UNL     1       3.804   0.571  -5.305  0.00  0.00    +0.033 C 
ENDROOT
BRANCH   1   3
ATOM      3  C   UNL     1       2.309  -0.386  -7.037  0.00  0.00    -0.027 A 
ATOM      4  C   UNL     1       2.843  -1.586  -7.470  0.00  0.00    +0.007 A 
ATOM      5  C   UNL     1       2.751  -1.945  -8.800  0.00  0.00    +0.023 A 
ATOM      6  C   UNL     1       2.121  -1.099  -9.704  0.00  0.00    +0.035 A 
ATOM      7  C   UNL     1       1.586   0.105  -9.266  0.00  0.00    +0.023 A 
ATOM      8  C   UNL     1       1.676   0.456  -7.933  0.00  0.00    +0.007 A 
BRANCH   6   9
ATOM      9  N   UNL     1       2.027  -1.459 -11.053  0.00  0.00    -0.269 N 
ATOM     10  C   UNL     1       1.855  -2.752 -11.395  0.00  0.00    +0.304 C 
ATOM     11  O   UNL     1       1.869  -3.614 -10.538  0.00  0.00    -0.253 OA
ATOM     12  N   UNL     1       1.670  -3.088 -12.687  0.00  0.00    -0.296 N 
ATOM     13  H   UNL     1       2.084  -0.779 -11.742  0.00  0.00    +0.156 HD
ATOM     14  H   UNL     1       1.659  -2.400 -13.370  0.00  0.00    +0.151 HD
BRANCH  12  15
ATOM     15  C   UNL     1       1.484  -4.493 -13.058  0.00  0.00    +0.075 C 
ATOM     16  C   UNL     1       2.235  -5.003 -14.290  0.00  0.00    +0.024 C 
ATOM     17  C   UNL     1       0.722  -4.786 -14.352  0.00  0.00    +0.024 C 
ENDBRANCH  12  15
ENDBRANCH   6   9
ENDBRANCH   1   3
BRANCH   1  20
ATOM     18  C   UNL     1       1.736  -1.035  -3.485  0.00  0.00    +0.234 C 
ATOM     19  O   UNL     1       1.512   0.072  -3.044  0.00  0.00    -0.274 OA
ATOM     20  N   UNL     1       2.189  -1.179  -4.746  0.00  0.00    -0.307 N 
ATOM     21  H   UNL     1       2.368  -2.065  -5.099  0.00  0.00    +0.149 HD
BRANCH  18  29
ATOM     22  C   UNL     1       3.285  -1.201  -1.307  0.00  0.00    +0.216 C 
ATOM     23  O   UNL     1       3.486  -0.435  -2.226  0.00  0.00    -0.276 OA
ATOM     24  N   UNL     1       2.364  -2.177  -1.432  0.00  0.00    -0.290 N 
ATOM     25  C   UNL     1       2.193  -3.184  -0.376  0.00  0.00    +0.108 C 
ATOM     26  C   UNL     1       0.719  -3.216   0.041  0.00  0.00    +0.019 C 
ATOM     27  C   UNL     1      -0.152  -3.448  -1.195  0.00  0.00    +0.004 C 
ATOM     28  C   UNL     1       0.046  -2.296  -2.184  0.00  0.00    +0.032 C 
ATOM     29  C   UNL     1       1.508  -2.250  -2.623  0.00  0.00    +0.162 C 
BRANCH  22  31
ATOM     30  C   UNL     1       5.037   0.115  -0.146  0.00  0.00    +0.013 C 
ATOM     31  C   UNL     1       4.066  -1.061  -0.026  0.00  0.00    +0.092 C 
ENDBRANCH  22  31
ENDBRANCH  18  29
ENDBRANCH   1  20
TORSDOF 6
