REMARK  Name = ZINC11916571
REMARK  8 active torsions:
REMARK  status: ('A' for Active; 'I' for Inactive)
REMARK    1  A    between atoms: C_1  and  C_2
REMARK    2  A    between atoms: C_2  and  C_3
REMARK    3  A    between atoms: C_6  and  N_9
REMARK    4  A    between atoms: C_14  and  C_16
REMARK    5  A    between atoms: N_18  and  C_19
REMARK    6  A    between atoms: C_20  and  C_27
REMARK    7  A    between atoms: N_29  and  C_30
REMARK    8  A    between atoms: C_30  and  C_31
REMARK                            x       y       z     vdW  Elec       q    Type
REMARK                         _______ _______ _______ _____ _____    ______ ____
ROOT
ATOM      1  C   UNL     1      -4.251   6.709  -0.066  0.00  0.00    +0.273 C 
ATOM      2  O   UNL     1      -4.082   7.911  -0.143  0.00  0.00    -0.268 OA
ATOM      3  N   UNL     1      -3.267   5.865  -0.433  0.00  0.00    -0.274 N 
ATOM      4  H   UNL     1      -3.402   4.906  -0.371  0.00  0.00    +0.156 HD
ENDROOT
BRANCH   3   5
ATOM      5  C   UNL     1      -2.062   6.366  -0.897  0.00  0.00    +0.085 A 
ATOM      6  C   UNL     1      -0.943   5.666  -1.316  0.00  0.00    +0.069 A 
ATOM      7  C   UNL     1       0.214   6.442  -1.760  0.00  0.00    -0.023 A 
ATOM      8  C   UNL     1       0.056   7.777  -1.719  0.00  0.00    -0.004 A 
ATOM      9  S   UNL     1      -1.589   8.019  -1.095  0.00  0.00    -0.077 S 
ATOM     10  C   UNL     1       1.286   8.505  -2.191  0.00  0.00    +0.043 C 
ATOM     11  C   UNL     1       2.412   7.446  -2.128  0.00  0.00    +0.010 C 
ATOM     12  C   UNL     1       1.616   6.136  -2.290  0.00  0.00    +0.037 C 
BRANCH   6  13
ATOM     13  C   UNL     1      -0.917   4.200  -1.309  0.00  0.00    +0.247 C 
ATOM     14  O   UNL     1      -1.282   3.580  -2.291  0.00  0.00    -0.270 OA
ATOM     15  N   UNL     1      -0.489   3.539  -0.215  0.00  0.00    -0.309 N 
ATOM     16  H   UNL     1      -0.199   4.033   0.567  0.00  0.00    +0.149 HD
BRANCH  15  17
ATOM     17  C   UNL     1      -0.464   2.074  -0.208  0.00  0.00    +0.136 C 
BRANCH  17  18
ATOM     18  C   UNL     1       0.059   1.579   1.142  0.00  0.00    +0.135 C 
ATOM     19  C   UNL     1       0.090   0.039   1.160  0.00  0.00    +0.035 C 
ATOM     20  C   UNL     1       1.573  -0.308   1.439  0.00  0.00    +0.031 C 
ATOM     21  C   UNL     1       2.098   1.004   2.077  0.00  0.00    +0.160 C 
ATOM     22  O   UNL     1       1.407   2.036   1.341  0.00  0.00    -0.375 OA
ENDBRANCH  17  18
ENDBRANCH  15  17
ENDBRANCH   6  13
ENDBRANCH   3   5
BRANCH   1  28
ATOM     23  N   UNL     1      -6.836   4.382   0.942  0.00  0.00    -0.239 N 
ATOM     24  C   UNL     1      -7.889   5.141   1.335  0.00  0.00    +0.117 A 
ATOM     25  C   UNL     1      -7.823   6.493   1.297  0.00  0.00    +0.073 A 
ATOM     26  C   UNL     1      -6.617   7.085   0.838  0.00  0.00    +0.212 A 
ATOM     27  O   UNL     1      -6.485   8.297   0.781  0.00  0.00    -0.285 OA
ATOM     28  C   UNL     1      -5.535   6.175   0.428  0.00  0.00    +0.193 A 
ATOM     29  N   UNL     1      -5.732   4.877   0.517  0.00  0.00    -0.158 NA
BRANCH  23  33
ATOM     30  C   UNL     1      -7.207   0.237   1.124  0.00  0.00    -0.047 A 
ATOM     31  C   UNL     1      -6.169   0.806   0.410  0.00  0.00    +0.006 A 
ATOM     32  C   UNL     1      -6.043   2.180   0.347  0.00  0.00    +0.028 A 
ATOM     33  C   UNL     1      -6.961   2.990   1.003  0.00  0.00    +0.065 A 
ATOM     34  C   UNL     1      -8.000   2.416   1.724  0.00  0.00    +0.028 A 
ATOM     35  C   UNL     1      -8.123   1.041   1.779  0.00  0.00    +0.006 A 
BRANCH  30  37
ATOM     36  C   UNL     1      -6.561  -1.792   2.395  0.00  0.00    +0.009 C 
ATOM     37  C   UNL     1      -7.342  -1.262   1.190  0.00  0.00    +0.032 C 
ENDBRANCH  30  37
ENDBRANCH  23  33
ENDBRANCH   1  28
TORSDOF 7
