REMARK  Name = ZINC09670545
REMARK  9 active torsions:
REMARK  status: ('A' for Active; 'I' for Inactive)
REMARK    1  A    between atoms: C_1  and  C_2
REMARK    2  A    between atoms: C_2  and  C_3
REMARK    3  A    between atoms: C_12  and  C_13
REMARK    4  A    between atoms: C_13  and  C_15
REMARK    5  A    between atoms: C_15  and  C_17
REMARK    6  A    between atoms: C_15  and  O_23
REMARK    7  A    between atoms: O_23  and  C_24
REMARK    8  A    between atoms: C_24  and  C_26
REMARK    9  A    between atoms: C_26  and  N_27
REMARK                            x       y       z     vdW  Elec       q    Type
REMARK                         _______ _______ _______ _____ _____    ______ ____
ROOT
ATOM      1  C   UNL     1      -3.168   3.924   0.053  0.00  0.00    +0.277 C 
ENDROOT
BRANCH   1   2
ATOM      2  C   UNL     1      -3.621   3.491  -1.317  0.00  0.00    +0.000 A 
ATOM      3  C   UNL     1      -3.817   4.432  -2.310  0.00  0.00    +0.008 A 
ATOM      4  C   UNL     1      -4.228   4.035  -3.568  0.00  0.00    +0.000 A 
ATOM      5  C   UNL     1      -4.453   2.696  -3.831  0.00  0.00    +0.000 A 
ATOM      6  C   UNL     1      -4.262   1.755  -2.837  0.00  0.00    +0.000 A 
ATOM      7  C   UNL     1      -3.846   2.152  -1.579  0.00  0.00    +0.008 A 
ENDBRANCH   1   2
BRANCH   1   8
ATOM      8  C   UNL     1      -1.679   4.156   0.040  0.00  0.00    +0.210 C 
ATOM      9  O   UNL     1      -1.241   5.288   0.042  0.00  0.00    -0.288 OA
BRANCH   8  19
ATOM     10  C   UNL     1       2.477   1.488  -0.014  0.00  0.00    -0.024 A 
ATOM     11  C   UNL     1       3.389   2.520  -0.018  0.00  0.00    +0.005 A 
ATOM     12  C   UNL     1       2.963   3.840  -0.007  0.00  0.00    +0.001 A 
ATOM     13  C   UNL     1       1.617   4.136   0.008  0.00  0.00    +0.011 A 
ATOM     14  C   UNL     1       0.685   3.103   0.012  0.00  0.00    +0.011 A 
ATOM     15  C   UNL     1       1.114   1.766   0.001  0.00  0.00    +0.050 A 
ATOM     16  N   UNL     1      -0.011   0.966   0.007  0.00  0.00    -0.360 N 
ATOM     17  H   UNL     1       0.002  -0.004   0.002  0.00  0.00    +0.165 HD
ATOM     18  C   UNL     1      -1.129   1.716   0.016  0.00  0.00    +0.095 A 
ATOM     19  C   UNL     1      -0.790   3.053   0.026  0.00  0.00    +0.047 A 
BRANCH  10  21
ATOM     20  C   UNL     1       2.983  -0.458  -1.466  0.00  0.00    +0.009 C 
ATOM     21  C   UNL     1       2.954   0.059  -0.026  0.00  0.00    +0.034 C 
ENDBRANCH  10  21
ENDBRANCH   8  19
ENDBRANCH   1   8
BRANCH   1  22
ATOM     22  O   UNL     1      -3.846   5.154   0.421  0.00  0.00    -0.447 OA
BRANCH  22  23
ATOM     23  C   UNL     1      -5.016   5.035   1.068  0.00  0.00    +0.326 C 
ATOM     24  O   UNL     1      -5.459   3.939   1.320  0.00  0.00    -0.249 OA
BRANCH  23  25
ATOM     25  C   UNL     1      -5.777   6.268   1.482  0.00  0.00    +0.238 C 
BRANCH  25  26
ATOM     26  N   UNL     1      -7.011   5.874   2.166  0.00  0.00    -0.213 N 
ATOM     27  C   UNL     1      -7.110   5.676   3.498  0.00  0.00    +0.247 C 
ATOM     28  O   UNL     1      -6.231   5.785   4.326  0.00  0.00    -0.273 OA
ATOM     29  C   UNL     1      -8.547   5.289   3.737  0.00  0.00    +0.113 C 
ATOM     30  C   UNL     1      -9.236   6.284   4.681  0.00  0.00    +0.035 C 
ATOM     31  C   UNL     1     -10.211   5.405   5.506  0.00  0.00    +0.003 C 
ATOM     32  C   UNL     1      -9.406   4.097   5.711  0.00  0.00    +0.003 C 
ATOM     33  C   UNL     1      -8.652   3.903   4.377  0.00  0.00    +0.035 C 
ATOM     34  N   UNL     1      -9.159   5.312   2.407  0.00  0.00    -0.285 N 
ATOM     35  C   UNL     1      -8.183   5.671   1.550  0.00  0.00    +0.310 C 
ATOM     36  O   UNL     1      -8.346   5.793   0.351  0.00  0.00    -0.252 OA
ATOM     37  H   UNL     1     -10.082   5.112   2.187  0.00  0.00    +0.151 HD
ENDBRANCH  25  26
ENDBRANCH  23  25
ENDBRANCH  22  23
ENDBRANCH   1  22
TORSDOF 8
