REMARK  Name = ZINC15520633
REMARK  9 active torsions:
REMARK  status: ('A' for Active; 'I' for Inactive)
REMARK    1  A    between atoms: C_1  and  C_2
REMARK    2  A    between atoms: C_6  and  C_28
REMARK    3  A    between atoms: C_7  and  N_8
REMARK    4  A    between atoms: C_9  and  S_13
REMARK    5  A    between atoms: S_13  and  C_14
REMARK    6  A    between atoms: C_14  and  C_16
REMARK    7  A    between atoms: C_14  and  C_17
REMARK    8  A    between atoms: N_19  and  C_20
REMARK    9  A    between atoms: C_20  and  C_26
REMARK                            x       y       z     vdW  Elec       q    Type
REMARK                         _______ _______ _______ _____ _____    ______ ____
ROOT
ATOM      1  S   UNL     1       4.986   1.479   1.891  0.00  0.00    -0.072 S 
ENDROOT
BRANCH   1   3
ATOM      2  N   UNL     1       7.729   1.601   2.390  0.00  0.00    -0.187 N 
ATOM      3  C   UNL     1       6.614   2.151   1.846  0.00  0.00    +0.215 A 
ATOM      4  N   UNL     1       6.980   3.277   1.274  0.00  0.00    -0.101 NA
ATOM      5  N   UNL     1       8.239   3.473   1.430  0.00  0.00    -0.022 NA
ATOM      6  N   UNL     1       8.767   2.502   2.093  0.00  0.00    -0.038 NA
BRANCH   2  13
ATOM      7  C   UNL     1       6.181   1.303   4.761  0.00  0.00    +0.046 C 
ATOM      8  C   UNL     1       7.087   0.208   4.259  0.00  0.00    -0.025 A 
ATOM      9  C   UNL     1       7.180  -0.984   4.951  0.00  0.00    +0.005 A 
ATOM     10  C   UNL     1       8.015  -1.987   4.494  0.00  0.00    +0.001 A 
ATOM     11  C   UNL     1       8.756  -1.802   3.341  0.00  0.00    +0.005 A 
ATOM     12  C   UNL     1       8.663  -0.614   2.642  0.00  0.00    -0.025 A 
ATOM     13  C   UNL     1       7.825   0.394   3.098  0.00  0.00    +0.076 A 
ATOM     14  C   UNL     1       9.471  -0.413   1.386  0.00  0.00    +0.046 C 
ENDBRANCH   2  13
ENDBRANCH   1   3
BRANCH   1  15
ATOM     15  C   UNL     1       4.092   2.760   0.976  0.00  0.00    +0.137 C 
ATOM     16  C   UNL     1       4.127   4.069   1.766  0.00  0.00    +0.029 C 
BRANCH  15  17
ATOM     17  C   UNL     1       2.661   2.330   0.779  0.00  0.00    +0.227 C 
ATOM     18  O   UNL     1       2.153   1.542   1.548  0.00  0.00    -0.275 OA
ATOM     19  N   UNL     1       1.946   2.821  -0.253  0.00  0.00    -0.296 N 
ATOM     20  H   UNL     1       2.353   3.451  -0.868  0.00  0.00    +0.150 HD
BRANCH  19  21
ATOM     21  C   UNL     1       0.555   2.404  -0.445  0.00  0.00    +0.121 C 
ATOM     22  C   UNL     1      -0.266   2.784   0.789  0.00  0.00    +0.041 C 
ATOM     23  C   UNL     1      -1.719   2.348   0.589  0.00  0.00    +0.003 C 
ATOM     24  C   UNL     1      -2.296   3.047  -0.644  0.00  0.00    +0.000 C 
ATOM     25  C   UNL     1      -1.475   2.667  -1.877  0.00  0.00    +0.003 C 
ATOM     26  C   UNL     1      -0.022   3.103  -1.677  0.00  0.00    +0.041 C 
BRANCH  21  27
ATOM     27  C   UNL     1       0.503   0.945  -0.638  0.00  0.00    +0.088 C 
ATOM     28  N   UNL     1       0.462  -0.180  -0.787  0.00  0.00    -0.194 NA
ENDBRANCH  21  27
ENDBRANCH  19  21
ENDBRANCH  15  17
ENDBRANCH   1  15
TORSDOF 6
