REMARK  Name = ZINC40110691
REMARK  10 active torsions:
REMARK  status: ('A' for Active; 'I' for Inactive)
REMARK    1  A    between atoms: C_1  and  N_2
REMARK    2  A    between atoms: N_2  and  C_3
REMARK    3  A    between atoms: N_2  and  S_4
REMARK    4  A    between atoms: S_4  and  C_7
REMARK    5  A    between atoms: C_10  and  C_13
REMARK    6  A    between atoms: C_13  and  C_15
REMARK    7  A    between atoms: N_19  and  C_30
REMARK    8  A    between atoms: C_20  and  C_22
REMARK    9  A    between atoms: C_30  and  C_31
REMARK   10  A    between atoms: C_31  and  O_32
REMARK                            x       y       z     vdW  Elec       q    Type
REMARK                         _______ _______ _______ _____ _____    ______ ____
ROOT
ATOM      1  C   UNL     1      -2.737  -3.084  -6.679  0.00  0.00    +0.076 C 
ATOM      2  C   UNL     1      -2.877  -3.465  -7.971  0.00  0.00    +0.249 C 
ATOM      3  C   UNL     1      -2.103  -4.703  -8.199  0.00  0.00    +0.288 C 
ATOM      4  O   UNL     1      -2.028  -5.294  -9.258  0.00  0.00    -0.266 OA
ATOM      5  N   UNL     1      -1.494  -5.080  -7.060  0.00  0.00    -0.281 N 
ATOM      6  C   UNL     1      -1.833  -4.100  -6.021  0.00  0.00    +0.146 C 
ATOM      7  O   UNL     1      -3.609  -2.815  -8.905  0.00  0.00    -0.282 OA
ENDROOT
BRANCH   6   8
ATOM      8  C   UNL     1      -2.556  -4.780  -4.888  0.00  0.00    -0.004 A 
ATOM      9  C   UNL     1      -3.232  -5.965  -5.111  0.00  0.00    +0.008 A 
ATOM     10  C   UNL     1      -3.896  -6.589  -4.072  0.00  0.00    +0.020 A 
ATOM     11  C   UNL     1      -3.884  -6.028  -2.807  0.00  0.00    +0.042 A 
ATOM     12  C   UNL     1      -3.208  -4.843  -2.583  0.00  0.00    +0.040 A 
ATOM     13  C   UNL     1      -2.540  -4.221  -3.622  0.00  0.00    +0.048 A 
ATOM     14 CL   UNL     1      -1.686  -2.736  -3.340  0.00  0.00    -0.083 Cl
ATOM     15 CL   UNL     1      -4.718  -6.812  -1.502  0.00  0.00    -0.083 Cl
ENDBRANCH   6   8
BRANCH   1  16
ATOM     16  C   UNL     1      -3.341  -1.909  -6.044  0.00  0.00    +0.195 C 
ATOM     17  O   UNL     1      -4.303  -2.042  -5.310  0.00  0.00    -0.287 OA
BRANCH  16  21
ATOM     18  C   UNL     1      -1.735   1.957  -6.763  0.00  0.00    +0.105 A 
ATOM     19  C   UNL     1      -2.897   1.820  -6.024  0.00  0.00    +0.029 A 
ATOM     20  C   UNL     1      -3.424   0.568  -5.787  0.00  0.00    +0.013 A 
ATOM     21  C   UNL     1      -2.782  -0.564  -6.295  0.00  0.00    +0.022 A 
ATOM     22  C   UNL     1      -1.610  -0.419  -7.040  0.00  0.00    +0.013 A 
ATOM     23  C   UNL     1      -1.097   0.840  -7.274  0.00  0.00    +0.029 A 
BRANCH  18  24
ATOM     24  S   UNL     1      -1.069   3.561  -7.061  0.00  0.00    +0.060 S 
ATOM     25  O   UNL     1       0.317   3.383  -7.321  0.00  0.00    -0.153 OA
ATOM     26  O   UNL     1      -1.547   4.399  -6.019  0.00  0.00    -0.153 OA
BRANCH  24  28
ATOM     27  C   UNL     1      -2.994   4.883  -8.425  0.00  0.00    +0.131 C 
ATOM     28  N   UNL     1      -1.745   4.118  -8.466  0.00  0.00    -0.183 NA
ATOM     29  C   UNL     1      -1.095   3.847  -9.751  0.00  0.00    +0.131 C 
ENDBRANCH  24  28
ENDBRANCH  18  24
ENDBRANCH  16  21
ENDBRANCH   1  16
BRANCH   5  30
ATOM     30  C   UNL     1      -0.639  -6.257  -6.888  0.00  0.00    +0.137 C 
BRANCH  30  31
ATOM     31  C   UNL     1       0.814  -5.879  -7.185  0.00  0.00    +0.175 C 
BRANCH  31  32
ATOM     32  O   UNL     1       1.269  -4.936  -6.213  0.00  0.00    -0.393 OA
ATOM     33  H   UNL     1       2.184  -4.651  -6.339  0.00  0.00    +0.209 HD
ENDBRANCH  31  32
ENDBRANCH  30  31
ENDBRANCH   5  30
TORSDOF 8
