REMARK  Name = ZINC56776836
REMARK  5 active torsions:
REMARK  status: ('A' for Active; 'I' for Inactive)
REMARK    1  A    between atoms: C_3  and  C_24
REMARK    2  A    between atoms: C_5  and  N_7
REMARK    3  A    between atoms: N_10  and  C_11
REMARK    4  A    between atoms: C_11  and  C_12
REMARK    5  A    between atoms: C_12  and  C_13
REMARK                            x       y       z     vdW  Elec       q    Type
REMARK                         _______ _______ _______ _____ _____    ______ ____
ROOT
ATOM      1  N   UNL     1       1.226  -2.087  -0.021  0.00  0.00    -0.269 N 
ATOM      2  C   UNL     1       0.071  -2.773   0.088  0.00  0.00    +0.304 C 
ATOM      3  O   UNL     1      -0.990  -2.179   0.102  0.00  0.00    -0.253 OA
ATOM      4  N   UNL     1       0.092  -4.117   0.181  0.00  0.00    -0.299 N 
ATOM      5  H   UNL     1       2.066  -2.563  -0.110  0.00  0.00    +0.156 HD
ATOM      6  H   UNL     1       0.938  -4.591   0.170  0.00  0.00    +0.150 HD
ENDROOT
BRANCH   1  11
ATOM      7  C   UNL     1       2.133   1.406  -0.746  0.00  0.00    +0.002 A 
ATOM      8  C   UNL     1       1.202   2.089   0.012  0.00  0.00    +0.010 A 
ATOM      9  C   UNL     1       0.266   1.384   0.769  0.00  0.00    +0.009 A 
ATOM     10  C   UNL     1       0.275  -0.011   0.757  0.00  0.00    +0.034 A 
ATOM     11  C   UNL     1       1.213  -0.687  -0.007  0.00  0.00    +0.035 A 
ATOM     12  C   UNL     1       2.142   0.024  -0.757  0.00  0.00    +0.023 A 
BRANCH   9  13
ATOM     13  C   UNL     1      -0.732   2.112   1.581  0.00  0.00    +0.108 A 
ATOM     14  N   UNL     1      -1.689   1.636   2.364  0.00  0.00    -0.247 NA
ATOM     15  C   UNL     1      -2.495   2.437   3.020  0.00  0.00    +0.119 A 
ATOM     16  C   UNL     1      -2.355   3.784   2.902  0.00  0.00    +0.067 A 
ATOM     17  S   UNL     1      -0.966   3.874   1.778  0.00  0.00    -0.076 S 
ENDBRANCH   9  13
ENDBRANCH   1  11
BRANCH   4  18
ATOM     18  C   UNL     1      -1.164  -4.862   0.300  0.00  0.00    +0.110 C 
BRANCH  18  19
ATOM     19  C   UNL     1      -0.862  -6.359   0.390  0.00  0.00    +0.057 C 
BRANCH  19  20
ATOM     20  C   UNL     1      -2.153  -7.126   0.511  0.00  0.00    -0.001 A 
ATOM     21  C   UNL     1      -2.632  -7.479   1.758  0.00  0.00    +0.045 A 
ATOM     22  C   UNL     1      -3.818  -8.184   1.871  0.00  0.00    +0.124 A 
ATOM     23  C   UNL     1      -4.524  -8.537   0.734  0.00  0.00    +0.047 A 
ATOM     24  C   UNL     1      -4.047  -8.187  -0.515  0.00  0.00    +0.023 A 
ATOM     25  C   UNL     1      -2.864  -7.473  -0.629  0.00  0.00    +0.132 A 
ATOM     26  O   UNL     1      -2.391  -7.110  -1.851  0.00  0.00    -0.466 OA
ATOM     27  C   UNL     1      -2.945  -7.784  -2.985  0.00  0.00    +0.394 C 
ATOM     28  O   UNL     1      -4.372  -7.795  -2.859  0.00  0.00    -0.339 OA
ATOM     29  C   UNL     1      -4.823  -8.580  -1.747  0.00  0.00    +0.202 C 
ATOM     30  F   UNL     1      -4.286  -8.527   3.091  0.00  0.00    -0.205 F 
ENDBRANCH  19  20
ENDBRANCH  18  19
ENDBRANCH   4  18
TORSDOF 5
