REMARK  Name = ZINC15389859
REMARK  8 active torsions:
REMARK  status: ('A' for Active; 'I' for Inactive)
REMARK    1  A    between atoms: C_1  and  C_2
REMARK    2  A    between atoms: C_2  and  C_3
REMARK    3  A    between atoms: C_2  and  C_4
REMARK    4  A    between atoms: C_7  and  S_10
REMARK    5  A    between atoms: S_10  and  N_13
REMARK    6  A    between atoms: C_16  and  C_19
REMARK    7  A    between atoms: N_21  and  C_22
REMARK    8  A    between atoms: C_26  and  N_28
REMARK                            x       y       z     vdW  Elec       q    Type
REMARK                         _______ _______ _______ _____ _____    ______ ____
ROOT
ATOM      1  N   UNL     1       1.150   4.342   1.581  0.00  0.00    -0.177 NA
ATOM      2  C   UNL     1      -0.112   4.551   2.305  0.00  0.00    +0.110 C 
ATOM      3  C   UNL     1      -0.106   5.948   2.922  0.00  0.00    +0.030 C 
ATOM      4  C   UNL     1       1.148   6.118   3.783  0.00  0.00    +0.078 C 
ATOM      5  C   UNL     1       2.394   5.970   2.907  0.00  0.00    +0.030 C 
ATOM      6  C   UNL     1       2.416   4.567   2.291  0.00  0.00    +0.110 C 
ENDROOT
BRANCH   4   7
ATOM      7  C   UNL     1       1.140   7.485   4.418  0.00  0.00    +0.220 C 
ATOM      8  O   UNL     1       2.042   8.264   4.192  0.00  0.00    -0.275 OA
ATOM      9  N   UNL     1       0.130   7.842   5.236  0.00  0.00    -0.285 N 
ATOM     10  H   UNL     1      -0.624   7.245   5.365  0.00  0.00    +0.155 HD
BRANCH   9  11
ATOM     11  C   UNL     1       0.171   9.072   5.902  0.00  0.00    +0.036 A 
ATOM     12  C   UNL     1       0.732  10.181   5.281  0.00  0.00    +0.023 A 
ATOM     13  C   UNL     1       0.770  11.393   5.940  0.00  0.00    +0.004 A 
ATOM     14  C   UNL     1       0.250  11.505   7.216  0.00  0.00    +0.033 A 
ATOM     15  C   UNL     1      -0.309  10.404   7.837  0.00  0.00    +0.128 A 
ATOM     16  C   UNL     1      -0.355   9.189   7.181  0.00  0.00    +0.056 A 
BRANCH  15  17
ATOM     17  N   UNL     1      -0.866  10.528   9.203  0.00  0.00    +0.056 N 
ATOM     18  O   UNL     1      -0.830  11.600   9.780  0.00  0.00    -0.126 OA
ATOM     19  O   UNL     1      -1.359   9.558   9.751  0.00  0.00    -0.126 OA
ENDBRANCH  15  17
ENDBRANCH   9  11
ENDBRANCH   4   7
BRANCH   1  20
ATOM     20  S   UNL     1       1.144   3.869  -0.006  0.00  0.00    +0.061 S 
ATOM     21  O   UNL     1       2.382   4.291  -0.560  0.00  0.00    -0.153 OA
ATOM     22  O   UNL     1      -0.108   4.269  -0.545  0.00  0.00    -0.153 OA
BRANCH  20  26
ATOM     23  C   UNL     1       1.184  -0.658  -0.052  0.00  0.00    -0.045 A 
ATOM     24  C   UNL     1      -0.019   0.023  -0.038  0.00  0.00    +0.006 A 
ATOM     25  C   UNL     1      -0.032   1.405  -0.023  0.00  0.00    +0.029 A 
ATOM     26  C   UNL     1       1.160   2.107  -0.024  0.00  0.00    +0.105 A 
ATOM     27  C   UNL     1       2.363   1.426  -0.040  0.00  0.00    +0.029 A 
ATOM     28  C   UNL     1       2.375   0.044  -0.053  0.00  0.00    +0.006 A 
BRANCH  23  30
ATOM     29  C   UNL     1       1.914  -2.656  -1.326  0.00  0.00    +0.012 C 
ATOM     30  C   UNL     1       1.197  -2.164  -0.067  0.00  0.00    +0.013 C 
ATOM     31  C   UNL     1       1.931  -2.680   1.172  0.00  0.00    +0.012 C 
ENDBRANCH  23  30
ENDBRANCH  20  26
ENDBRANCH   1  20
TORSDOF 6
