REMARK  Name = ZINC31631253
REMARK  4 active torsions:
REMARK  status: ('A' for Active; 'I' for Inactive)
REMARK    1  A    between atoms: N_10  and  C_14
REMARK    2  A    between atoms: C_14  and  C_15
REMARK    3  A    between atoms: N_17  and  C_18
REMARK    4  A    between atoms: C_19  and  C_26
REMARK                            x       y       z     vdW  Elec       q    Type
REMARK                         _______ _______ _______ _____ _____    ______ ____
ROOT
ATOM      1  C   UNL     1      -2.366   2.061   0.025  0.00  0.00    +0.236 C 
ATOM      2  O   UNL     1      -2.527   0.859   0.020  0.00  0.00    -0.274 OA
ATOM      3  N   UNL     1      -1.119   2.573   0.022  0.00  0.00    -0.278 N 
ATOM      4  H   UNL     1      -0.973   3.663   0.026  0.00  0.00    +0.155 HD
ENDROOT
BRANCH   3   5
ATOM      5  C   UNL     1      -0.021   1.726   0.011  0.00  0.00    +0.084 A 
ATOM      6  C   UNL     1       1.322   2.060   0.001  0.00  0.00    +0.068 A 
ATOM      7  C   UNL     1       2.292   0.965  -0.015  0.00  0.00    -0.023 A 
ATOM      8  C   UNL     1       1.758  -0.270  -0.016  0.00  0.00    -0.004 A 
ATOM      9  S   UNL     1       0.002  -0.004   0.002  0.00  0.00    -0.077 S 
ATOM     10  C   UNL     1       2.815  -1.341  -0.029  0.00  0.00    +0.043 C 
ATOM     11  C   UNL     1       4.109  -0.616   0.401  0.00  0.00    +0.010 C 
ATOM     12  C   UNL     1       3.815   0.835  -0.033  0.00  0.00    +0.037 C 
BRANCH   6  13
ATOM     13  C   UNL     1       1.758   3.460   0.004  0.00  0.00    +0.244 C 
ATOM     14  O   UNL     1       1.949   4.035   1.059  0.00  0.00    -0.270 OA
ATOM     15  N   UNL     1       1.946   4.110  -1.162  0.00  0.00    -0.325 N 
ATOM     16  H   UNL     1       2.273   5.160  -1.159  0.00  0.00    +0.145 HD
ATOM     17  H   UNL     1       1.773   3.590  -2.115  0.00  0.00    +0.145 HD
ENDBRANCH   6  13
ENDBRANCH   3   5
BRANCH   1  18
ATOM     18  C   UNL     1      -3.559   2.981   0.036  0.00  0.00    +0.214 C 
BRANCH  18  28
ATOM     19  C   UNL     1      -9.896   0.259   0.768  0.00  0.00    +0.000 C 
ATOM     20  C   UNL     1      -9.059  -0.858   1.420  0.00  0.00    +0.000 C 
ATOM     21  C   UNL     1      -7.832  -1.196   0.616  0.00  0.00    +0.003 C 
ATOM     22  C   UNL     1      -6.648  -0.381   1.168  0.00  0.00    +0.035 C 
ATOM     23  C   UNL     1      -6.634   0.992   0.679  0.00  0.00    +0.113 C 
ATOM     24  C   UNL     1      -7.895   1.777   1.104  0.00  0.00    +0.035 C 
ATOM     25  C   UNL     1      -9.031   1.398   0.195  0.00  0.00    +0.003 C 
ATOM     26  C   UNL     1      -5.418   1.770   1.154  0.00  0.00    +0.247 C 
ATOM     27  O   UNL     1      -5.084   1.973   2.302  0.00  0.00    -0.273 OA
ATOM     28  N   UNL     1      -4.789   2.186   0.039  0.00  0.00    -0.215 N 
ATOM     29  C   UNL     1      -5.429   1.788  -1.066  0.00  0.00    +0.310 C 
ATOM     30  O   UNL     1      -5.054   2.047  -2.193  0.00  0.00    -0.252 OA
ATOM     31  N   UNL     1      -6.530   1.069  -0.792  0.00  0.00    -0.285 N 
ATOM     32  H   UNL     1      -7.287   0.579  -1.423  0.00  0.00    +0.151 HD
ENDBRANCH  18  28
ENDBRANCH   1  18
TORSDOF 4
