REMARK  Name = ZINC24144759
REMARK  11 active torsions:
REMARK  status: ('A' for Active; 'I' for Inactive)
REMARK    1  A    between atoms: C_1  and  C_2
REMARK    2  A    between atoms: C_2  and  C_3
REMARK    3  A    between atoms: C_3  and  C_29
REMARK    4  A    between atoms: N_6  and  N_10
REMARK    5  A    between atoms: C_11  and  C_13
REMARK    6  A    between atoms: C_13  and  S_14
REMARK    7  A    between atoms: S_14  and  C_15
REMARK    8  A    between atoms: C_18  and  C_22
REMARK    9  A    between atoms: N_19  and  C_20
REMARK   10  A    between atoms: C_20  and  C_21
REMARK   11  A    between atoms: C_22  and  C_23
REMARK                            x       y       z     vdW  Elec       q    Type
REMARK                         _______ _______ _______ _____ _____    ______ ____
ROOT
ATOM      1  N   UNL     1      -1.272  -0.563  -0.157  0.00  0.00    -0.223 N 
ATOM      2  C   UNL     1      -1.568  -1.345  -1.213  0.00  0.00    +0.240 C 
ATOM      3  O   UNL     1      -0.825  -1.377  -2.171  0.00  0.00    -0.273 OA
ATOM      4  H   UNL     1      -1.946  -0.534   0.712  0.00  0.00    +0.174 HD
ENDROOT
BRANCH   1   8
ATOM      5  C   UNL     1       1.371   1.952  -0.285  0.00  0.00    +0.139 C 
ATOM      6  C   UNL     1      -0.088   1.548  -0.356  0.00  0.00    +0.268 C 
ATOM      7  O   UNL     1      -1.040   2.274  -0.551  0.00  0.00    -0.271 OA
ATOM      8  N   UNL     1      -0.107   0.215  -0.165  0.00  0.00    -0.137 N 
ATOM      9  C   UNL     1       1.125  -0.275   0.016  0.00  0.00    +0.327 C 
ATOM     10  O   UNL     1       1.362  -1.452   0.207  0.00  0.00    -0.251 OA
ATOM     11  N   UNL     1       2.071   0.679  -0.038  0.00  0.00    -0.280 N 
ATOM     12  H   UNL     1       3.166   0.664   0.061  0.00  0.00    +0.152 HD
BRANCH   5  13
ATOM     13  C   UNL     1       1.601   2.913   0.853  0.00  0.00    -0.015 A 
ATOM     14  C   UNL     1       1.507   4.275   0.638  0.00  0.00    +0.006 A 
ATOM     15  C   UNL     1       1.712   5.156   1.683  0.00  0.00    +0.000 A 
ATOM     16  C   UNL     1       2.022   4.675   2.942  0.00  0.00    +0.000 A 
ATOM     17  C   UNL     1       2.121   3.313   3.156  0.00  0.00    +0.000 A 
ATOM     18  C   UNL     1       1.911   2.432   2.112  0.00  0.00    +0.006 A 
ENDBRANCH   5  13
BRANCH   5  20
ATOM     19  C   UNL     1       1.631   1.551  -2.738  0.00  0.00    +0.007 C 
ATOM     20  C   UNL     1       1.825   2.568  -1.610  0.00  0.00    +0.037 C 
ENDBRANCH   5  20
ENDBRANCH   1   8
BRANCH   2  21
ATOM     21  C   UNL     1      -2.821  -2.182  -1.204  0.00  0.00    +0.174 C 
BRANCH  21  22
ATOM     22  S   UNL     1      -2.936  -3.114  -2.752  0.00  0.00    -0.077 S 
BRANCH  22  23
ATOM     23  C   UNL     1      -4.447  -3.977  -2.478  0.00  0.00    +0.192 A 
ATOM     24  N   UNL     1      -5.206  -3.903  -1.409  0.00  0.00    -0.122 NA
ATOM     25  N   UNL     1      -6.233  -4.663  -1.549  0.00  0.00    -0.133 NA
ATOM     26  C   UNL     1      -6.187  -5.269  -2.702  0.00  0.00    +0.138 A 
ATOM     27  N   UNL     1      -5.048  -4.854  -3.335  0.00  0.00    -0.306 N 
BRANCH  27  28
ATOM     28  C   UNL     1      -4.572  -5.265  -4.658  0.00  0.00    +0.122 C 
ATOM     29  C   UNL     1      -3.638  -6.468  -4.513  0.00  0.00    +0.027 C 
ENDBRANCH  27  28
BRANCH  26  30
ATOM     30  C   UNL     1      -7.201  -6.247  -3.238  0.00  0.00    +0.111 C 
BRANCH  30  31
ATOM     31  C   UNL     1      -8.331  -5.492  -3.889  0.00  0.00    -0.040 A 
ATOM     32  C   UNL     1      -9.389  -5.036  -3.125  0.00  0.00    +0.004 A 
ATOM     33  C   UNL     1     -10.423  -4.339  -3.722  0.00  0.00    +0.000 A 
ATOM     34  C   UNL     1     -10.404  -4.107  -5.085  0.00  0.00    +0.000 A 
ATOM     35  C   UNL     1      -9.349  -4.568  -5.849  0.00  0.00    +0.000 A 
ATOM     36  C   UNL     1      -8.312  -5.260  -5.252  0.00  0.00    +0.004 A 
ENDBRANCH  30  31
ENDBRANCH  26  30
ENDBRANCH  22  23
ENDBRANCH  21  22
ENDBRANCH   2  21
TORSDOF 9
