REMARK  Name = ZINC09469553
REMARK  6 active torsions:
REMARK  status: ('A' for Active; 'I' for Inactive)
REMARK    1  A    between atoms: C_4  and  C_7
REMARK    2  A    between atoms: C_7  and  C_9
REMARK    3  A    between atoms: C_7  and  S_15
REMARK    4  A    between atoms: S_15  and  C_16
REMARK    5  A    between atoms: C_19  and  C_27
REMARK    6  A    between atoms: N_20  and  C_21
REMARK                            x       y       z     vdW  Elec       q    Type
REMARK                         _______ _______ _______ _____ _____    ______ ____
ROOT
ATOM      1  C   UNL     1       3.781   1.994  -2.752  0.00  0.00    +0.197 A 
ATOM      2  N   UNL     1       3.770   0.693  -2.565  0.00  0.00    -0.122 NA
ATOM      3  N   UNL     1       3.805   0.083  -3.696  0.00  0.00    -0.128 NA
ATOM      4  C   UNL     1       3.851   0.955  -4.676  0.00  0.00    +0.169 A 
ATOM      5  N   UNL     1       3.837   2.208  -4.103  0.00  0.00    -0.270 N 
ENDROOT
BRANCH   4   6
ATOM      6  C   UNL     1       3.907   0.651  -6.121  0.00  0.00    +0.023 A 
ATOM      7  C   UNL     1       4.264   1.646  -7.033  0.00  0.00    +0.015 A 
ATOM      8  C   UNL     1       4.316   1.360  -8.381  0.00  0.00    +0.050 A 
ATOM      9  C   UNL     1       4.014   0.085  -8.836  0.00  0.00    +0.166 A 
ATOM     10  C   UNL     1       3.657  -0.914  -7.931  0.00  0.00    +0.167 A 
ATOM     11  C   UNL     1       3.609  -0.634  -6.577  0.00  0.00    +0.061 A 
ATOM     12  O   UNL     1       3.412  -2.064  -8.624  0.00  0.00    -0.453 OA
ATOM     13  C   UNL     1       4.018  -1.870  -9.916  0.00  0.00    +0.466 C 
ATOM     14  O   UNL     1       3.992  -0.442 -10.095  0.00  0.00    -0.453 OA
ENDBRANCH   4   6
BRANCH   5  15
ATOM     15  C   UNL     1       3.872   3.443  -4.764  0.00  0.00    +0.051 A 
ATOM     16  C   UNL     1       2.820   3.822  -5.588  0.00  0.00    +0.026 A 
ATOM     17  C   UNL     1       2.856   5.042  -6.235  0.00  0.00    +0.002 A 
ATOM     18  C   UNL     1       3.942   5.881  -6.071  0.00  0.00    +0.000 A 
ATOM     19  C   UNL     1       4.993   5.505  -5.255  0.00  0.00    +0.002 A 
ATOM     20  C   UNL     1       4.961   4.289  -4.602  0.00  0.00    +0.026 A 
ENDBRANCH   5  15
BRANCH   1  21
ATOM     21  S   UNL     1       3.739   3.231  -1.498  0.00  0.00    -0.068 S 
BRANCH  21  22
ATOM     22  C   UNL     1       3.672   2.182  -0.024  0.00  0.00    +0.170 C 
BRANCH  22  23
ATOM     23  C   UNL     1       3.752   3.043   1.210  0.00  0.00    +0.238 C 
ATOM     24  O   UNL     1       3.398   4.202   1.164  0.00  0.00    -0.274 OA
ATOM     25  N   UNL     1       4.218   2.526   2.364  0.00  0.00    -0.239 N 
ATOM     26  C   UNL     1       4.290   3.297   3.467  0.00  0.00    +0.303 C 
ATOM     27  O   UNL     1       3.935   4.458   3.421  0.00  0.00    -0.253 OA
ATOM     28  N   UNL     1       4.756   2.780   4.621  0.00  0.00    -0.313 N 
ATOM     29  H   UNL     1       4.502   1.599   2.400  0.00  0.00    +0.159 HD
ATOM     30  H   UNL     1       5.040   1.853   4.657  0.00  0.00    +0.146 HD
ATOM     31  H   UNL     1       4.808   3.334   5.415  0.00  0.00    +0.146 HD
ENDBRANCH  22  23
BRANCH  22  35
ATOM     32  C   UNL     1       0.002  -0.004   0.002  0.00  0.00    +0.000 A 
ATOM     33  C   UNL     1      -0.017   1.378   0.010  0.00  0.00    +0.000 A 
ATOM     34  C   UNL     1       1.171   2.086   0.002  0.00  0.00    +0.005 A 
ATOM     35  C   UNL     1       2.377   1.411  -0.015  0.00  0.00    -0.025 A 
ATOM     36  C   UNL     1       2.396   0.029  -0.022  0.00  0.00    +0.005 A 
ATOM     37  C   UNL     1       1.208  -0.679  -0.013  0.00  0.00    +0.000 A 
ENDBRANCH  22  35
ENDBRANCH  21  22
ENDBRANCH   1  21
TORSDOF 6
