REMARK  Name = ZINC61594293
REMARK  9 active torsions:
REMARK  status: ('A' for Active; 'I' for Inactive)
REMARK    1  A    between atoms: C_1  and  C_2
REMARK    2  A    between atoms: C_2  and  C_3
REMARK    3  A    between atoms: C_3  and  C_5
REMARK    4  A    between atoms: C_3  and  N_23
REMARK    5  A    between atoms: C_5  and  C_7
REMARK    6  A    between atoms: C_5  and  S_13
REMARK    7  A    between atoms: S_13  and  C_14
REMARK    8  A    between atoms: N_20  and  C_21
REMARK    9  A    between atoms: C_21  and  C_22
REMARK                            x       y       z     vdW  Elec       q    Type
REMARK                         _______ _______ _______ _____ _____    ______ ____
ROOT
ATOM      1  C   UNL     1       0.692  -1.807  -1.392  0.00  0.00    +0.076 C 
ENDROOT
BRANCH   1   2
ATOM      2  C   UNL     1      -0.748  -2.252  -1.391  0.00  0.00    +0.003 A 
ATOM      3  C   UNL     1      -1.398  -3.034  -0.495  0.00  0.00    +0.013 A 
ATOM      4  C   UNL     1      -2.736  -3.315  -0.698  0.00  0.00    +0.023 A 
ATOM      5  C   UNL     1      -3.358  -2.799  -1.787  0.00  0.00    +0.055 A 
ATOM      6  S   UNL     1      -2.041  -1.878  -2.563  0.00  0.00    -0.085 S 
ATOM      7 BR   UNL     1      -5.157  -2.997  -2.337  0.00  0.00    -0.043 Br
ENDBRANCH   1   2
BRANCH   1   8
ATOM      8  C   UNL     1       0.754  -0.279  -1.339  0.00  0.00    -0.057 C 
BRANCH   8   9
ATOM      9  N   UNL     1      -0.025   0.203  -0.190  0.00  0.00    +0.381 N 
ATOM     10  H   UNL     1      -0.977  -0.123  -0.269  0.00  0.00    -0.090 HD
ATOM     11  H   UNL     1       0.381  -0.150   0.664  0.00  0.00    -0.090 HD
ATOM     12  H   UNL     1      -0.014   1.212  -0.176  0.00  0.00    -0.090 HD
ENDBRANCH   8   9
BRANCH   8  14
ATOM     13  C   UNL     1       0.347   1.821  -2.630  0.00  0.00    +0.002 C 
ATOM     14  C   UNL     1       0.172   0.301  -2.629  0.00  0.00    -0.018 C 
ENDBRANCH   8  14
ENDBRANCH   1   8
BRANCH   1  15
ATOM     15  S   UNL     1       1.504  -2.392  -2.905  0.00  0.00    -0.079 S 
BRANCH  15  16
ATOM     16  C   UNL     1       3.202  -1.986  -2.662  0.00  0.00    +0.193 A 
ATOM     17  N   UNL     1       3.688  -1.333  -1.647  0.00  0.00    -0.145 NA
ATOM     18  N   UNL     1       5.073  -1.216  -1.829  0.00  0.00    -0.226 N 
ATOM     19  H   UNL     1       5.697  -0.778  -1.228  0.00  0.00    +0.194 HD
ATOM     20  C   UNL     1       5.380  -1.827  -2.991  0.00  0.00    +0.345 A 
ATOM     21  O   UNL     1       6.492  -1.929  -3.480  0.00  0.00    -0.245 OA
ATOM     22  N   UNL     1       4.235  -2.311  -3.512  0.00  0.00    -0.271 N 
BRANCH  22  23
ATOM     23  C   UNL     1       4.110  -3.053  -4.769  0.00  0.00    +0.125 C 
ATOM     24  C   UNL     1       3.871  -2.071  -5.918  0.00  0.00    +0.027 C 
ENDBRANCH  22  23
ENDBRANCH  15  16
ENDBRANCH   1  15
TORSDOF 7
