REMARK  Name = ZINC34791882
REMARK  12 active torsions:
REMARK  status: ('A' for Active; 'I' for Inactive)
REMARK    1  A    between atoms: C_1  and  N_2
REMARK    2  A    between atoms: N_2  and  C_3
REMARK    3  A    between atoms: N_2  and  C_4
REMARK    4  A    between atoms: C_4  and  C_5
REMARK    5  A    between atoms: C_5  and  N_6
REMARK    6  A    between atoms: N_6  and  C_7
REMARK    7  A    between atoms: C_7  and  C_8
REMARK    8  A    between atoms: C_14  and  C_16
REMARK    9  A    between atoms: C_16  and  N_17
REMARK   10  A    between atoms: C_23  and  C_32
REMARK   11  A    between atoms: N_28  and  C_29
REMARK   12  A    between atoms: C_29  and  C_30
REMARK                            x       y       z     vdW  Elec       q    Type
REMARK                         _______ _______ _______ _____ _____    ______ ____
ROOT
ATOM      1  N   UNL     1      -3.161  -3.960  -2.812  0.00  0.00    -0.283 N 
ATOM      2  C   UNL     1      -3.309  -5.192  -2.023  0.00  0.00    +0.160 C 
ATOM      3  C   UNL     1      -3.920  -6.194  -2.977  0.00  0.00    +0.043 C 
ATOM      4  C   UNL     1      -4.077  -5.551  -4.152  0.00  0.00    +0.058 C 
ATOM      5  C   UNL     1      -3.627  -4.219  -4.047  0.00  0.00    +0.247 C 
ATOM      6  O   UNL     1      -3.656  -3.409  -4.956  0.00  0.00    -0.270 OA
ATOM      7  C   UNL     1      -4.678  -6.329  -5.306  0.00  0.00    +0.143 C 
ATOM      8  N   UNL     1      -5.042  -7.732  -5.045  0.00  0.00    -0.288 N 
ATOM      9  C   UNL     1      -4.824  -8.235  -3.814  0.00  0.00    +0.307 C 
ATOM     10  O   UNL     1      -5.121  -9.392  -3.590  0.00  0.00    -0.252 OA
ATOM     11  N   UNL     1      -4.289  -7.500  -2.830  0.00  0.00    -0.253 N 
ATOM     12  H   UNL     1      -5.431  -8.281  -5.744  0.00  0.00    +0.151 HD
ENDROOT
BRANCH   7  13
ATOM     13  C   UNL     1      -5.918  -5.604  -5.759  0.00  0.00    -0.004 A 
ATOM     14  C   UNL     1      -7.155  -5.976  -5.268  0.00  0.00    +0.007 A 
ATOM     15  C   UNL     1      -8.293  -5.310  -5.684  0.00  0.00    +0.000 A 
ATOM     16  C   UNL     1      -8.195  -4.273  -6.592  0.00  0.00    +0.001 A 
ATOM     17  C   UNL     1      -6.958  -3.900  -7.085  0.00  0.00    +0.020 A 
ATOM     18  C   UNL     1      -5.818  -4.562  -6.664  0.00  0.00    +0.046 A 
ATOM     19 CL   UNL     1      -4.264  -4.090  -7.277  0.00  0.00    -0.083 Cl
ENDBRANCH   7  13
BRANCH   1  20
ATOM     20  C   UNL     1      -2.612  -2.686  -2.340  0.00  0.00    +0.204 C 
BRANCH  20  22
ATOM     21  N   UNL     1      -3.452  -0.617  -1.276  0.00  0.00    -0.298 N 
ATOM     22  C   UNL     1      -3.723  -1.840  -1.773  0.00  0.00    +0.233 C 
ATOM     23  O   UNL     1      -4.861  -2.260  -1.764  0.00  0.00    -0.274 OA
BRANCH  21  24
ATOM     24  C   UNL     1      -2.078  -0.110  -1.286  0.00  0.00    +0.089 C 
BRANCH  24  25
ATOM     25  C   UNL     1      -1.376  -0.512   0.012  0.00  0.00    -0.060 C 
BRANCH  25  27
ATOM     26  C   UNL     1      -0.018   1.465   0.010  0.00  0.00    -0.097 C 
ATOM     27  N   UNL     1       0.002  -0.004   0.002  0.00  0.00    +0.377 N 
ATOM     28  C   UNL     1       0.713  -0.491   1.192  0.00  0.00    -0.097 C 
ATOM     29  H   UNL     1       0.474  -0.330  -0.828  0.00  0.00    -0.083 HD
ENDBRANCH  25  27
ENDBRANCH  24  25
ENDBRANCH  21  24
BRANCH  21  30
ATOM     30  C   UNL     1      -4.532   0.205  -0.725  0.00  0.00    +0.142 C 
BRANCH  30  31
ATOM     31  C   UNL     1      -5.123   1.057  -1.819  0.00  0.00    -0.030 A 
ATOM     32  C   UNL     1      -4.603   2.312  -2.074  0.00  0.00    +0.005 A 
ATOM     33  C   UNL     1      -5.144   3.094  -3.077  0.00  0.00    +0.000 A 
ATOM     34  C   UNL     1      -6.206   2.621  -3.825  0.00  0.00    +0.000 A 
ATOM     35  C   UNL     1      -6.725   1.365  -3.571  0.00  0.00    +0.000 A 
ATOM     36  C   UNL     1      -6.181   0.582  -2.570  0.00  0.00    +0.005 A 
ENDBRANCH  30  31
ENDBRANCH  21  30
ENDBRANCH  20  22
ENDBRANCH   1  20
BRANCH  11  37
ATOM     37  C   UNL     1      -4.088  -8.133  -1.524  0.00  0.00    +0.141 C 
BRANCH  37  38
ATOM     38  C   UNL     1      -5.319  -7.939  -0.677  0.00  0.00    -0.015 C 
ATOM     39  C   UNL     1      -5.925  -8.975  -0.153  0.00  0.00    +0.005 C 
ENDBRANCH  37  38
ENDBRANCH  11  37
TORSDOF 10
