REMARK  Name = ZINC42842726
REMARK  7 active torsions:
REMARK  status: ('A' for Active; 'I' for Inactive)
REMARK    1  A    between atoms: C_1  and  O_2
REMARK    2  A    between atoms: O_2  and  C_3
REMARK    3  A    between atoms: C_3  and  C_4
REMARK    4  A    between atoms: C_4  and  N_5
REMARK    5  A    between atoms: C_11  and  C_14
REMARK    6  A    between atoms: N_16  and  C_17
REMARK    7  A    between atoms: C_22  and  O_23
REMARK                            x       y       z     vdW  Elec       q    Type
REMARK                         _______ _______ _______ _____ _____    ______ ____
ROOT
ATOM      1  N   UNL     1       1.446  -2.525  -0.163  0.00  0.00    -0.297 N 
ATOM      2  C   UNL     1       1.550  -3.835  -0.462  0.00  0.00    +0.302 C 
ATOM      3  O   UNL     1       1.091  -4.669   0.295  0.00  0.00    -0.253 OA
ATOM      4  N   UNL     1       2.162  -4.220  -1.599  0.00  0.00    -0.286 N 
ATOM      5  C   UNL     1       2.823  -3.234  -2.465  0.00  0.00    +0.110 C 
ATOM      6  C   UNL     1       2.273  -3.379  -3.887  0.00  0.00    +0.032 C 
ATOM      7  C   UNL     1       2.437  -4.830  -4.347  0.00  0.00    +0.078 C 
ATOM      8  C   UNL     1       1.639  -5.753  -3.424  0.00  0.00    +0.032 C 
ATOM      9  C   UNL     1       2.187  -5.635  -1.993  0.00  0.00    +0.110 C 
ATOM     10  H   UNL     1       1.875  -1.863  -0.727  0.00  0.00    +0.150 HD
ENDROOT
BRANCH   7  11
ATOM     11  C   UNL     1       1.929  -4.969  -5.759  0.00  0.00    +0.220 C 
ATOM     12  O   UNL     1       1.479  -4.004  -6.339  0.00  0.00    -0.275 OA
ATOM     13  N   UNL     1       1.973  -6.167  -6.376  0.00  0.00    -0.282 N 
ATOM     14  H   UNL     1       2.257  -6.954  -5.886  0.00  0.00    +0.155 HD
BRANCH  13  15
ATOM     15  C   UNL     1       1.609  -6.273  -7.725  0.00  0.00    +0.077 A 
ATOM     16  C   UNL     1       1.700  -5.169  -8.559  0.00  0.00    +0.047 A 
ATOM     17  C   UNL     1       1.341  -5.277  -9.890  0.00  0.00    +0.043 A 
ATOM     18  C   UNL     1       0.889  -6.485 -10.392  0.00  0.00    +0.023 A 
ATOM     19  C   UNL     1       0.796  -7.590  -9.565  0.00  0.00    +0.049 A 
ATOM     20  C   UNL     1       1.160  -7.490  -8.232  0.00  0.00    +0.138 A 
ATOM     21 CL   UNL     1       1.455  -3.894 -10.934  0.00  0.00    -0.083 Cl
BRANCH  20  22
ATOM     22  O   UNL     1       1.074  -8.578  -7.420  0.00  0.00    -0.505 OA
ATOM     23  H   UNL     1       0.219  -8.672  -6.978  0.00  0.00    +0.292 HD
ENDBRANCH  20  22
ENDBRANCH  13  15
ENDBRANCH   7  11
BRANCH   1  24
ATOM     24  C   UNL     1       0.686  -2.100   1.015  0.00  0.00    +0.133 C 
BRANCH  24  25
ATOM     25  C   UNL     1       0.726  -0.575   1.125  0.00  0.00    +0.178 C 
BRANCH  25  27
ATOM     26  C   UNL     1       0.024   1.430   0.015  0.00  0.00    +0.194 C 
ATOM     27  O   UNL     1       0.045   0.001   0.009  0.00  0.00    -0.381 OA
ENDBRANCH  25  27
ENDBRANCH  24  25
ENDBRANCH   1  24
TORSDOF 6
