REMARK  Name = ZINC23325142
REMARK  10 active torsions:
REMARK  status: ('A' for Active; 'I' for Inactive)
REMARK    1  A    between atoms: C_1  and  C_2
REMARK    2  A    between atoms: C_3  and  N_15
REMARK    3  A    between atoms: N_6  and  C_9
REMARK    4  A    between atoms: N_7  and  C_8
REMARK    5  A    between atoms: C_16  and  C_18
REMARK    6  A    between atoms: C_18  and  C_20
REMARK    7  A    between atoms: C_18  and  S_21
REMARK    8  A    between atoms: S_21  and  C_22
REMARK    9  A    between atoms: C_28  and  C_30
REMARK   10  A    between atoms: C_30  and  C_31
REMARK                            x       y       z     vdW  Elec       q    Type
REMARK                         _______ _______ _______ _____ _____    ______ ____
ROOT
ATOM      1  N   UNL     1      -1.321   4.851  -0.075  0.00  0.00    -0.279 N 
ATOM      2  C   UNL     1      -2.663   4.904  -0.186  0.00  0.00    +0.230 C 
ATOM      3  O   UNL     1      -3.300   3.881  -0.330  0.00  0.00    -0.274 OA
ATOM      4  H   UNL     1      -0.736   5.782  -0.034  0.00  0.00    +0.155 HD
ENDROOT
BRANCH   1   7
ATOM      5  C   UNL     1       0.646   4.020   2.128  0.00  0.00    +0.067 C 
ATOM      6  C   UNL     1       0.204   3.204   0.941  0.00  0.00    +0.059 A 
ATOM      7  C   UNL     1      -0.667   3.605  -0.012  0.00  0.00    +0.121 A 
ATOM      8  C   UNL     1      -0.800   2.505  -0.968  0.00  0.00    +0.293 A 
ATOM      9  O   UNL     1      -1.496   2.494  -1.968  0.00  0.00    -0.264 OA
ATOM     10  N   UNL     1      -0.008   1.505  -0.530  0.00  0.00    -0.216 N 
ATOM     11  N   UNL     1       0.617   1.931   0.647  0.00  0.00    -0.282 N 
ATOM     12  C   UNL     1       1.565   1.142   1.439  0.00  0.00    +0.171 C 
BRANCH  10  13
ATOM     13  C   UNL     1       0.163   0.262  -1.147  0.00  0.00    +0.067 A 
ATOM     14  C   UNL     1      -0.944  -0.459  -1.577  0.00  0.00    +0.028 A 
ATOM     15  C   UNL     1      -0.771  -1.684  -2.192  0.00  0.00    +0.002 A 
ATOM     16  C   UNL     1       0.500  -2.198  -2.369  0.00  0.00    +0.000 A 
ATOM     17  C   UNL     1       1.604  -1.485  -1.936  0.00  0.00    +0.002 A 
ATOM     18  C   UNL     1       1.438  -0.257  -1.326  0.00  0.00    +0.028 A 
ENDBRANCH  10  13
ENDBRANCH   1   7
BRANCH   2  19
ATOM     19  C   UNL     1      -3.373   6.232  -0.130  0.00  0.00    +0.136 C 
ATOM     20  C   UNL     1      -3.514   6.674   1.328  0.00  0.00    +0.029 C 
BRANCH  19  21
ATOM     21  S   UNL     1      -5.019   6.070  -0.875  0.00  0.00    -0.084 S 
BRANCH  21  22
ATOM     22  C   UNL     1      -5.653   7.713  -0.869  0.00  0.00    +0.161 A 
ATOM     23  N   UNL     1      -5.104   8.837  -0.431  0.00  0.00    -0.133 NA
ATOM     24  N   UNL     1      -5.702   9.945  -0.507  0.00  0.00    -0.125 NA
ATOM     25  C   UNL     1      -6.917  10.053  -1.018  0.00  0.00    +0.189 A 
ATOM     26  S   UNL     1      -7.227   8.342  -1.447  0.00  0.00    -0.024 S 
ATOM     27  N   UNL     1      -7.725  11.176  -1.178  0.00  0.00    -0.263 N 
ATOM     28  C   UNL     1      -7.284  12.385  -0.778  0.00  0.00    +0.219 C 
ATOM     29  O   UNL     1      -6.184  12.495  -0.280  0.00  0.00    -0.275 OA
ATOM     30  H   UNL     1      -8.723  11.076  -1.630  0.00  0.00    +0.157 HD
BRANCH  28  31
ATOM     31  C   UNL     1      -8.158  13.601  -0.951  0.00  0.00    +0.103 C 
BRANCH  31  32
ATOM     32  C   UNL     1      -7.426  14.835  -0.420  0.00  0.00    +0.020 C 
ATOM     33  C   UNL     1      -8.351  16.073  -0.471  0.00  0.00    +0.012 C 
ATOM     34  C   UNL     1      -7.348  17.188  -0.849  0.00  0.00    +0.027 C 
ATOM     35  C   UNL     1      -6.222  16.469  -1.554  0.00  0.00    -0.031 C 
ATOM     36  C   UNL     1      -6.264  15.185  -1.320  0.00  0.00    -0.027 C 
ENDBRANCH  31  32
ENDBRANCH  28  31
ENDBRANCH  21  22
ENDBRANCH  19  21
ENDBRANCH   2  19
TORSDOF 7
