REMARK  Name = ZINC35723256
REMARK  13 active torsions:
REMARK  status: ('A' for Active; 'I' for Inactive)
REMARK    1  A    between atoms: C_1  and  C_2
REMARK    2  A    between atoms: N_5  and  C_8
REMARK    3  A    between atoms: C_11  and  N_24
REMARK    4  A    between atoms: C_13  and  C_14
REMARK    5  A    between atoms: N_16  and  C_17
REMARK    6  A    between atoms: C_17  and  C_18
REMARK    7  A    between atoms: N_27  and  C_28
REMARK    8  A    between atoms: C_29  and  C_37
REMARK    9  A    between atoms: C_33  and  C_34
REMARK   10  A    between atoms: C_34  and  C_35
REMARK   11  A    between atoms: C_34  and  C_36
REMARK   12  A    between atoms: C_37  and  C_38
REMARK   13  A    between atoms: C_37  and  C_39
REMARK                            x       y       z     vdW  Elec       q    Type
REMARK                         _______ _______ _______ _____ _____    ______ ____
ROOT
ATOM      1  C   UNL     1       2.381  -6.748  -1.470  0.00  0.00    +0.042 A 
ATOM      2  C   UNL     1       3.694  -6.826  -1.919  0.00  0.00    +0.026 A 
ATOM      3  C   UNL     1       4.718  -7.063  -1.027  0.00  0.00    +0.025 A 
ATOM      4  C   UNL     1       4.447  -7.225   0.328  0.00  0.00    +0.036 A 
ATOM      5  C   UNL     1       3.146  -7.151   0.791  0.00  0.00    +0.038 A 
ATOM      6  C   UNL     1       2.102  -6.905  -0.104  0.00  0.00    +0.059 A 
ENDROOT
BRANCH   1  11
ATOM      7  C   UNL     1       0.115  -5.820  -6.385  0.00  0.00    +0.007 C 
ATOM      8  C   UNL     1       0.112  -6.028  -4.869  0.00  0.00    -0.011 C 
ATOM      9  C   UNL     1       0.691  -7.407  -4.543  0.00  0.00    +0.022 C 
ATOM     10  C   UNL     1       0.655  -7.626  -3.027  0.00  0.00    +0.105 C 
ATOM     11  N   UNL     1       1.349  -6.510  -2.371  0.00  0.00    -0.329 N 
ATOM     12  C   UNL     1       0.931  -5.136  -2.684  0.00  0.00    +0.105 C 
ATOM     13  C   UNL     1       0.964  -4.945  -4.204  0.00  0.00    +0.022 C 
ENDBRANCH   1  11
BRANCH   4  14
ATOM     14  N   UNL     1       5.496  -7.465   1.227  0.00  0.00    -0.269 N 
ATOM     15  C   UNL     1       6.707  -6.913   1.013  0.00  0.00    +0.308 C 
ATOM     16  O   UNL     1       6.864  -6.130   0.096  0.00  0.00    -0.252 OA
ATOM     17  N   UNL     1       7.743  -7.229   1.815  0.00  0.00    -0.269 N 
ATOM     18  H   UNL     1       5.351  -8.029   2.003  0.00  0.00    +0.156 HD
ATOM     19  H   UNL     1       7.633  -7.900   2.507  0.00  0.00    +0.156 HD
BRANCH  17  20
ATOM     20  C   UNL     1       8.976  -6.589   1.649  0.00  0.00    +0.042 A 
ATOM     21  C   UNL     1      10.115  -7.334   1.371  0.00  0.00    -0.023 A 
ATOM     22  C   UNL     1      11.331  -6.699   1.208  0.00  0.00    +0.006 A 
ATOM     23  C   UNL     1      11.415  -5.324   1.322  0.00  0.00    +0.001 A 
ATOM     24  C   UNL     1      10.283  -4.579   1.599  0.00  0.00    +0.006 A 
ATOM     25  C   UNL     1       9.063  -5.207   1.757  0.00  0.00    -0.023 A 
BRANCH  25  26
ATOM     26  C   UNL     1       7.829  -4.394   2.053  0.00  0.00    +0.015 C 
ATOM     27  C   UNL     1       7.597  -4.350   3.564  0.00  0.00    +0.012 C 
ATOM     28  C   UNL     1       8.017  -2.971   1.524  0.00  0.00    +0.012 C 
ENDBRANCH  25  26
BRANCH  21  29
ATOM     29  C   UNL     1      10.024  -8.833   1.247  0.00  0.00    +0.015 C 
ATOM     30  C   UNL     1      10.585  -9.268  -0.108  0.00  0.00    +0.012 C 
ATOM     31  C   UNL     1      10.834  -9.487   2.369  0.00  0.00    +0.012 C 
ENDBRANCH  21  29
ENDBRANCH  17  20
ENDBRANCH   4  14
BRANCH   6  32
ATOM     32  C   UNL     1       0.713  -6.818   0.382  0.00  0.00    +0.246 C 
ATOM     33  O   UNL     1      -0.194  -6.609  -0.401  0.00  0.00    -0.270 OA
ATOM     34  N   UNL     1       0.448  -6.969   1.695  0.00  0.00    -0.309 N 
ATOM     35  H   UNL     1       1.171  -7.135   2.320  0.00  0.00    +0.149 HD
BRANCH  34  36
ATOM     36  C   UNL     1      -0.932  -6.882   2.179  0.00  0.00    +0.136 C 
BRANCH  36  37
ATOM     37  C   UNL     1      -0.955  -7.088   3.695  0.00  0.00    +0.135 C 
ATOM     38  C   UNL     1      -2.414  -7.119   4.197  0.00  0.00    +0.035 C 
ATOM     39  C   UNL     1      -2.319  -6.337   5.536  0.00  0.00    +0.031 C 
ATOM     40  C   UNL     1      -1.224  -5.296   5.191  0.00  0.00    +0.160 C 
ATOM     41  O   UNL     1      -0.295  -5.995   4.344  0.00  0.00    -0.375 OA
ENDBRANCH  36  37
ENDBRANCH  34  36
ENDBRANCH   6  32
TORSDOF 8
