REMARK  Name = ZINC13459064
REMARK  7 active torsions:
REMARK  status: ('A' for Active; 'I' for Inactive)
REMARK    1  A    between atoms: C_1  and  C_2
REMARK    2  A    between atoms: C_2  and  C_13
REMARK    3  A    between atoms: N_3  and  N_4
REMARK    4  A    between atoms: N_4  and  C_5
REMARK    5  A    between atoms: C_10  and  C_11
REMARK    6  A    between atoms: C_16  and  S_19
REMARK    7  A    between atoms: S_19  and  N_22
REMARK                            x       y       z     vdW  Elec       q    Type
REMARK                         _______ _______ _______ _____ _____    ______ ____
ROOT
ATOM      1  C   UNL     1      -2.292   2.621   3.737  0.00  0.00    -0.002 A 
ATOM      2  C   UNL     1      -2.493   1.359   3.173  0.00  0.00    +0.011 A 
ATOM      3  C   UNL     1      -1.762   0.978   2.067  0.00  0.00    +0.029 A 
ATOM      4  C   UNL     1      -0.832   1.842   1.517  0.00  0.00    +0.106 A 
ATOM      5  C   UNL     1      -0.625   3.092   2.073  0.00  0.00    +0.029 A 
ATOM      6  C   UNL     1      -1.352   3.489   3.176  0.00  0.00    +0.011 A 
ENDROOT
BRANCH   1   8
ATOM      7  C   UNL     1      -2.851   4.398   5.525  0.00  0.00    +0.068 C 
ATOM      8  C   UNL     1      -3.070   3.036   4.919  0.00  0.00    +0.063 C 
ATOM      9  N   UNL     1      -3.943   2.228   5.438  0.00  0.00    -0.187 NA
BRANCH   9  10
ATOM     10  N   UNL     1      -4.682   2.622   6.561  0.00  0.00    -0.237 N 
ATOM     11  H   UNL     1      -4.542   3.499   6.951  0.00  0.00    +0.174 HD
BRANCH  10  12
ATOM     12  C   UNL     1      -5.616   1.758   7.116  0.00  0.00    +0.062 A 
ATOM     13  C   UNL     1      -5.902   0.547   6.497  0.00  0.00    +0.025 A 
ATOM     14  C   UNL     1      -6.826  -0.313   7.053  0.00  0.00    +0.002 A 
ATOM     15  C   UNL     1      -7.484   0.026   8.225  0.00  0.00    +0.001 A 
ATOM     16  C   UNL     1      -7.219   1.224   8.851  0.00  0.00    +0.017 A 
ATOM     17  C   UNL     1      -6.281   2.105   8.304  0.00  0.00    +0.086 A 
BRANCH  17  18
ATOM     18  C   UNL     1      -5.993   3.388   8.967  0.00  0.00    +0.388 C 
ATOM     19  O   UNL     1      -5.256   4.194   8.436  0.00  0.00    -0.241 OA
ATOM     20  O   UNL     1      -6.546   3.666  10.164  0.00  0.00    -0.241 OA
ENDBRANCH  17  18
ENDBRANCH  10  12
ENDBRANCH   9  10
ENDBRANCH   1   8
BRANCH   4  21
ATOM     21  S   UNL     1       0.097   1.346   0.104  0.00  0.00    +0.061 S 
ATOM     22  O   UNL     1       0.113  -0.075   0.106  0.00  0.00    -0.153 OA
ATOM     23  O   UNL     1       1.288   2.121   0.109  0.00  0.00    -0.153 OA
BRANCH  21  24
ATOM     24  N   UNL     1      -0.762   1.808  -1.234  0.00  0.00    -0.172 NA
ATOM     25  C   UNL     1      -1.746   0.904  -1.851  0.00  0.00    +0.137 C 
ATOM     26  C   UNL     1      -3.062   1.678  -2.028  0.00  0.00    +0.177 C 
ATOM     27  O   UNL     1      -2.798   2.899  -2.724  0.00  0.00    -0.377 OA
ATOM     28  C   UNL     1      -1.930   3.795  -2.026  0.00  0.00    +0.177 C 
ATOM     29  C   UNL     1      -0.560   3.131  -1.845  0.00  0.00    +0.137 C 
ENDBRANCH  21  24
ENDBRANCH   4  21
TORSDOF 6
