REMARK  Name = ZINC04602086
REMARK  7 active torsions:
REMARK  status: ('A' for Active; 'I' for Inactive)
REMARK    1  A    between atoms: C_1  and  C_2
REMARK    2  A    between atoms: C_2  and  C_3
REMARK    3  A    between atoms: C_3  and  C_4
REMARK    4  A    between atoms: C_4  and  C_6
REMARK    5  A    between atoms: C_11  and  N_12
REMARK    6  A    between atoms: C_13  and  C_15
REMARK    7  A    between atoms: C_18  and  N_21
REMARK                            x       y       z     vdW  Elec       q    Type
REMARK                         _______ _______ _______ _____ _____    ______ ____
ROOT
ATOM      1  C   UNL     1       1.150  -1.976  -1.380  0.00  0.00    +0.042 A 
ATOM      2  C   UNL     1       0.719  -2.909  -0.427  0.00  0.00    +0.062 A 
ATOM      3  C   UNL     1       0.537  -4.229  -0.786  0.00  0.00    +0.163 A 
ATOM      4  C   UNL     1       0.790  -4.640  -2.097  0.00  0.00    +0.164 A 
ATOM      5  C   UNL     1       1.221  -3.724  -3.045  0.00  0.00    +0.073 A 
ATOM      6  C   UNL     1       1.405  -2.395  -2.698  0.00  0.00    +0.048 A 
ATOM      7  O   UNL     1       0.614  -5.937  -2.462  0.00  0.00    -0.485 OA
ATOM      8  C   UNL     1       0.542  -6.901  -1.406  0.00  0.00    +0.270 C 
ATOM      9  C   UNL     1      -0.409  -6.363  -0.328  0.00  0.00    +0.270 C 
ATOM     10  O   UNL     1       0.117  -5.121   0.153  0.00  0.00    -0.485 OA
ENDROOT
BRANCH   6  11
ATOM     11  N   UNL     1       1.839  -1.478  -3.651  0.00  0.00    -0.281 N 
ATOM     12  C   UNL     1       2.795  -1.826  -4.535  0.00  0.00    +0.248 C 
ATOM     13  O   UNL     1       3.228  -2.962  -4.546  0.00  0.00    -0.270 OA
ATOM     14  H   UNL     1       1.454  -0.588  -3.679  0.00  0.00    +0.155 HD
BRANCH  12  15
ATOM     15  C   UNL     1       3.317  -0.827  -5.492  0.00  0.00    +0.037 A 
ATOM     16  C   UNL     1       2.817   0.476  -5.486  0.00  0.00    +0.015 A 
ATOM     17  C   UNL     1       3.312   1.405  -6.378  0.00  0.00    +0.033 A 
ATOM     18  C   UNL     1       4.293   1.044  -7.285  0.00  0.00    +0.126 A 
ATOM     19  C   UNL     1       4.789  -0.248  -7.299  0.00  0.00    +0.033 A 
ATOM     20  C   UNL     1       4.306  -1.185  -6.409  0.00  0.00    +0.015 A 
BRANCH  18  21
ATOM     21  N   UNL     1       4.816   2.044  -8.242  0.00  0.00    +0.056 N 
ATOM     22  O   UNL     1       5.680   1.729  -9.041  0.00  0.00    -0.126 OA
ATOM     23  O   UNL     1       4.381   3.182  -8.232  0.00  0.00    -0.126 OA
ENDBRANCH  18  21
ENDBRANCH  12  15
ENDBRANCH   6  11
BRANCH   1  24
ATOM     24  C   UNL     1       1.339  -0.573  -1.003  0.00  0.00    +0.165 C 
ATOM     25  O   UNL     1       1.666   0.241  -1.841  0.00  0.00    -0.292 OA
BRANCH  24  26
ATOM     26  C   UNL     1       1.127  -0.141   0.425  0.00  0.00    +0.079 C 
BRANCH  26  28
ATOM     27  C   UNL     1       1.173   1.800   1.998  0.00  0.00    +0.004 C 
ATOM     28  C   UNL     1       1.388   1.361   0.547  0.00  0.00    +0.004 C 
ENDBRANCH  26  28
ENDBRANCH  24  26
ENDBRANCH   1  24
TORSDOF 6
