REMARK  Name = ZINC39893674
REMARK  10 active torsions:
REMARK  status: ('A' for Active; 'I' for Inactive)
REMARK    1  A    between atoms: C_1  and  C_2
REMARK    2  A    between atoms: C_2  and  C_3
REMARK    3  A    between atoms: C_3  and  C_4
REMARK    4  A    between atoms: C_4  and  N_5
REMARK    5  A    between atoms: C_9  and  N_10
REMARK    6  A    between atoms: N_10  and  C_11
REMARK    7  A    between atoms: C_14  and  C_20
REMARK    8  A    between atoms: C_15  and  N_17
REMARK    9  A    between atoms: C_21  and  C_27
REMARK   10  A    between atoms: C_22  and  C_25
REMARK                            x       y       z     vdW  Elec       q    Type
REMARK                         _______ _______ _______ _____ _____    ______ ____
ROOT
ATOM      1  N   UNL     1       1.840  -2.041  -2.425  0.00  0.00    -0.234 N 
ATOM      2  C   UNL     1       1.013  -2.294  -3.455  0.00  0.00    +0.255 C 
ATOM      3  O   UNL     1      -0.182  -2.093  -3.335  0.00  0.00    -0.269 OA
ATOM      4  C   UNL     1       1.543  -2.812  -4.723  0.00  0.00    +0.055 C 
ATOM      5  C   UNL     1       0.688  -3.073  -5.790  0.00  0.00    +0.085 C 
ATOM      6  C   UNL     1       2.931  -3.040  -4.847  0.00  0.00    -0.015 C 
ATOM      7  C   UNL     1       3.752  -2.766  -3.762  0.00  0.00    +0.118 C 
ATOM      8  C   UNL     1       3.165  -2.247  -2.526  0.00  0.00    +0.264 C 
ATOM      9  O   UNL     1       3.885  -2.002  -1.575  0.00  0.00    -0.269 OA
ATOM     10  C   UNL     1       3.510  -3.571  -6.133  0.00  0.00    +0.046 C 
ENDROOT
BRANCH   5  11
ATOM     11  N   UNL     1       1.193  -3.333  -7.010  0.00  0.00    -0.320 N 
ATOM     12  H   UNL     1       2.146  -3.243  -7.169  0.00  0.00    +0.152 HD
BRANCH  11  13
ATOM     13  C   UNL     1       0.346  -3.732  -8.047  0.00  0.00    +0.033 A 
ATOM     14  C   UNL     1      -1.019  -3.856  -7.822  0.00  0.00    +0.023 A 
ATOM     15  C   UNL     1      -1.854  -4.250  -8.849  0.00  0.00    +0.007 A 
ATOM     16  C   UNL     1      -1.331  -4.521 -10.101  0.00  0.00    -0.020 A 
ATOM     17  C   UNL     1       0.027  -4.399 -10.328  0.00  0.00    +0.131 A 
ATOM     18  C   UNL     1       0.867  -4.000  -9.306  0.00  0.00    +0.056 A 
ATOM     19  C   UNL     1      -2.245  -4.951 -11.219  0.00  0.00    +0.046 C 
BRANCH  17  20
ATOM     20  N   UNL     1       0.581  -4.691 -11.669  0.00  0.00    +0.057 N 
ATOM     21  O   UNL     1       1.662  -5.223 -11.774  0.00  0.00    -0.126 OA
ATOM     22  O   UNL     1      -0.047  -4.399 -12.659  0.00  0.00    -0.126 OA
ENDBRANCH  17  20
ENDBRANCH  11  13
ENDBRANCH   5  11
BRANCH   7  23
ATOM     23  C   UNL     1       5.164  -2.987  -3.853  0.00  0.00    +0.105 C 
ATOM     24  N   UNL     1       6.284  -3.161  -3.925  0.00  0.00    -0.191 NA
ENDBRANCH   7  23
BRANCH   1  25
ATOM     25  C   UNL     1       1.288  -1.524  -1.171  0.00  0.00    +0.117 C 
BRANCH  25  26
ATOM     26  C   UNL     1       1.269   0.005  -1.214  0.00  0.00    +0.019 C 
BRANCH  26  28
ATOM     27  C   UNL     1       0.672   2.074   0.054  0.00  0.00    +0.004 C 
ATOM     28  C   UNL     1       0.692   0.545   0.097  0.00  0.00    -0.002 C 
ENDBRANCH  26  28
ENDBRANCH  25  26
ENDBRANCH   1  25
TORSDOF 7
