REMARK  Name = ZINC41108754
REMARK  4 active torsions:
REMARK  status: ('A' for Active; 'I' for Inactive)
REMARK    1  A    between atoms: C_1  and  C_2
REMARK    2  A    between atoms: C_2  and  C_3
REMARK    3  A    between atoms: C_3  and  C_4
REMARK    4  A    between atoms: C_10  and  C_15
REMARK                            x       y       z     vdW  Elec       q    Type
REMARK                         _______ _______ _______ _____ _____    ______ ____
ROOT
ATOM      1  C   UNL     1      -1.413  -2.041   0.005  0.00  0.00    +0.219 C 
ATOM      2  O   UNL     1      -0.354  -2.632  -0.009  0.00  0.00    -0.275 OA
ATOM      3  N   UNL     1      -2.571  -2.730   0.012  0.00  0.00    -0.263 N 
ATOM      4  C   UNL     1      -2.552  -4.119   0.004  0.00  0.00    +0.188 A 
ATOM      5  N   UNL     1      -3.557  -4.954   0.004  0.00  0.00    -0.140 NA
ATOM      6  N   UNL     1      -3.352  -6.327  -0.005  0.00  0.00    -0.184 N 
ATOM      7  C   UNL     1      -4.083  -7.506  -0.008  0.00  0.00    +0.186 A 
ATOM      8  N   UNL     1      -3.231  -8.506  -0.018  0.00  0.00    -0.126 NA
ATOM      9  N   UNL     1      -2.025  -8.054  -0.021  0.00  0.00    -0.120 NA
ATOM     10  C   UNL     1      -2.048  -6.753  -0.014  0.00  0.00    +0.220 A 
ATOM     11  S   UNL     1      -1.147  -5.223  -0.016  0.00  0.00    -0.011 S 
ATOM     12  H   UNL     1      -3.417  -2.257   0.023  0.00  0.00    +0.157 HD
ENDROOT
BRANCH   7  13
ATOM     13  C   UNL     1      -5.556  -7.618  -0.001  0.00  0.00    +0.021 A 
ATOM     14  C   UNL     1      -6.342  -6.508   0.316  0.00  0.00    +0.013 A 
ATOM     15  C   UNL     1      -7.716  -6.618   0.321  0.00  0.00    +0.021 A 
ATOM     16  C   UNL     1      -8.318  -7.827   0.012  0.00  0.00    +0.041 A 
ATOM     17  C   UNL     1      -7.545  -8.931  -0.304  0.00  0.00    +0.021 A 
ATOM     18  C   UNL     1      -6.169  -8.832  -0.318  0.00  0.00    +0.013 A 
ATOM     19 CL   UNL     1     -10.049  -7.958   0.021  0.00  0.00    -0.084 Cl
ENDBRANCH   7  13
BRANCH   1  20
ATOM     20  C   UNL     1      -1.433  -0.534   0.013  0.00  0.00    +0.096 C 
BRANCH  20  22
ATOM     21  C   UNL     1      -0.019   1.526   0.010  0.00  0.00    +0.004 C 
ATOM     22  C   UNL     1       0.002  -0.004   0.002  0.00  0.00    +0.006 C 
ENDBRANCH  20  22
ENDBRANCH   1  20
TORSDOF 3
