REMARK  Name = ZINC03447976
REMARK  10 active torsions:
REMARK  status: ('A' for Active; 'I' for Inactive)
REMARK    1  A    between atoms: C_1  and  C_2
REMARK    2  A    between atoms: C_2  and  C_4
REMARK    3  A    between atoms: C_2  and  O_20
REMARK    4  A    between atoms: N_6  and  C_7
REMARK    5  A    between atoms: C_7  and  C_8
REMARK    6  A    between atoms: N_10  and  C_11
REMARK    7  A    between atoms: O_20  and  C_21
REMARK    8  A    between atoms: C_21  and  C_23
REMARK    9  A    between atoms: C_24  and  C_25
REMARK   10  A    between atoms: C_29  and  N_31
REMARK                            x       y       z     vdW  Elec       q    Type
REMARK                         _______ _______ _______ _____ _____    ______ ____
ROOT
ATOM      1  C   UNL     1      -3.587  10.076  -0.654  0.00  0.00    +0.254 C 
ATOM      2  O   UNL     1      -4.461   9.326  -1.035  0.00  0.00    -0.272 OA
ATOM      3  N   UNL     1      -3.707  11.404  -0.848  0.00  0.00    -0.304 N 
ATOM      4  H   UNL     1      -3.008  12.004  -0.543  0.00  0.00    +0.149 HD
ENDROOT
BRANCH   1   6
ATOM      5  C   UNL     1      -2.335  10.014   1.485  0.00  0.00    +0.062 C 
ATOM      6  C   UNL     1      -2.367   9.522   0.037  0.00  0.00    +0.259 C 
BRANCH   6   7
ATOM      7  O   UNL     1      -2.417   8.094   0.019  0.00  0.00    -0.449 OA
BRANCH   7   8
ATOM      8  C   UNL     1      -1.237   7.441  -0.001  0.00  0.00    +0.333 C 
ATOM      9  O   UNL     1      -0.195   8.067  -0.004  0.00  0.00    -0.246 OA
BRANCH   8  10
ATOM     10  C   UNL     1      -1.211   5.979  -0.020  0.00  0.00    +0.092 C 
ATOM     11  C   UNL     1      -0.031   5.325  -0.040  0.00  0.00    +0.015 C 
BRANCH  11  12
ATOM     12  C   UNL     1      -0.005   3.854  -0.059  0.00  0.00    -0.023 A 
ATOM     13  C   UNL     1      -1.202   3.129  -0.055  0.00  0.00    +0.008 A 
ATOM     14  C   UNL     1      -1.169   1.751  -0.077  0.00  0.00    +0.003 A 
ATOM     15  C   UNL     1       0.044   1.084  -0.093  0.00  0.00    +0.033 A 
ATOM     16  C   UNL     1       1.232   1.794  -0.097  0.00  0.00    +0.127 A 
ATOM     17  C   UNL     1       1.216   3.173  -0.080  0.00  0.00    +0.040 A 
BRANCH  16  18
ATOM     18  N   UNL     1       2.524   1.071  -0.119  0.00  0.00    +0.056 N 
ATOM     19  O   UNL     1       2.540  -0.147  -0.134  0.00  0.00    -0.126 OA
ATOM     20  O   UNL     1       3.570   1.694  -0.122  0.00  0.00    -0.126 OA
ENDBRANCH  16  18
ENDBRANCH  11  12
ENDBRANCH   8  10
ENDBRANCH   7   8
ENDBRANCH   6   7
ENDBRANCH   1   6
BRANCH   3  21
ATOM     21  C   UNL     1      -4.893  11.942  -1.520  0.00  0.00    +0.200 C 
BRANCH  21  22
ATOM     22  C   UNL     1      -4.782  13.442  -1.610  0.00  0.00    +0.234 C 
ATOM     23  O   UNL     1      -3.808  14.006  -1.158  0.00  0.00    -0.274 OA
ATOM     24  N   UNL     1      -5.764  14.157  -2.194  0.00  0.00    -0.282 N 
ATOM     25  H   UNL     1      -6.512  13.702  -2.612  0.00  0.00    +0.155 HD
BRANCH  24  26
ATOM     26  C   UNL     1      -5.706  15.557  -2.195  0.00  0.00    +0.072 A 
ATOM     27  C   UNL     1      -4.481  16.201  -2.295  0.00  0.00    +0.029 A 
ATOM     28  C   UNL     1      -4.424  17.582  -2.300  0.00  0.00    +0.043 A 
ATOM     29  C   UNL     1      -5.588  18.325  -2.198  0.00  0.00    +0.161 A 
ATOM     30  C   UNL     1      -6.814  17.686  -2.093  0.00  0.00    +0.195 A 
ATOM     31  C   UNL     1      -6.875  16.302  -2.091  0.00  0.00    +0.182 A 
ATOM     32  F   UNL     1      -8.068  15.678  -1.990  0.00  0.00    -0.200 F 
ATOM     33  F   UNL     1      -7.948  18.412  -1.992  0.00  0.00    -0.199 F 
ATOM     34  F   UNL     1      -5.529  19.674  -2.199  0.00  0.00    -0.202 F 
ENDBRANCH  24  26
ENDBRANCH  21  22
ENDBRANCH   3  21
TORSDOF 9
