REMARK  Name = ZINC09497002
REMARK  10 active torsions:
REMARK  status: ('A' for Active; 'I' for Inactive)
REMARK    1  A    between atoms: C_1  and  C_2
REMARK    2  A    between atoms: C_2  and  C_3
REMARK    3  A    between atoms: C_10  and  C_12
REMARK    4  A    between atoms: C_15  and  S_18
REMARK    5  A    between atoms: N_16  and  C_17
REMARK    6  A    between atoms: S_18  and  C_19
REMARK    7  A    between atoms: C_19  and  C_20
REMARK    8  A    between atoms: C_20  and  C_22
REMARK    9  A    between atoms: C_23  and  N_34
REMARK   10  A    between atoms: N_24  and  C_31
REMARK                            x       y       z     vdW  Elec       q    Type
REMARK                         _______ _______ _______ _____ _____    ______ ____
ROOT
ATOM      1  S   UNL     1      -0.561   2.055   1.481  0.00  0.00    -0.078 S 
ENDROOT
BRANCH   1   5
ATOM      2  C   UNL     1       1.334   0.722   4.630  0.00  0.00    +0.171 A 
ATOM      3  N   UNL     1       1.947   0.110   3.641  0.00  0.00    -0.128 NA
ATOM      4  N   UNL     1       1.421   0.452   2.519  0.00  0.00    -0.122 NA
ATOM      5  C   UNL     1       0.445   1.309   2.720  0.00  0.00    +0.192 A 
ATOM      6  N   UNL     1       0.352   1.509   4.069  0.00  0.00    -0.305 N 
ATOM      7  C   UNL     1      -0.594   2.379   4.772  0.00  0.00    +0.153 C 
BRANCH   2  14
ATOM      8  C   UNL     1       2.971  -1.233  10.343  0.00  0.00    -0.007 C 
ATOM      9  C   UNL     1       3.070   0.212  10.839  0.00  0.00    +0.009 C 
ATOM     10  C   UNL     1       1.946   1.034  10.190  0.00  0.00    +0.043 C 
ATOM     11  C   UNL     1       1.933   0.737   8.725  0.00  0.00    -0.006 A 
ATOM     12  C   UNL     1       2.553  -0.294   8.082  0.00  0.00    -0.036 A 
ATOM     13  C   UNL     1       2.387  -0.359   6.704  0.00  0.00    +0.023 A 
ATOM     14  C   UNL     1       1.639   0.591   6.064  0.00  0.00    +0.057 A 
ATOM     15  S   UNL     1       1.121   1.627   7.425  0.00  0.00    -0.090 S 
ATOM     16  C   UNL     1       3.374  -1.310   8.870  0.00  0.00    +0.039 C 
BRANCH   8  18
ATOM     17  C   UNL     1       3.705  -3.582  10.773  0.00  0.00    +0.004 C 
ATOM     18  C   UNL     1       3.904  -2.119  11.172  0.00  0.00    +0.000 C 
ENDBRANCH   8  18
ENDBRANCH   2  14
ENDBRANCH   1   5
BRANCH   1  19
ATOM     19  C   UNL     1       0.160   1.307  -0.002  0.00  0.00    +0.157 C 
BRANCH  19  20
ATOM     20  C   UNL     1      -0.564   1.814  -1.222  0.00  0.00    +0.182 C 
ATOM     21  O   UNL     1      -1.479   2.604  -1.102  0.00  0.00    -0.291 OA
BRANCH  20  22
ATOM     22  C   UNL     1      -0.179   1.371  -2.506  0.00  0.00    +0.120 A 
ATOM     23  C   UNL     1      -0.914   1.732  -3.648  0.00  0.00    +0.116 A 
ATOM     24  N   UNL     1      -0.499   1.283  -4.870  0.00  0.00    -0.278 N 
ATOM     25  C   UNL     1       0.584   0.500  -4.994  0.00  0.00    +0.331 A 
ATOM     26  O   UNL     1       0.909   0.122  -6.102  0.00  0.00    -0.246 OA
ATOM     27  N   UNL     1       1.321   0.118  -3.938  0.00  0.00    -0.274 N 
ATOM     28  H   UNL     1       2.120  -0.466  -4.080  0.00  0.00    +0.173 HD
ATOM     29  C   UNL     1       0.998   0.513  -2.689  0.00  0.00    +0.266 A 
ATOM     30  O   UNL     1       1.669   0.165  -1.735  0.00  0.00    -0.267 OA
BRANCH  24  31
ATOM     31  C   UNL     1      -1.254   1.659  -6.067  0.00  0.00    +0.094 C 
ATOM     32  C   UNL     1      -2.776   1.502  -6.021  0.00  0.00    +0.027 C 
ATOM     33  C   UNL     1      -1.931   0.537  -6.857  0.00  0.00    +0.027 C 
ENDBRANCH  24  31
BRANCH  23  34
ATOM     34  N   UNL     1      -2.018   2.521  -3.540  0.00  0.00    -0.344 N 
ATOM     35  H   UNL     1      -2.302   3.063  -4.293  0.00  0.00    +0.144 HD
ATOM     36  H   UNL     1      -2.520   2.541  -2.711  0.00  0.00    +0.144 HD
ENDBRANCH  23  34
ENDBRANCH  20  22
ENDBRANCH  19  20
ENDBRANCH   1  19
TORSDOF 8
