REMARK  Name = ZINC65292521
REMARK  6 active torsions:
REMARK  status: ('A' for Active; 'I' for Inactive)
REMARK    1  A    between atoms: C_1  and  N_2
REMARK    2  A    between atoms: C_10  and  C_12
REMARK    3  A    between atoms: C_12  and  C_13
REMARK    4  A    between atoms: C_19  and  C_21
REMARK    5  A    between atoms: C_21  and  C_22
REMARK    6  A    between atoms: C_22  and  C_23
REMARK                            x       y       z     vdW  Elec       q    Type
REMARK                         _______ _______ _______ _____ _____    ______ ____
ROOT
ATOM      1  C   UNL     1      -1.184  -1.567   3.256  0.00  0.00    +0.011 C 
ATOM      2  C   UNL     1      -1.254  -3.059   2.834  0.00  0.00    +0.024 C 
ATOM      3  C   UNL     1      -1.876  -3.739   4.072  0.00  0.00    +0.108 C 
ATOM      4  N   UNL     1      -2.597  -2.702   4.824  0.00  0.00    -0.301 N 
ATOM      5  C   UNL     1      -2.473  -1.422   4.102  0.00  0.00    +0.111 C 
ATOM      6  C   UNL     1      -3.261  -2.890   5.982  0.00  0.00    +0.216 C 
ATOM      7  O   UNL     1      -3.822  -1.957   6.517  0.00  0.00    -0.276 OA
ENDROOT
BRANCH   1   8
ATOM      8  C   UNL     1      -1.225  -0.649   2.032  0.00  0.00    +0.047 C 
BRANCH   8  18
ATOM      9  C   UNL     1       0.003   1.730   0.350  0.00  0.00    +0.132 C 
ATOM     10  N   UNL     1       0.150   0.279   0.218  0.00  0.00    -0.300 N 
ATOM     11  C   UNL     1       0.347  -0.426  -0.971  0.00  0.00    +0.121 A 
ATOM     12  C   UNL     1       0.440  -1.790  -0.698  0.00  0.00    +0.067 A 
ATOM     13  C   UNL     1       0.638  -2.679  -1.748  0.00  0.00    +0.028 A 
ATOM     14  C   UNL     1       0.736  -2.172  -3.036  0.00  0.00    +0.019 A 
ATOM     15  C   UNL     1       0.634  -0.810  -3.234  0.00  0.00    +0.084 A 
ATOM     16  N   UNL     1       0.446   0.012  -2.220  0.00  0.00    -0.348 N 
ATOM     17  N   UNL     1       0.307  -2.011   0.678  0.00  0.00    -0.323 N 
ATOM     18  C   UNL     1       0.123  -0.700   1.311  0.00  0.00    +0.160 C 
ATOM     19  H   UNL     1       0.334  -2.870   1.128  0.00  0.00    +0.148 HD
ATOM     20  H   UNL     1       0.379   0.964  -2.392  0.00  0.00    +0.167 HD
ENDBRANCH   8  18
ENDBRANCH   1   8
BRANCH   6  21
ATOM     21  C   UNL     1      -3.306  -4.258   6.611  0.00  0.00    +0.100 C 
BRANCH  21  22
ATOM     22  C   UNL     1      -4.117  -4.197   7.907  0.00  0.00    +0.042 C 
BRANCH  22  23
ATOM     23  C   UNL     1      -4.162  -5.566   8.536  0.00  0.00    -0.041 C 
ATOM     24  C   UNL     1      -3.344  -6.044   9.502  0.00  0.00    -0.001 A 
ATOM     25  C   UNL     1      -2.211  -5.456  10.226  0.00  0.00    +0.010 A 
ATOM     26  C   UNL     1      -1.573  -6.198  11.159  0.00  0.00    +0.001 A 
ATOM     27  C   UNL     1      -1.965  -7.512  11.451  0.00  0.00    +0.002 A 
ATOM     28  C   UNL     1      -2.996  -8.120  10.828  0.00  0.00    +0.026 A 
ATOM     29  C   UNL     1      -3.739  -7.433   9.829  0.00  0.00    +0.043 A 
ATOM     30  N   UNL     1      -4.761  -7.799   9.094  0.00  0.00    -0.380 N 
ATOM     31  C   UNL     1      -5.134  -6.680   8.221  0.00  0.00    +0.144 C 
ATOM     32  H   UNL     1      -5.200  -8.663   9.125  0.00  0.00    +0.160 HD
ENDBRANCH  22  23
ENDBRANCH  21  22
ENDBRANCH   6  21
TORSDOF 5
