REMARK  Name = ZINC39916034
REMARK  12 active torsions:
REMARK  status: ('A' for Active; 'I' for Inactive)
REMARK    1  A    between atoms: C_8  and  S_21
REMARK    2  A    between atoms: N_9  and  C_10
REMARK    3  A    between atoms: C_10  and  C_11
REMARK    4  A    between atoms: C_11  and  C_12
REMARK    5  A    between atoms: C_12  and  O_13
REMARK    6  A    between atoms: O_13  and  C_14
REMARK    7  A    between atoms: S_21  and  C_22
REMARK    8  A    between atoms: C_24  and  O_37
REMARK    9  A    between atoms: C_26  and  O_36
REMARK   10  A    between atoms: C_28  and  O_35
REMARK   11  A    between atoms: C_30  and  C_33
REMARK   12  A    between atoms: C_33  and  O_34
REMARK                            x       y       z     vdW  Elec       q    Type
REMARK                         _______ _______ _______ _____ _____    ______ ____
ROOT
ATOM      1  C   UNL     1      -0.017   1.373   0.010  0.00  0.00    +0.002 A 
ATOM      2  C   UNL     1       1.169   2.093   0.002  0.00  0.00    +0.002 A 
ATOM      3  C   UNL     1       2.384   1.439  -0.013  0.00  0.00    +0.028 A 
ATOM      4  C   UNL     1       2.421   0.053  -0.021  0.00  0.00    +0.069 A 
ATOM      5  C   UNL     1       1.224  -0.681  -0.013  0.00  0.00    +0.090 A 
ATOM      6  C   UNL     1       0.002  -0.004   0.002  0.00  0.00    +0.030 A 
ATOM      7  N   UNL     1       1.561  -1.998  -0.024  0.00  0.00    -0.222 NA
ATOM      8  C   UNL     1       2.866  -2.117  -0.037  0.00  0.00    +0.172 A 
ATOM      9  N   UNL     1       3.446  -0.880  -0.036  0.00  0.00    -0.318 N 
ENDROOT
BRANCH   9  10
ATOM     10  C   UNL     1       4.882  -0.593  -0.050  0.00  0.00    +0.127 C 
BRANCH  10  11
ATOM     11  C   UNL     1       5.397  -0.500   1.388  0.00  0.00    +0.063 C 
BRANCH  11  12
ATOM     12  C   UNL     1       6.898  -0.201   1.374  0.00  0.00    +0.231 C 
BRANCH  12  13
ATOM     13  O   UNL     1       7.379  -0.114   2.716  0.00  0.00    -0.492 OA
BRANCH  13  14
ATOM     14  C   UNL     1       8.702   0.149   2.882  0.00  0.00    +0.121 A 
ATOM     15  C   UNL     1       9.519   0.326   1.775  0.00  0.00    +0.047 A 
ATOM     16  C   UNL     1      10.863   0.593   1.946  0.00  0.00    +0.023 A 
ATOM     17  C   UNL     1      11.395   0.684   3.220  0.00  0.00    +0.041 A 
ATOM     18  C   UNL     1      10.582   0.508   4.325  0.00  0.00    +0.023 A 
ATOM     19  C   UNL     1       9.236   0.247   4.159  0.00  0.00    +0.047 A 
ATOM     20 CL   UNL     1      13.085   1.020   3.431  0.00  0.00    -0.084 Cl
ENDBRANCH  13  14
ENDBRANCH  12  13
ENDBRANCH  11  12
ENDBRANCH  10  11
ENDBRANCH   9  10
BRANCH   8  21
ATOM     21  S   UNL     1       3.743  -3.646  -0.054  0.00  0.00    -0.054 S 
BRANCH  21  22
ATOM     22  C   UNL     1       2.434  -4.902  -0.048  0.00  0.00    +0.214 C 
ATOM     23  C   UNL     1       3.053  -6.282   0.189  0.00  0.00    +0.185 C 
ATOM     24  C   UNL     1       1.950  -7.344   0.133  0.00  0.00    +0.177 C 
ATOM     25  C   UNL     1       1.236  -7.251  -1.219  0.00  0.00    +0.176 C 
ATOM     26  C   UNL     1       0.687  -5.834  -1.401  0.00  0.00    +0.176 C 
ATOM     27  O   UNL     1       1.760  -4.894  -1.308  0.00  0.00    -0.355 OA
BRANCH  25  28
ATOM     28  O   UNL     1       2.160  -7.546  -2.268  0.00  0.00    -0.386 OA
ATOM     29  H   UNL     1       2.550  -8.429  -2.212  0.00  0.00    +0.210 HD
ENDBRANCH  25  28
BRANCH  24  30
ATOM     30  O   UNL     1       2.528  -8.642   0.282  0.00  0.00    -0.386 OA
ATOM     31  H   UNL     1       3.002  -8.768   1.115  0.00  0.00    +0.210 HD
ENDBRANCH  24  30
BRANCH  23  32
ATOM     32  O   UNL     1       3.679  -6.311   1.473  0.00  0.00    -0.386 OA
ATOM     33  H   UNL     1       4.386  -5.660   1.580  0.00  0.00    +0.210 HD
ENDBRANCH  23  32
BRANCH  26  34
ATOM     34  C   UNL     1       0.024  -5.716  -2.775  0.00  0.00    +0.190 C 
BRANCH  34  35
ATOM     35  O   UNL     1      -0.589  -4.431  -2.900  0.00  0.00    -0.392 OA
ATOM     36  H   UNL     1      -1.029  -4.286  -3.748  0.00  0.00    +0.210 HD
ENDBRANCH  34  35
ENDBRANCH  26  34
ENDBRANCH  21  22
ENDBRANCH   8  21
TORSDOF 12
