REMARK  Name = ZINC60321583
REMARK  16 active torsions:
REMARK  status: ('A' for Active; 'I' for Inactive)
REMARK    1  A    between atoms: C_1  and  C_2
REMARK    2  A    between atoms: C_2  and  N_3
REMARK    3  A    between atoms: N_3  and  C_4
REMARK    4  A    between atoms: N_3  and  C_6
REMARK    5  A    between atoms: C_4  and  C_5
REMARK    6  A    between atoms: C_6  and  C_8
REMARK    7  A    between atoms: C_6  and  C_27
REMARK    8  A    between atoms: C_8  and  N_9
REMARK    9  A    between atoms: N_9  and  S_10
REMARK   10  A    between atoms: S_10  and  C_13
REMARK   11  A    between atoms: C_16  and  O_19
REMARK   12  A    between atoms: O_19  and  C_20
REMARK   13  A    between atoms: C_20  and  C_21
REMARK   14  A    between atoms: C_21  and  S_22
REMARK   15  A    between atoms: S_22  and  C_25
REMARK   16  A    between atoms: C_25  and  C_26
REMARK                            x       y       z     vdW  Elec       q    Type
REMARK                         _______ _______ _______ _____ _____    ______ ____
ROOT
ATOM      1  S   UNL     1       2.685  -1.407  -2.397  0.00  0.00    +0.058 S 
ATOM      2  O   UNL     1       1.962  -0.844  -3.483  0.00  0.00    -0.153 OA
ATOM      3  O   UNL     1       3.890  -0.835  -1.906  0.00  0.00    -0.153 OA
ENDROOT
BRANCH   1   4
ATOM      4  C   UNL     1       3.063  -3.067  -2.850  0.00  0.00    +0.105 A 
ATOM      5  C   UNL     1       4.136  -3.715  -2.265  0.00  0.00    +0.032 A 
ATOM      6  C   UNL     1       4.435  -5.016  -2.618  0.00  0.00    +0.047 A 
ATOM      7  C   UNL     1       3.658  -5.673  -3.562  0.00  0.00    +0.121 A 
ATOM      8  C   UNL     1       2.583  -5.021  -4.147  0.00  0.00    +0.047 A 
ATOM      9  C   UNL     1       2.284  -3.722  -3.786  0.00  0.00    +0.032 A 
BRANCH   7  10
ATOM     10  O   UNL     1       3.951  -6.954  -3.912  0.00  0.00    -0.490 OA
BRANCH  10  11
ATOM     11  C   UNL     1       3.108  -7.567  -4.889  0.00  0.00    +0.251 C 
BRANCH  11  12
ATOM     12  C   UNL     1       3.589  -8.996  -5.152  0.00  0.00    +0.206 C 
BRANCH  12  13
ATOM     13  S   UNL     1       2.520  -9.775  -6.393  0.00  0.00    -0.028 S 
ATOM     14  O   UNL     1       1.216  -9.908  -5.843  0.00  0.00    -0.174 OA
ATOM     15  O   UNL     1       2.683  -9.085  -7.624  0.00  0.00    -0.174 OA
BRANCH  13  16
ATOM     16  C   UNL     1       3.242 -11.430  -6.562  0.00  0.00    +0.162 C 
ATOM     17  C   UNL     1       2.443 -12.233  -7.591  0.00  0.00    +0.028 C 
ENDBRANCH  13  16
ENDBRANCH  12  13
ENDBRANCH  11  12
ENDBRANCH  10  11
ENDBRANCH   7  10
ENDBRANCH   1   4
BRANCH   1  18
ATOM     18  N   UNL     1       1.638  -1.476  -1.116  0.00  0.00    -0.191 NA
ATOM     19  H   UNL     1       0.731  -1.144  -1.212  0.00  0.00    +0.148 HD
BRANCH  18  20
ATOM     20  C   UNL     1       2.080  -2.038   0.163  0.00  0.00    +0.098 C 
BRANCH  20  21
ATOM     21  C   UNL     1       1.155  -1.551   1.281  0.00  0.00    +0.015 C 
BRANCH  21  22
ATOM     22  C   UNL     1       1.350  -2.411   2.503  0.00  0.00    +0.093 A 
ATOM     23  C   UNL     1       0.546  -3.416   2.894  0.00  0.00    +0.043 A 
ATOM     24  C   UNL     1       1.099  -3.945   4.083  0.00  0.00    +0.041 A 
ATOM     25  C   UNL     1       2.209  -3.231   4.347  0.00  0.00    +0.195 A 
ATOM     26  O   UNL     1       2.359  -2.308   3.384  0.00  0.00    -0.469 OA
ENDBRANCH  21  22
BRANCH  21  27
ATOM     27  N   UNL     1       1.475  -0.155   1.608  0.00  0.00    +0.387 N 
ATOM     28  H   UNL     1       2.391  -0.110   2.029  0.00  0.00    -0.081 HD
BRANCH  27  30
ATOM     29  C   UNL     1       1.839   2.095   0.714  0.00  0.00    -0.017 C 
ATOM     30  C   UNL     1       1.460   0.651   0.380  0.00  0.00    -0.081 C 
ENDBRANCH  27  30
BRANCH  27  31
ATOM     31  C   UNL     1       0.476   0.368   2.550  0.00  0.00    -0.081 C 
ATOM     32  C   UNL     1       0.621  -0.347   3.895  0.00  0.00    -0.017 C 
ENDBRANCH  27  31
ENDBRANCH  21  27
ENDBRANCH  20  21
ENDBRANCH  18  20
ENDBRANCH   1  18
TORSDOF 13
