REMARK  Name = ZINC16080881
REMARK  9 active torsions:
REMARK  status: ('A' for Active; 'I' for Inactive)
REMARK    1  A    between atoms: C_3  and  C_19
REMARK    2  A    between atoms: C_6  and  C_7
REMARK    3  A    between atoms: C_7  and  N_8
REMARK    4  A    between atoms: C_10  and  C_15
REMARK    5  A    between atoms: N_20  and  O_21
REMARK    6  A    between atoms: O_21  and  C_22
REMARK    7  A    between atoms: N_24  and  C_25
REMARK    8  A    between atoms: C_28  and  O_31
REMARK    9  A    between atoms: O_31  and  C_32
REMARK                            x       y       z     vdW  Elec       q    Type
REMARK                         _______ _______ _______ _____ _____    ______ ____
ROOT
ATOM      1  C   UNL     1       3.788   2.057   0.298  0.00  0.00    +0.163 C 
ATOM      2  N   UNL     1       3.814   3.270   0.770  0.00  0.00    -0.057 NA
ATOM      3  N   UNL     1       4.970   1.414  -0.023  0.00  0.00    -0.340 N 
ATOM      4  H   UNL     1       4.950   0.510  -0.374  0.00  0.00    +0.144 HD
ATOM      5  H   UNL     1       5.818   1.867   0.104  0.00  0.00    +0.144 HD
ENDROOT
BRANCH   1   8
ATOM      6  C   UNL     1       0.130   1.455  -0.314  0.00  0.00    +0.006 A 
ATOM      7  C   UNL     1       1.334   2.105  -0.134  0.00  0.00    +0.012 A 
ATOM      8  C   UNL     1       2.493   1.366   0.105  0.00  0.00    +0.018 A 
ATOM      9  C   UNL     1       2.427  -0.026   0.161  0.00  0.00    +0.012 A 
ATOM     10  C   UNL     1       1.217  -0.664  -0.020  0.00  0.00    +0.006 A 
ATOM     11  C   UNL     1       0.071   0.074  -0.257  0.00  0.00    -0.028 A 
BRANCH  11  12
ATOM     12  C   UNL     1      -1.247  -0.629  -0.454  0.00  0.00    +0.160 C 
BRANCH  12  13
ATOM     13  N   UNL     1      -1.436  -0.923  -1.877  0.00  0.00    -0.310 N 
ATOM     14  C   UNL     1      -2.052  -0.013  -2.674  0.00  0.00    +0.101 A 
ATOM     15  C   UNL     1      -2.238  -0.262  -3.991  0.00  0.00    +0.071 A 
ATOM     16  C   UNL     1      -1.792  -1.471  -4.545  0.00  0.00    +0.019 A 
ATOM     17  C   UNL     1      -1.173  -2.384  -3.743  0.00  0.00    +0.071 A 
ATOM     18  C   UNL     1      -0.991  -2.091  -2.380  0.00  0.00    +0.252 A 
ATOM     19  O   UNL     1      -0.435  -2.897  -1.652  0.00  0.00    -0.268 OA
BRANCH  15  20
ATOM     20  C   UNL     1      -2.925   0.758  -4.862  0.00  0.00    +0.419 C 
ATOM     21  F   UNL     1      -1.964   1.557  -5.491  0.00  0.00    -0.166 F 
ATOM     22  F   UNL     1      -3.693   0.103  -5.830  0.00  0.00    -0.166 F 
ATOM     23  F   UNL     1      -3.755   1.561  -4.073  0.00  0.00    -0.166 F 
ENDBRANCH  15  20
ENDBRANCH  12  13
ENDBRANCH  11  12
ENDBRANCH   1   8
BRANCH   2  24
ATOM     24  O   UNL     1       2.621   3.877   1.230  0.00  0.00    -0.297 OA
BRANCH  24  25
ATOM     25  C   UNL     1       2.787   5.130   1.692  0.00  0.00    +0.430 C 
ATOM     26  O   UNL     1       3.890   5.639   1.686  0.00  0.00    -0.224 OA
ATOM     27  N   UNL     1       1.729   5.821   2.161  0.00  0.00    -0.249 N 
ATOM     28  H   UNL     1       0.863   5.390   2.236  0.00  0.00    +0.158 HD
BRANCH  27  29
ATOM     29  C   UNL     1       1.880   7.162   2.539  0.00  0.00    +0.037 A 
ATOM     30  C   UNL     1       2.779   7.977   1.865  0.00  0.00    +0.027 A 
ATOM     31  C   UNL     1       2.927   9.298   2.239  0.00  0.00    +0.048 A 
ATOM     32  C   UNL     1       2.178   9.811   3.288  0.00  0.00    +0.130 A 
ATOM     33  C   UNL     1       1.279   8.997   3.962  0.00  0.00    +0.048 A 
ATOM     34  C   UNL     1       1.126   7.677   3.585  0.00  0.00    +0.027 A 
BRANCH  32  35
ATOM     35  O   UNL     1       2.325  11.112   3.655  0.00  0.00    -0.406 OA
BRANCH  35  36
ATOM     36  C   UNL     1       1.521  11.573   4.744  0.00  0.00    +0.575 C 
ATOM     37  F   UNL     1       1.812  10.823   5.888  0.00  0.00    -0.133 F 
ATOM     38  F   UNL     1       1.797  12.922   4.987  0.00  0.00    -0.133 F 
ATOM     39  F   UNL     1       0.168  11.424   4.420  0.00  0.00    -0.133 F 
ENDBRANCH  35  36
ENDBRANCH  32  35
ENDBRANCH  27  29
ENDBRANCH  24  25
ENDBRANCH   2  24
TORSDOF 9
