REMARK  Name = ZINC13191784
REMARK  8 active torsions:
REMARK  status: ('A' for Active; 'I' for Inactive)
REMARK    1  A    between atoms: C_1  and  O_2
REMARK    2  A    between atoms: O_2  and  C_3
REMARK    3  A    between atoms: C_6  and  C_9
REMARK    4  A    between atoms: N_14  and  C_15
REMARK    5  A    between atoms: C_18  and  S_24
REMARK    6  A    between atoms: C_20  and  N_21
REMARK    7  A    between atoms: S_24  and  N_27
REMARK    8  A    between atoms: C_30  and  C_33
REMARK                            x       y       z     vdW  Elec       q    Type
REMARK                         _______ _______ _______ _____ _____    ______ ____
ROOT
ATOM      1  C   UNL     1       1.194  -5.702   0.673  0.00  0.00    +0.061 A 
ATOM      2  C   UNL     1       2.086  -5.043   1.510  0.00  0.00    +0.027 A 
ATOM      3  C   UNL     1       1.786  -3.780   1.980  0.00  0.00    +0.030 A 
ATOM      4  C   UNL     1       0.598  -3.170   1.618  0.00  0.00    +0.108 A 
ATOM      5  C   UNL     1      -0.295  -3.825   0.790  0.00  0.00    +0.063 A 
ATOM      6  C   UNL     1       0.002  -5.087   0.312  0.00  0.00    +0.149 A 
ENDROOT
BRANCH   1  11
ATOM      7  C   UNL     1       1.653  -7.938   1.311  0.00  0.00    +0.104 C 
ATOM      8  C   UNL     1       2.742  -8.929   0.828  0.00  0.00    +0.029 C 
ATOM      9  C   UNL     1       3.701  -7.988   0.052  0.00  0.00    +0.021 C 
ATOM     10  C   UNL     1       2.739  -6.968  -0.595  0.00  0.00    +0.106 C 
ATOM     11  N   UNL     1       1.495  -6.979   0.196  0.00  0.00    -0.321 N 
BRANCH   7  15
ATOM     12  C   UNL     1      -2.019  -9.999   2.035  0.00  0.00    +0.120 A 
ATOM     13  C   UNL     1      -1.232  -9.587   3.100  0.00  0.00    +0.046 A 
ATOM     14  C   UNL     1      -0.045  -8.920   2.864  0.00  0.00    +0.009 A 
ATOM     15  C   UNL     1       0.358  -8.664   1.566  0.00  0.00    -0.027 A 
ATOM     16  C   UNL     1      -0.427  -9.069   0.503  0.00  0.00    +0.009 A 
ATOM     17  C   UNL     1      -1.612  -9.741   0.734  0.00  0.00    +0.046 A 
BRANCH  12  19
ATOM     18  C   UNL     1      -3.946 -11.049   1.121  0.00  0.00    +0.277 C 
ATOM     19  O   UNL     1      -3.187 -10.654   2.265  0.00  0.00    -0.495 OA
ENDBRANCH  12  19
ENDBRANCH   7  15
ENDBRANCH   1  11
BRANCH   6  20
ATOM     20  N   UNL     1      -0.952  -5.785  -0.579  0.00  0.00    +0.058 N 
ATOM     21  O   UNL     1      -1.997  -5.245  -0.895  0.00  0.00    -0.126 OA
ATOM     22  O   UNL     1      -0.692  -6.899  -0.996  0.00  0.00    -0.126 OA
ENDBRANCH   6  20
BRANCH   4  23
ATOM     23  S   UNL     1       0.219  -1.558   2.220  0.00  0.00    +0.061 S 
ATOM     24  O   UNL     1       0.963  -1.386   3.418  0.00  0.00    -0.153 OA
ATOM     25  O   UNL     1      -1.196  -1.431   2.177  0.00  0.00    -0.153 OA
BRANCH  23  26
ATOM     26  N   UNL     1       0.824  -0.472   1.126  0.00  0.00    -0.177 NA
ATOM     27  C   UNL     1       0.002  -0.004   0.002  0.00  0.00    +0.110 C 
ATOM     28  C   UNL     1      -0.019   1.528   0.010  0.00  0.00    +0.032 C 
ATOM     29  C   UNL     1       1.419   2.053  -0.001  0.00  0.00    +0.105 C 
ATOM     30  C   UNL     1       2.149   1.573   1.256  0.00  0.00    +0.032 C 
ATOM     31  C   UNL     1       2.194   0.042   1.262  0.00  0.00    +0.110 C 
BRANCH  29  32
ATOM     32  C   UNL     1       1.402   3.560  -0.027  0.00  0.00    +0.359 C 
ATOM     33  O   UNL     1       0.349   4.152  -0.035  0.00  0.00    -0.246 OA
ATOM     34  O   UNL     1       2.557   4.244  -0.040  0.00  0.00    -0.246 OA
ENDBRANCH  29  32
ENDBRANCH  23  26
ENDBRANCH   4  23
TORSDOF 7
