REMARK  Name = ZINC36003885
REMARK  15 active torsions:
REMARK  status: ('A' for Active; 'I' for Inactive)
REMARK    1  A    between atoms: C_1  and  C_2
REMARK    2  A    between atoms: C_3  and  C_13
REMARK    3  A    between atoms: C_4  and  C_12
REMARK    4  A    between atoms: C_7  and  C_8
REMARK    5  A    between atoms: C_8  and  O_10
REMARK    6  A    between atoms: O_10  and  C_11
REMARK    7  A    between atoms: C_13  and  C_15
REMARK    8  A    between atoms: C_15  and  C_17
REMARK    9  A    between atoms: C_15  and  N_18
REMARK   10  A    between atoms: N_18  and  C_19
REMARK   11  A    between atoms: N_18  and  S_25
REMARK   12  A    between atoms: C_19  and  C_20
REMARK   13  A    between atoms: S_25  and  C_28
REMARK   14  A    between atoms: C_31  and  O_34
REMARK   15  A    between atoms: O_34  and  C_35
REMARK                            x       y       z     vdW  Elec       q    Type
REMARK                         _______ _______ _______ _____ _____    ______ ____
ROOT
ATOM      1  N   UNL     1      -0.075  -1.579  -4.936  0.00  0.00    -0.159 NA
ENDROOT
BRANCH   1   2
ATOM      2  S   UNL     1      -1.351  -2.176  -5.807  0.00  0.00    +0.062 S 
ATOM      3  O   UNL     1      -1.005  -2.040  -7.179  0.00  0.00    -0.153 OA
ATOM      4  O   UNL     1      -1.688  -3.429  -5.227  0.00  0.00    -0.153 OA
BRANCH   2   5
ATOM      5  C   UNL     1      -2.721  -1.105  -5.524  0.00  0.00    +0.106 A 
ATOM      6  C   UNL     1      -3.583  -1.350  -4.471  0.00  0.00    +0.032 A 
ATOM      7  C   UNL     1      -4.658  -0.512  -4.248  0.00  0.00    +0.047 A 
ATOM      8  C   UNL     1      -4.872   0.577  -5.081  0.00  0.00    +0.120 A 
ATOM      9  C   UNL     1      -4.006   0.821  -6.137  0.00  0.00    +0.047 A 
ATOM     10  C   UNL     1      -2.929  -0.018  -6.353  0.00  0.00    +0.032 A 
BRANCH   8  11
ATOM     11  O   UNL     1      -5.929   1.402  -4.864  0.00  0.00    -0.495 OA
ATOM     12  C   UNL     1      -6.088   2.503  -5.761  0.00  0.00    +0.277 C 
ENDBRANCH   8  11
ENDBRANCH   2   5
ENDBRANCH   1   2
BRANCH   1  13
ATOM     13  C   UNL     1       0.142  -2.023  -3.557  0.00  0.00    +0.148 C 
ATOM     14  C   UNL     1       1.516  -2.685  -3.444  0.00  0.00    +0.034 C 
BRANCH  13  15
ATOM     15  C   UNL     1       0.079  -0.835  -2.632  0.00  0.00    +0.183 C 
ATOM     16  O   UNL     1       0.127   0.290  -3.084  0.00  0.00    -0.290 OA
BRANCH  15  19
ATOM     17  C   UNL     1       2.486  -0.862  -0.546  0.00  0.00    +0.047 C 
ATOM     18  C   UNL     1       1.021  -1.052  -0.247  0.00  0.00    -0.008 A 
ATOM     19  C   UNL     1      -0.039  -1.038  -1.184  0.00  0.00    +0.043 A 
ATOM     20  C   UNL     1      -1.210  -1.252  -0.474  0.00  0.00    +0.024 A 
ATOM     21  N   UNL     1      -0.899  -1.390   0.823  0.00  0.00    -0.352 N 
ATOM     22  H   UNL     1      -1.534  -1.550   1.538  0.00  0.00    +0.166 HD
ATOM     23  C   UNL     1       0.466  -1.276   0.978  0.00  0.00    +0.128 A 
ATOM     24  C   UNL     1      -2.597  -1.317  -1.060  0.00  0.00    +0.064 C 
BRANCH  23  25
ATOM     25  C   UNL     1       1.196  -1.374   2.246  0.00  0.00    +0.356 C 
ATOM     26  O   UNL     1       2.406  -1.253   2.262  0.00  0.00    -0.243 OA
BRANCH  25  27
ATOM     27  O   UNL     1       0.526  -1.599   3.395  0.00  0.00    -0.463 OA
ATOM     28  C   UNL     1       1.302  -1.684   4.592  0.00  0.00    +0.280 C 
ENDBRANCH  25  27
ENDBRANCH  23  25
ENDBRANCH  15  19
ENDBRANCH  13  15
ENDBRANCH   1  13
BRANCH   1  29
ATOM     29  C   UNL     1       0.837  -0.608  -5.545  0.00  0.00    +0.184 C 
BRANCH  29  30
ATOM     30  C   UNL     1       2.030  -1.330  -6.117  0.00  0.00    +0.120 A 
ATOM     31  C   UNL     1       2.134  -1.809  -7.370  0.00  0.00    +0.046 A 
ATOM     32  C   UNL     1       3.411  -2.406  -7.476  0.00  0.00    +0.041 A 
ATOM     33  C   UNL     1       4.012  -2.256  -6.282  0.00  0.00    +0.195 A 
ATOM     34  O   UNL     1       3.173  -1.598  -5.464  0.00  0.00    -0.466 OA
ENDBRANCH  29  30
ENDBRANCH   1  29
TORSDOF 10
