REMARK  Name = ZINC32698472
REMARK  7 active torsions:
REMARK  status: ('A' for Active; 'I' for Inactive)
REMARK    1  A    between atoms: C_1  and  C_2
REMARK    2  A    between atoms: C_3  and  C_27
REMARK    3  A    between atoms: C_8  and  C_10
REMARK    4  A    between atoms: C_10  and  S_11
REMARK    5  A    between atoms: S_11  and  C_12
REMARK    6  A    between atoms: C_15  and  C_17
REMARK    7  A    between atoms: C_27  and  C_29
REMARK                            x       y       z     vdW  Elec       q    Type
REMARK                         _______ _______ _______ _____ _____    ______ ____
ROOT
ATOM      1  S   UNL     1       6.282   4.175   0.051  0.00  0.00    -0.056 S 
ENDROOT
BRANCH   1   2
ATOM      2  C   UNL     1       6.912   5.819   0.000  0.00  0.00    +0.278 A 
ATOM      3  N   UNL     1       6.202   6.922  -0.064  0.00  0.00    -0.101 NA
ATOM      4  N   UNL     1       6.989   7.939  -0.081  0.00  0.00    -0.106 NA
ATOM      5  C   UNL     1       8.234   7.527  -0.038  0.00  0.00    +0.250 A 
ATOM      6  O   UNL     1       8.211   6.176   0.015  0.00  0.00    -0.411 OA
BRANCH   5   7
ATOM      7  C   UNL     1       9.437   8.379  -0.045  0.00  0.00    +0.046 A 
ATOM      8  C   UNL     1       9.555   9.417  -0.958  0.00  0.00    +0.014 A 
ATOM      9  C   UNL     1      10.686  10.224  -0.969  0.00  0.00    +0.001 A 
ATOM     10  C   UNL     1      11.707  10.021  -0.089  0.00  0.00    +0.008 A 
ATOM     11  C   UNL     1      11.630   8.981   0.853  0.00  0.00    -0.017 A 
ATOM     12  C   UNL     1      10.482   8.152   0.885  0.00  0.00    -0.006 A 
ATOM     13  C   UNL     1      10.409   7.111   1.821  0.00  0.00    +0.009 A 
ATOM     14  C   UNL     1      11.437   6.917   2.695  0.00  0.00    +0.001 A 
ATOM     15  C   UNL     1      12.564   7.735   2.669  0.00  0.00    +0.001 A 
ATOM     16  C   UNL     1      12.670   8.751   1.770  0.00  0.00    +0.008 A 
ENDBRANCH   5   7
ENDBRANCH   1   2
BRANCH   1  17
ATOM     17  C   UNL     1       4.506   4.516  -0.001  0.00  0.00    +0.175 C 
BRANCH  17  25
ATOM     18  C   UNL     1       1.924  -1.640   0.181  0.00  0.00    +0.067 C 
ATOM     19  C   UNL     1       1.375  -0.238   0.116  0.00  0.00    +0.058 A 
ATOM     20  C   UNL     1       0.002  -0.003   0.077  0.00  0.00    +0.078 A 
ATOM     21  S   UNL     1      -0.022   1.783   0.007  0.00  0.00    -0.049 S 
ATOM     22  C   UNL     1       1.696   2.034   0.035  0.00  0.00    +0.165 A 
ATOM     23  N   UNL     1       2.168   0.797   0.093  0.00  0.00    -0.229 NA
ATOM     24  N   UNL     1       2.396   3.226   0.003  0.00  0.00    -0.264 N 
ATOM     25  C   UNL     1       3.743   3.217   0.033  0.00  0.00    +0.229 C 
ATOM     26  O   UNL     1       4.341   2.164   0.087  0.00  0.00    -0.275 OA
ATOM     27  H   UNL     1       1.853   4.181  -0.046  0.00  0.00    +0.157 HD
BRANCH  20  28
ATOM     28  C   UNL     1      -1.070  -0.918   0.088  0.00  0.00    +0.168 C 
ATOM     29  O   UNL     1      -0.849  -2.111   0.139  0.00  0.00    -0.292 OA
ATOM     30  C   UNL     1      -2.490  -0.416   0.038  0.00  0.00    +0.092 C 
ENDBRANCH  20  28
ENDBRANCH  17  25
ENDBRANCH   1  17
TORSDOF 5
