REMARK  Name = ZINC13280829
REMARK  8 active torsions:
REMARK  status: ('A' for Active; 'I' for Inactive)
REMARK    1  A    between atoms: C_1  and  C_2
REMARK    2  A    between atoms: C_5  and  C_8
REMARK    3  A    between atoms: C_11  and  S_16
REMARK    4  A    between atoms: N_12  and  C_13
REMARK    5  A    between atoms: C_13  and  C_14
REMARK    6  A    between atoms: S_16  and  C_17
REMARK    7  A    between atoms: C_17  and  C_18
REMARK    8  A    between atoms: C_20  and  N_28
REMARK                            x       y       z     vdW  Elec       q    Type
REMARK                         _______ _______ _______ _____ _____    ______ ____
ROOT
ATOM      1  C   UNL     1       0.538   3.876  -0.032  0.00  0.00    +0.165 A 
ATOM      2  N   UNL     1      -0.767   3.744  -0.009  0.00  0.00    -0.128 NA
ATOM      3  N   UNL     1      -1.081   2.498   0.043  0.00  0.00    -0.122 NA
ATOM      4  C   UNL     1       0.006   1.760   0.065  0.00  0.00    +0.193 A 
ATOM      5  N   UNL     1       1.074   2.609   0.015  0.00  0.00    -0.291 N 
ENDROOT
BRANCH   1  10
ATOM      6  C   UNL     1       3.472   8.821  -0.279  0.00  0.00    +0.044 C 
ATOM      7  C   UNL     1       2.703   7.526  -0.214  0.00  0.00    -0.050 A 
ATOM      8  C   UNL     1       1.390   7.525   0.220  0.00  0.00    +0.004 A 
ATOM      9  C   UNL     1       0.681   6.343   0.282  0.00  0.00    +0.012 A 
ATOM     10  C   UNL     1       1.292   5.146  -0.096  0.00  0.00    +0.019 A 
ATOM     11  C   UNL     1       2.619   5.153  -0.528  0.00  0.00    +0.012 A 
ATOM     12  C   UNL     1       3.315   6.343  -0.590  0.00  0.00    +0.004 A 
ENDBRANCH   1  10
BRANCH   5  13
ATOM     13  C   UNL     1       2.493   2.248   0.012  0.00  0.00    +0.250 C 
BRANCH  13  14
ATOM     14  C   UNL     1       2.947   2.006  -1.405  0.00  0.00    +0.375 C 
ATOM     15  O   UNL     1       2.165   2.124  -2.318  0.00  0.00    -0.244 OA
ATOM     16  O   UNL     1       4.220   1.660  -1.652  0.00  0.00    -0.244 OA
ENDBRANCH  13  14
ENDBRANCH   5  13
BRANCH   4  17
ATOM     17  S   UNL     1       0.072   0.000   0.139  0.00  0.00    -0.081 S 
BRANCH  17  18
ATOM     18  C   UNL     1      -1.697  -0.380   0.178  0.00  0.00    +0.116 C 
BRANCH  18  19
ATOM     19  C   UNL     1      -1.888  -1.873   0.244  0.00  0.00    +0.007 A 
ATOM     20  C   UNL     1      -1.960  -2.507   1.469  0.00  0.00    +0.040 A 
ATOM     21  C   UNL     1      -2.136  -3.877   1.530  0.00  0.00    +0.127 A 
ATOM     22  C   UNL     1      -2.240  -4.615   0.365  0.00  0.00    +0.042 A 
ATOM     23  C   UNL     1      -2.167  -3.986  -0.863  0.00  0.00    +0.022 A 
ATOM     24  C   UNL     1      -1.998  -2.611  -0.926  0.00  0.00    +0.133 A 
ATOM     25  O   UNL     1      -1.938  -1.977  -2.128  0.00  0.00    -0.466 OA
ATOM     26  C   UNL     1      -1.689  -2.793  -3.276  0.00  0.00    +0.394 C 
ATOM     27  O   UNL     1      -2.560  -3.929  -3.228  0.00  0.00    -0.339 OA
ATOM     28  C   UNL     1      -2.273  -4.801  -2.127  0.00  0.00    +0.202 C 
BRANCH  21  29
ATOM     29  N   UNL     1      -2.214  -4.554   2.844  0.00  0.00    +0.056 N 
ATOM     30  O   UNL     1      -2.123  -3.905   3.870  0.00  0.00    -0.126 OA
ATOM     31  O   UNL     1      -2.370  -5.761   2.898  0.00  0.00    -0.126 OA
ENDBRANCH  21  29
ENDBRANCH  18  19
ENDBRANCH  17  18
ENDBRANCH   4  17
TORSDOF 7
