REMARK  Name = ZINC09576797
REMARK  7 active torsions:
REMARK  status: ('A' for Active; 'I' for Inactive)
REMARK    1  A    between atoms: C_3  and  O_31
REMARK    2  A    between atoms: C_6  and  N_7
REMARK    3  A    between atoms: C_8  and  C_10
REMARK    4  A    between atoms: C_10  and  N_11
REMARK    5  A    between atoms: C_12  and  C_14
REMARK    6  A    between atoms: N_19  and  S_21
REMARK    7  A    between atoms: S_21  and  C_24
REMARK                            x       y       z     vdW  Elec       q    Type
REMARK                         _______ _______ _______ _____ _____    ______ ____
ROOT
ATOM      1  N   UNL     1      -2.589  -3.552   4.390  0.00  0.00    -0.306 N 
ATOM      2  C   UNL     1      -2.407  -2.371   3.767  0.00  0.00    +0.218 C 
ATOM      3  O   UNL     1      -3.222  -1.483   3.899  0.00  0.00    -0.275 OA
ATOM      4  H   UNL     1      -1.937  -4.262   4.284  0.00  0.00    +0.149 HD
ENDROOT
BRANCH   2   5
ATOM      5  C   UNL     1      -1.189  -2.154   2.905  0.00  0.00    +0.091 C 
ATOM      6  C   UNL     1       0.073  -2.319   3.754  0.00  0.00    +0.015 C 
ATOM      7  C   UNL     1       1.310  -2.131   2.873  0.00  0.00    +0.018 C 
ATOM      8  C   UNL     1       1.304  -0.722   2.284  0.00  0.00    +0.109 C 
ATOM      9  N   UNL     1       0.029  -0.499   1.589  0.00  0.00    -0.176 NA
ATOM     10  C   UNL     1      -1.224  -0.739   2.318  0.00  0.00    +0.122 C 
BRANCH   9  11
ATOM     11  S   UNL     1       0.004   0.007   0.013  0.00  0.00    +0.061 S 
ATOM     12  O   UNL     1      -1.245  -0.405  -0.526  0.00  0.00    -0.153 OA
ATOM     13  O   UNL     1       1.246  -0.382  -0.558  0.00  0.00    -0.153 OA
BRANCH  11  14
ATOM     14  C   UNL     1      -0.012   1.769   0.031  0.00  0.00    +0.106 A 
ATOM     15  C   UNL     1      -1.216   2.449   0.048  0.00  0.00    +0.030 A 
ATOM     16  C   UNL     1      -1.229   3.831   0.068  0.00  0.00    +0.022 A 
ATOM     17  C   UNL     1      -0.037   4.534   0.060  0.00  0.00    +0.041 A 
ATOM     18  C   UNL     1       1.167   3.853   0.037  0.00  0.00    +0.022 A 
ATOM     19  C   UNL     1       1.179   2.471   0.023  0.00  0.00    +0.030 A 
ATOM     20 CL   UNL     1      -0.053   6.270   0.077  0.00  0.00    -0.084 Cl
ENDBRANCH  11  14
ENDBRANCH   9  11
ENDBRANCH   2   5
BRANCH   1  21
ATOM     21  C   UNL     1      -3.772  -3.763   5.228  0.00  0.00    +0.200 C 
BRANCH  21  23
ATOM     22  N   UNL     1      -4.732  -5.574   6.612  0.00  0.00    -0.284 N 
ATOM     23  C   UNL     1      -3.738  -5.155   5.804  0.00  0.00    +0.234 C 
ATOM     24  O   UNL     1      -2.815  -5.897   5.542  0.00  0.00    -0.274 OA
ATOM     25  H   UNL     1      -5.434  -4.960   6.877  0.00  0.00    +0.155 HD
BRANCH  22  31
ATOM     26  C   UNL     1      -5.961  -7.556   7.245  0.00  0.00    +0.027 A 
ATOM     27  C   UNL     1      -5.978  -8.862   7.692  0.00  0.00    +0.047 A 
ATOM     28  C   UNL     1      -4.787  -9.514   7.976  0.00  0.00    +0.117 A 
ATOM     29  C   UNL     1      -3.578  -8.856   7.807  0.00  0.00    +0.047 A 
ATOM     30  C   UNL     1      -3.559  -7.551   7.355  0.00  0.00    +0.027 A 
ATOM     31  C   UNL     1      -4.750  -6.898   7.071  0.00  0.00    +0.034 A 
BRANCH  28  32
ATOM     32  O   UNL     1      -4.805 -10.799   8.421  0.00  0.00    -0.507 OA
ATOM     33  H   UNL     1      -4.851 -10.882   9.383  0.00  0.00    +0.292 HD
ENDBRANCH  28  32
ENDBRANCH  22  31
ENDBRANCH  21  23
ENDBRANCH   1  21
TORSDOF 7
