REMARK  Name = ZINC19288073
REMARK  8 active torsions:
REMARK  status: ('A' for Active; 'I' for Inactive)
REMARK    1  A    between atoms: C_6  and  N_7
REMARK    2  A    between atoms: C_8  and  C_10
REMARK    3  A    between atoms: N_12  and  C_13
REMARK    4  A    between atoms: C_13  and  C_14
REMARK    5  A    between atoms: C_14  and  N_15
REMARK    6  A    between atoms: N_18  and  S_21
REMARK    7  A    between atoms: S_21  and  C_24
REMARK    8  A    between atoms: C_27  and  N_30
REMARK                            x       y       z     vdW  Elec       q    Type
REMARK                         _______ _______ _______ _____ _____    ______ ____
ROOT
ATOM      1  N   UNL     1      -0.928   3.051  -1.130  0.00  0.00    -0.298 NA
ATOM      2  C   UNL     1      -0.774   1.593  -1.224  0.00  0.00    +0.101 C 
ATOM      3  C   UNL     1      -0.033   1.080   0.015  0.00  0.00    +0.125 C 
ATOM      4  N   UNL     1      -0.738   1.554   1.216  0.00  0.00    -0.174 NA
ATOM      5  C   UNL     1      -1.056   2.987   1.315  0.00  0.00    +0.125 C 
ATOM      6  C   UNL     1      -1.756   3.426   0.025  0.00  0.00    +0.101 C 
ENDROOT
BRANCH   4   7
ATOM      7  S   UNL     1      -1.169   0.501   2.419  0.00  0.00    +0.061 S 
ATOM      8  O   UNL     1      -2.260   1.097   3.108  0.00  0.00    -0.153 OA
ATOM      9  O   UNL     1      -1.255  -0.785   1.822  0.00  0.00    -0.153 OA
BRANCH   7  10
ATOM     10  C   UNL     1       0.173   0.438   3.560  0.00  0.00    +0.106 A 
ATOM     11  C   UNL     1       1.179  -0.495   3.393  0.00  0.00    +0.031 A 
ATOM     12  C   UNL     1       2.234  -0.542   4.285  0.00  0.00    +0.034 A 
ATOM     13  C   UNL     1       2.277   0.338   5.350  0.00  0.00    +0.126 A 
ATOM     14  C   UNL     1       1.269   1.268   5.521  0.00  0.00    +0.034 A 
ATOM     15  C   UNL     1       0.216   1.317   4.626  0.00  0.00    +0.031 A 
BRANCH  13  16
ATOM     16  N   UNL     1       3.404   0.284   6.309  0.00  0.00    +0.056 N 
ATOM     17  O   UNL     1       3.443   1.060   7.247  0.00  0.00    -0.126 OA
ATOM     18  O   UNL     1       4.293  -0.535   6.159  0.00  0.00    -0.126 OA
ENDBRANCH  13  16
ENDBRANCH   7  10
ENDBRANCH   4   7
BRANCH   1  19
ATOM     19  C   UNL     1      -1.480   3.604  -2.374  0.00  0.00    +0.103 C 
BRANCH  19  20
ATOM     20  C   UNL     1      -1.859   5.071  -2.157  0.00  0.00    +0.120 C 
BRANCH  20  23
ATOM     21  C   UNL     1      -2.813   6.907  -3.443  0.00  0.00    +0.299 C 
ATOM     22  O   UNL     1      -2.721   7.607  -2.456  0.00  0.00    -0.265 OA
ATOM     23  N   UNL     1      -2.408   5.622  -3.398  0.00  0.00    -0.306 N 
ATOM     24  H   UNL     1      -2.491   4.987  -4.293  0.00  0.00    +0.149 HD
BRANCH  21  26
ATOM     25  N   UNL     1      -3.777   8.754  -4.754  0.00  0.00    -0.278 N 
ATOM     26  C   UNL     1      -3.373   7.469  -4.708  0.00  0.00    +0.303 C 
ATOM     27  O   UNL     1      -3.464   6.769  -5.696  0.00  0.00    -0.265 OA
ATOM     28  H   UNL     1      -3.766   9.366  -3.841  0.00  0.00    +0.155 HD
BRANCH  25  34
ATOM     29  C   UNL     1      -3.950  10.641  -6.250  0.00  0.00    +0.025 A 
ATOM     30  C   UNL     1      -4.375  11.184  -7.446  0.00  0.00    +0.022 A 
ATOM     31  C   UNL     1      -5.071  10.404  -8.353  0.00  0.00    +0.041 A 
ATOM     32  C   UNL     1      -5.338   9.076  -8.066  0.00  0.00    +0.022 A 
ATOM     33  C   UNL     1      -4.910   8.526  -6.874  0.00  0.00    +0.025 A 
ATOM     34  C   UNL     1      -4.211   9.307  -5.962  0.00  0.00    +0.034 A 
ATOM     35 CL   UNL     1      -5.611  11.092  -9.853  0.00  0.00    -0.084 Cl
ENDBRANCH  25  34
ENDBRANCH  21  26
ENDBRANCH  20  23
ENDBRANCH  19  20
ENDBRANCH   1  19
TORSDOF 8
