REMARK  Name = ZINC36047023
REMARK  14 active torsions:
REMARK  status: ('A' for Active; 'I' for Inactive)
REMARK    1  A    between atoms: C_1  and  C_2
REMARK    2  A    between atoms: C_2  and  C_39
REMARK    3  A    between atoms: C_9  and  C_21
REMARK    4  A    between atoms: C_17  and  C_19
REMARK    5  A    between atoms: C_17  and  C_20
REMARK    6  A    between atoms: N_23  and  C_24
REMARK    7  A    between atoms: C_24  and  C_25
REMARK    8  A    between atoms: C_25  and  C_26
REMARK    9  A    between atoms: C_26  and  C_27
REMARK   10  A    between atoms: C_27  and  C_28
REMARK   11  A    between atoms: C_28  and  C_29
REMARK   12  A    between atoms: C_29  and  O_31
REMARK   13  A    between atoms: O_31  and  C_32
REMARK   14  A    between atoms: C_32  and  C_33
REMARK                            x       y       z     vdW  Elec       q    Type
REMARK                         _______ _______ _______ _____ _____    ______ ____
ROOT
ATOM      1  C   UNL     1       3.640  -0.072   1.604  0.00  0.00    +0.245 C 
ATOM      2  O   UNL     1       4.693   0.225   1.080  0.00  0.00    -0.273 OA
ATOM      3  N   UNL     1       2.997   0.825   2.378  0.00  0.00    -0.313 N 
ATOM      4  H   UNL     1       2.155   0.587   2.798  0.00  0.00    +0.149 HD
ENDROOT
BRANCH   1  11
ATOM      5  C   UNL     1      -0.019   1.526   0.010  0.00  0.00    +0.074 C 
ATOM      6  C   UNL     1       0.002  -0.004   0.002  0.00  0.00    +0.166 C 
ATOM      7  O   UNL     1       0.670  -0.477  -1.196  0.00  0.00    -0.341 OA
ATOM      8  C   UNL     1       2.016  -0.678  -0.763  0.00  0.00    +0.187 C 
ATOM      9  C   UNL     1       1.751  -1.322   0.634  0.00  0.00    +0.191 C 
ATOM     10  O   UNL     1       0.731  -0.488   1.155  0.00  0.00    -0.340 OA
ATOM     11  C   UNL     1       3.051  -1.442   1.389  0.00  0.00    +0.238 C 
ATOM     12  O   UNL     1       3.965  -2.252   0.607  0.00  0.00    -0.333 OA
ATOM     13  C   UNL     1       4.199  -1.734  -0.678  0.00  0.00    +0.286 C 
ATOM     14  C   UNL     1       2.858  -1.681  -1.501  0.00  0.00    +0.209 C 
ATOM     15  O   UNL     1       3.327  -1.338  -2.800  0.00  0.00    -0.338 OA
ATOM     16  C   UNL     1       4.662  -1.885  -2.897  0.00  0.00    +0.168 C 
ATOM     17  O   UNL     1       5.010  -2.467  -1.591  0.00  0.00    -0.318 OA
ATOM     18  C   UNL     1       5.649  -0.774  -3.259  0.00  0.00    +0.074 C 
ATOM     19  C   UNL     1       4.695  -2.973  -3.973  0.00  0.00    +0.074 C 
ATOM     20  C   UNL     1      -1.431  -0.539   0.036  0.00  0.00    +0.074 C 
ENDBRANCH   1  11
BRANCH   3  21
ATOM     21  C   UNL     1       3.570   2.157   2.587  0.00  0.00    +0.104 C 
BRANCH  21  22
ATOM     22  C   UNL     1       2.649   2.970   3.499  0.00  0.00    +0.019 C 
BRANCH  22  23
ATOM     23  C   UNL     1       3.247   4.362   3.717  0.00  0.00    +0.002 C 
BRANCH  23  24
ATOM     24  C   UNL     1       2.326   5.176   4.628  0.00  0.00    +0.011 C 
BRANCH  24  25
ATOM     25  C   UNL     1       2.924   6.567   4.846  0.00  0.00    +0.120 C 
BRANCH  25  26
ATOM     26  C   UNL     1       2.017   7.369   5.744  0.00  0.00    +0.307 C 
ATOM     27  O   UNL     1       0.997   6.878   6.166  0.00  0.00    -0.251 OA
BRANCH  26  28
ATOM     28  O   UNL     1       2.343   8.628   6.074  0.00  0.00    -0.460 OA
BRANCH  28  29
ATOM     29  C   UNL     1       1.437   9.329   6.929  0.00  0.00    +0.267 C 
BRANCH  29  30
ATOM     30  C   UNL     1       1.964  10.717   7.189  0.00  0.00    -0.010 A 
ATOM     31  C   UNL     1       2.802  10.947   8.265  0.00  0.00    +0.007 A 
ATOM     32  C   UNL     1       3.285  12.220   8.504  0.00  0.00    +0.000 A 
ATOM     33  C   UNL     1       2.931  13.262   7.667  0.00  0.00    +0.000 A 
ATOM     34  C   UNL     1       2.095  13.031   6.591  0.00  0.00    +0.000 A 
ATOM     35  C   UNL     1       1.614  11.758   6.350  0.00  0.00    +0.007 A 
ENDBRANCH  29  30
ENDBRANCH  28  29
ENDBRANCH  26  28
ENDBRANCH  25  26
ENDBRANCH  24  25
ENDBRANCH  23  24
ENDBRANCH  22  23
ENDBRANCH  21  22
ENDBRANCH   3  21
TORSDOF 10
