REMARK  Name = ZINC30859798
REMARK  11 active torsions:
REMARK  status: ('A' for Active; 'I' for Inactive)
REMARK    1  A    between atoms: C_1  and  C_2
REMARK    2  A    between atoms: C_5  and  S_7
REMARK    3  A    between atoms: S_7  and  N_10
REMARK    4  A    between atoms: C_14  and  C_17
REMARK    5  A    between atoms: N_19  and  C_20
REMARK    6  A    between atoms: C_24  and  S_26
REMARK    7  A    between atoms: S_26  and  N_29
REMARK    8  A    between atoms: N_29  and  C_30
REMARK    9  A    between atoms: C_30  and  C_31
REMARK   10  A    between atoms: C_30  and  C_32
REMARK   11  A    between atoms: C_30  and  C_33
REMARK                            x       y       z     vdW  Elec       q    Type
REMARK                         _______ _______ _______ _____ _____    ______ ____
ROOT
ATOM      1  C   UNL     1      -0.521   2.619   5.716  0.00  0.00    +0.222 C 
ATOM      2  O   UNL     1       0.247   2.770   6.643  0.00  0.00    -0.275 OA
ATOM      3  N   UNL     1      -0.599   1.427   5.093  0.00  0.00    -0.285 N 
ATOM      4  H   UNL     1      -1.358   1.262   4.314  0.00  0.00    +0.155 HD
ENDROOT
BRANCH   1   9
ATOM      5  N   UNL     1      -1.859   6.136   5.591  0.00  0.00    -0.175 NA
ATOM      6  C   UNL     1      -1.704   6.481   4.172  0.00  0.00    +0.109 C 
ATOM      7  C   UNL     1      -1.982   5.234   3.328  0.00  0.00    +0.018 C 
ATOM      8  C   UNL     1      -1.078   4.092   3.800  0.00  0.00    +0.015 C 
ATOM      9  C   UNL     1      -1.388   3.765   5.262  0.00  0.00    +0.091 C 
ATOM     10  C   UNL     1      -1.103   4.996   6.128  0.00  0.00    +0.122 C 
BRANCH   5  11
ATOM     11  S   UNL     1      -2.865   7.016   6.569  0.00  0.00    +0.067 S 
ATOM     12  O   UNL     1      -2.399   6.837   7.899  0.00  0.00    -0.152 OA
ATOM     13  O   UNL     1      -2.990   8.300   5.972  0.00  0.00    -0.152 OA
BRANCH  11  18
ATOM     14  C   UNL     1      -8.370   5.111   5.536  0.00  0.00    +0.051 C 
ATOM     15  C   UNL     1      -6.968   5.410   6.001  0.00  0.00    -0.011 A 
ATOM     16  C   UNL     1      -6.266   4.845   7.013  0.00  0.00    +0.013 A 
ATOM     17  C   UNL     1      -4.977   5.280   7.259  0.00  0.00    +0.036 A 
ATOM     18  C   UNL     1      -4.457   6.266   6.487  0.00  0.00    +0.143 A 
ATOM     19  S   UNL     1      -5.802   6.602   5.362  0.00  0.00    -0.074 S 
ENDBRANCH  11  18
ENDBRANCH   5  11
ENDBRANCH   1   9
BRANCH   3  20
ATOM     20  C   UNL     1       0.286   0.399   5.436  0.00  0.00    +0.035 A 
ATOM     21  C   UNL     1       1.605   0.694   5.756  0.00  0.00    +0.023 A 
ATOM     22  C   UNL     1       2.476  -0.324   6.095  0.00  0.00    +0.004 A 
ATOM     23  C   UNL     1       2.035  -1.634   6.116  0.00  0.00    +0.028 A 
ATOM     24  C   UNL     1       0.723  -1.931   5.797  0.00  0.00    +0.107 A 
ATOM     25  C   UNL     1      -0.154  -0.918   5.464  0.00  0.00    +0.051 A 
BRANCH  24  26
ATOM     26  S   UNL     1       0.167  -3.603   5.825  0.00  0.00    +0.059 S 
ATOM     27  O   UNL     1      -0.785  -3.732   4.778  0.00  0.00    -0.153 OA
ATOM     28  O   UNL     1       1.330  -4.416   5.901  0.00  0.00    -0.153 OA
BRANCH  26  29
ATOM     29  N   UNL     1      -0.657  -3.822   7.244  0.00  0.00    -0.185 NA
ATOM     30  H   UNL     1      -1.697  -4.179   7.213  0.00  0.00    +0.149 HD
BRANCH  29  31
ATOM     31  C   UNL     1       0.055  -3.752   8.523  0.00  0.00    +0.032 C 
ATOM     32  C   UNL     1       0.847  -2.445   8.595  0.00  0.00    +0.029 C 
ATOM     33  C   UNL     1      -0.954  -3.802   9.672  0.00  0.00    +0.029 C 
ATOM     34  C   UNL     1       1.016  -4.938   8.637  0.00  0.00    +0.029 C 
ENDBRANCH  29  31
ENDBRANCH  26  29
ENDBRANCH  24  26
ENDBRANCH   3  20
TORSDOF 7
