REMARK  Name = ZINC13266663
REMARK  11 active torsions:
REMARK  status: ('A' for Active; 'I' for Inactive)
REMARK    1  A    between atoms: C_1  and  C_2
REMARK    2  A    between atoms: C_2  and  C_3
REMARK    3  A    between atoms: C_2  and  C_4
REMARK    4  A    between atoms: C_4  and  C_5
REMARK    5  A    between atoms: C_4  and  C_6
REMARK    6  A    between atoms: C_4  and  N_8
REMARK    7  A    between atoms: C_9  and  C_11
REMARK    8  A    between atoms: C_11  and  S_12
REMARK    9  A    between atoms: S_12  and  C_13
REMARK   10  A    between atoms: C_17  and  C_31
REMARK   11  A    between atoms: N_23  and  C_24
REMARK                            x       y       z     vdW  Elec       q    Type
REMARK                         _______ _______ _______ _____ _____    ______ ____
ROOT
ATOM      1  C   UNL     1      -0.059  -0.095  -0.497  0.00  0.00    +0.177 A 
ATOM      2  N   UNL     1       1.095  -0.712  -0.548  0.00  0.00    -0.223 NA
ATOM      3  C   UNL     1       1.245  -1.975  -0.085  0.00  0.00    +0.080 A 
ATOM      4  C   UNL     1       2.480  -2.629  -0.135  0.00  0.00    +0.043 A 
ATOM      5  C   UNL     1       2.585  -3.927   0.347  0.00  0.00    +0.065 A 
ATOM      6  C   UNL     1       1.466  -4.580   0.881  0.00  0.00    +0.016 A 
ATOM      7  C   UNL     1       0.255  -3.952   0.935  0.00  0.00    +0.016 A 
ATOM      8  C   UNL     1       0.127  -2.648   0.456  0.00  0.00    +0.065 A 
ATOM      9  C   UNL     1      -1.159  -1.935   0.496  0.00  0.00    +0.267 A 
ATOM     10  O   UNL     1      -2.159  -2.461   0.950  0.00  0.00    -0.267 OA
ATOM     11  N   UNL     1      -1.191  -0.673   0.010  0.00  0.00    -0.255 N 
ENDROOT
BRANCH  11  12
ATOM     12  C   UNL     1      -2.392   0.049   0.026  0.00  0.00    +0.052 A 
ATOM     13  C   UNL     1      -2.718   0.831   1.126  0.00  0.00    +0.029 A 
ATOM     14  C   UNL     1      -3.900   1.546   1.138  0.00  0.00    +0.040 A 
ATOM     15  C   UNL     1      -4.764   1.474   0.058  0.00  0.00    +0.124 A 
ATOM     16  C   UNL     1      -4.444   0.690  -1.037  0.00  0.00    +0.040 A 
ATOM     17  C   UNL     1      -3.260  -0.022  -1.055  0.00  0.00    +0.029 A 
ATOM     18  F   UNL     1      -5.922   2.170   0.074  0.00  0.00    -0.205 F 
ENDBRANCH  11  12
BRANCH   5  19
ATOM     19  C   UNL     1       3.889  -4.625   0.297  0.00  0.00    +0.387 C 
ATOM     20  O   UNL     1       4.861  -4.064  -0.164  0.00  0.00    -0.241 OA
ATOM     21  O   UNL     1       3.996  -5.885   0.764  0.00  0.00    -0.241 OA
ENDBRANCH   5  19
BRANCH   1  22
ATOM     22  S   UNL     1      -0.161   1.551  -1.116  0.00  0.00    -0.078 S 
BRANCH  22  23
ATOM     23  C   UNL     1       1.554   1.797  -1.638  0.00  0.00    +0.173 C 
BRANCH  23  25
ATOM     24  N   UNL     1       2.910   3.587  -2.675  0.00  0.00    -0.297 N 
ATOM     25  C   UNL     1       1.710   3.179  -2.218  0.00  0.00    +0.224 C 
ATOM     26  O   UNL     1       0.755   3.925  -2.273  0.00  0.00    -0.275 OA
ATOM     27  H   UNL     1       3.674   2.991  -2.631  0.00  0.00    +0.150 HD
BRANCH  24  28
ATOM     28  C   UNL     1       3.061   4.931  -3.239  0.00  0.00    +0.121 C 
ATOM     29  C   UNL     1       2.134   5.085  -4.446  0.00  0.00    +0.048 C 
BRANCH  28  31
ATOM     30  C   UNL     1       4.838   4.180  -4.827  0.00  0.00    +0.010 C 
ATOM     31  C   UNL     1       4.511   5.139  -3.680  0.00  0.00    +0.020 C 
ATOM     32  C   UNL     1       4.699   6.582  -4.153  0.00  0.00    +0.010 C 
ENDBRANCH  28  31
BRANCH  28  33
ATOM     33  C   UNL     1       2.710   5.933  -2.220  0.00  0.00    +0.088 C 
ATOM     34  N   UNL     1       2.438   6.707  -1.433  0.00  0.00    -0.194 NA
ENDBRANCH  28  33
ENDBRANCH  24  28
ENDBRANCH  23  25
ENDBRANCH  22  23
ENDBRANCH   1  22
TORSDOF 8
