REMARK  Name = ZINC01132423
REMARK  8 active torsions:
REMARK  status: ('A' for Active; 'I' for Inactive)
REMARK    1  A    between atoms: C_1  and  C_2
REMARK    2  A    between atoms: C_2  and  O_3
REMARK    3  A    between atoms: O_3  and  C_4
REMARK    4  A    between atoms: C_6  and  C_12
REMARK    5  A    between atoms: C_9  and  O_10
REMARK    6  A    between atoms: C_15  and  C_26
REMARK    7  A    between atoms: C_21  and  N_25
REMARK    8  A    between atoms: C_22  and  C_23
REMARK                            x       y       z     vdW  Elec       q    Type
REMARK                         _______ _______ _______ _____ _____    ______ ____
ROOT
ATOM      1  C   UNL     1      -0.130  -4.894   0.143  0.00  0.00    +0.102 C 
ATOM      2  C   UNL     1      -1.300  -5.743  -0.280  0.00  0.00    +0.054 A 
ATOM      3  C   UNL     1      -2.629  -5.370  -0.504  0.00  0.00    +0.102 A 
ATOM      4  N   UNL     1      -3.299  -6.449  -0.861  0.00  0.00    -0.171 NA
ATOM      5  N   UNL     1      -2.412  -7.537  -0.873  0.00  0.00    -0.246 N 
ATOM      6  H   UNL     1      -2.635  -8.453  -1.100  0.00  0.00    +0.192 HD
ATOM      7  C   UNL     1      -1.193  -7.083  -0.513  0.00  0.00    +0.223 A 
ATOM      8  O   UNL     1      -0.024  -7.758  -0.381  0.00  0.00    -0.423 OA
ATOM      9  C   UNL     1       0.989  -7.135   0.255  0.00  0.00    +0.200 C 
ATOM     10  C   UNL     1       1.003  -5.811   0.532  0.00  0.00    +0.098 C 
ENDROOT
BRANCH   1  13
ATOM     11  C   UNL     1       0.743  -1.829  -1.887  0.00  0.00    +0.163 A 
ATOM     12  C   UNL     1       0.348  -2.641  -0.836  0.00  0.00    +0.054 A 
ATOM     13  C   UNL     1       0.299  -4.013  -1.002  0.00  0.00    -0.030 A 
ATOM     14  C   UNL     1       0.644  -4.578  -2.215  0.00  0.00    +0.023 A 
ATOM     15  C   UNL     1       1.039  -3.774  -3.269  0.00  0.00    +0.063 A 
ATOM     16  C   UNL     1       1.084  -2.397  -3.111  0.00  0.00    +0.173 A 
ATOM     17 BR   UNL     1       1.511  -4.551  -4.927  0.00  0.00    -0.046 Br
BRANCH  16  18
ATOM     18  O   UNL     1       1.467  -1.604  -4.147  0.00  0.00    -0.503 OA
ATOM     19  H   UNL     1       2.419  -1.437  -4.184  0.00  0.00    +0.292 HD
ENDBRANCH  16  18
BRANCH  11  20
ATOM     20  O   UNL     1       0.792  -0.480  -1.725  0.00  0.00    -0.489 OA
BRANCH  20  22
ATOM     21  C   UNL     1       0.543   1.558  -0.451  0.00  0.00    +0.048 C 
ATOM     22  C   UNL     1       0.428   0.033  -0.442  0.00  0.00    +0.226 C 
ENDBRANCH  20  22
ENDBRANCH  11  20
ENDBRANCH   1  13
BRANCH   3  23
ATOM     23  C   UNL     1      -3.187  -4.002  -0.364  0.00  0.00    +0.021 A 
ATOM     24  C   UNL     1      -2.908  -3.246   0.773  0.00  0.00    +0.011 A 
ATOM     25  C   UNL     1      -3.430  -1.974   0.897  0.00  0.00    +0.001 A 
ATOM     26  C   UNL     1      -4.228  -1.449  -0.103  0.00  0.00    +0.001 A 
ATOM     27  C   UNL     1      -4.509  -2.195  -1.234  0.00  0.00    +0.020 A 
ATOM     28  C   UNL     1      -3.988  -3.467  -1.372  0.00  0.00    +0.050 A 
ATOM     29 CL   UNL     1      -4.335  -4.399  -2.794  0.00  0.00    -0.083 Cl
ENDBRANCH   3  23
BRANCH   9  30
ATOM     30  N   UNL     1       2.069  -7.887   0.645  0.00  0.00    -0.328 N 
ATOM     31  H   UNL     1       2.088  -8.840   0.461  0.00  0.00    +0.145 HD
ATOM     32  H   UNL     1       2.813  -7.467   1.104  0.00  0.00    +0.145 HD
ENDBRANCH   9  30
BRANCH  10  33
ATOM     33  C   UNL     1       2.133  -5.260   1.218  0.00  0.00    +0.101 C 
ATOM     34  N   UNL     1       3.029  -4.822   1.761  0.00  0.00    -0.191 NA
ENDBRANCH  10  33
TORSDOF 7
