REMARK  Name = ZINC02633564
REMARK  11 active torsions:
REMARK  status: ('A' for Active; 'I' for Inactive)
REMARK    1  A    between atoms: C_1  and  C_2
REMARK    2  A    between atoms: C_4  and  C_14
REMARK    3  A    between atoms: C_5  and  C_13
REMARK    4  A    between atoms: N_6  and  C_7
REMARK    5  A    between atoms: N_16  and  N_17
REMARK    6  A    between atoms: C_18  and  C_20
REMARK    7  A    between atoms: C_21  and  C_22
REMARK    8  A    between atoms: C_25  and  S_28
REMARK    9  A    between atoms: S_28  and  N_31
REMARK   10  A    between atoms: N_31  and  C_32
REMARK   11  A    between atoms: C_32  and  C_33
REMARK                            x       y       z     vdW  Elec       q    Type
REMARK                         _______ _______ _______ _____ _____    ______ ____
ROOT
ATOM      1  N   UNL     1      -3.571   2.612   0.035  0.00  0.00    -0.231 N 
ATOM      2  C   UNL     1      -4.803   2.067   0.038  0.00  0.00    +0.253 C 
ATOM      3  O   UNL     1      -4.934   0.857   0.033  0.00  0.00    -0.269 OA
ATOM      4  H   UNL     1      -3.467   3.577   0.039  0.00  0.00    +0.173 HD
ENDROOT
BRANCH   1   7
ATOM      5  C   UNL     1      -1.207   2.331   0.021  0.00  0.00    +0.262 C 
ATOM      6  O   UNL     1      -1.077   3.541   0.026  0.00  0.00    -0.269 OA
ATOM      7  N   UNL     1      -2.439   1.786   0.024  0.00  0.00    -0.230 N 
ATOM      8  H   UNL     1      -2.543   0.822   0.020  0.00  0.00    +0.173 HD
BRANCH   5  12
ATOM      9  C   UNL     1       1.812  -1.782  -0.024  0.00  0.00    +0.064 C 
ATOM     10  C   UNL     1       1.297  -0.366  -0.012  0.00  0.00    +0.022 A 
ATOM     11  C   UNL     1       0.002  -0.004   0.002  0.00  0.00    +0.036 A 
ATOM     12  C   UNL     1      -0.018   1.463   0.010  0.00  0.00    +0.059 A 
ATOM     13  C   UNL     1       1.291   1.862  -0.000  0.00  0.00    +0.033 A 
ATOM     14  N   UNL     1       2.070   0.761  -0.014  0.00  0.00    -0.317 N 
ATOM     15  C   UNL     1       1.778   3.288   0.002  0.00  0.00    +0.064 C 
BRANCH  14  16
ATOM     16  C   UNL     1       3.472   0.772  -0.027  0.00  0.00    +0.047 A 
ATOM     17  C   UNL     1       4.174   1.285   1.055  0.00  0.00    +0.026 A 
ATOM     18  C   UNL     1       5.555   1.289   1.041  0.00  0.00    +0.002 A 
ATOM     19  C   UNL     1       6.239   0.793  -0.054  0.00  0.00    +0.000 A 
ATOM     20  C   UNL     1       5.542   0.287  -1.135  0.00  0.00    +0.002 A 
ATOM     21  C   UNL     1       4.161   0.275  -1.125  0.00  0.00    +0.026 A 
ENDBRANCH  14  16
ENDBRANCH   5  12
ENDBRANCH   1   7
BRANCH   2  22
ATOM     22  C   UNL     1      -5.986   2.931   0.049  0.00  0.00    +0.069 C 
ATOM     23  C   UNL     1      -7.219   2.385   0.052  0.00  0.00    +0.013 C 
BRANCH  23  24
ATOM     24  C   UNL     1      -8.408   3.253   0.063  0.00  0.00    -0.025 A 
ATOM     25  C   UNL     1      -8.262   4.644   0.075  0.00  0.00    +0.010 A 
ATOM     26  C   UNL     1      -9.381   5.451   0.079  0.00  0.00    +0.029 A 
ATOM     27  C   UNL     1     -10.645   4.887   0.082  0.00  0.00    +0.105 A 
ATOM     28  C   UNL     1     -10.797   3.511   0.077  0.00  0.00    +0.029 A 
ATOM     29  C   UNL     1      -9.688   2.692   0.067  0.00  0.00    +0.010 A 
BRANCH  27  30
ATOM     30  S   UNL     1     -12.068   5.926   0.095  0.00  0.00    +0.059 S 
ATOM     31  O   UNL     1     -11.664   7.174  -0.452  0.00  0.00    -0.153 OA
ATOM     32  O   UNL     1     -13.133   5.163  -0.454  0.00  0.00    -0.153 OA
BRANCH  30  33
ATOM     33  N   UNL     1     -12.454   6.207   1.681  0.00  0.00    -0.183 NA
ATOM     34  H   UNL     1     -13.291   5.875   2.042  0.00  0.00    +0.148 HD
BRANCH  33  35
ATOM     35  C   UNL     1     -11.533   6.958   2.537  0.00  0.00    +0.180 C 
BRANCH  35  36
ATOM     36  C   UNL     1     -12.251   7.392   3.789  0.00  0.00    +0.120 A 
ATOM     37  C   UNL     1     -12.329   6.691   4.934  0.00  0.00    +0.046 A 
ATOM     38  C   UNL     1     -13.092   7.467   5.838  0.00  0.00    +0.041 A 
ATOM     39  C   UNL     1     -13.434   8.595   5.190  0.00  0.00    +0.195 A 
ATOM     40  O   UNL     1     -12.918   8.547   3.951  0.00  0.00    -0.466 OA
ENDBRANCH  35  36
ENDBRANCH  33  35
ENDBRANCH  30  33
ENDBRANCH  27  30
ENDBRANCH  23  24
ENDBRANCH   2  22
TORSDOF 9
