REMARK  Name = ZINC06270374
REMARK  5 active torsions:
REMARK  status: ('A' for Active; 'I' for Inactive)
REMARK    1  A    between atoms: C_3  and  N_24
REMARK    2  A    between atoms: C_5  and  S_7
REMARK    3  A    between atoms: S_7  and  N_10
REMARK    4  A    between atoms: N_14  and  C_16
REMARK    5  A    between atoms: C_16  and  C_17
REMARK                            x       y       z     vdW  Elec       q    Type
REMARK                         _______ _______ _______ _____ _____    ______ ____
ROOT
ATOM      1  N   UNL     1      -0.018   5.965  -1.601  0.00  0.00    -0.198 N 
ATOM      2  C   UNL     1      -1.147   5.661  -2.371  0.00  0.00    +0.160 A 
ATOM      3  C   UNL     1      -1.318   5.952  -3.734  0.00  0.00    +0.066 A 
ATOM      4  C   UNL     1      -2.537   5.498  -4.104  0.00  0.00    +0.110 A 
ATOM      5  N   UNL     1      -3.119   4.941  -3.022  0.00  0.00    -0.265 N 
ATOM      6  N   UNL     1      -2.227   5.049  -1.946  0.00  0.00    -0.155 NA
ATOM      7  H   UNL     1       0.081   5.584  -0.714  0.00  0.00    +0.175 HD
ENDROOT
BRANCH   1   8
ATOM      8  S   UNL     1       1.148   6.974  -2.204  0.00  0.00    +0.074 S 
ATOM      9  O   UNL     1       1.510   6.462  -3.479  0.00  0.00    -0.150 OA
ATOM     10  O   UNL     1       2.097   7.167  -1.163  0.00  0.00    -0.150 OA
BRANCH   8  15
ATOM     11  C   UNL     1      -0.343  10.667  -1.670  0.00  0.00    +0.004 A 
ATOM     12  C   UNL     1      -0.806  10.992  -2.931  0.00  0.00    +0.033 A 
ATOM     13  C   UNL     1      -0.677  10.088  -3.969  0.00  0.00    +0.128 A 
ATOM     14  C   UNL     1      -0.075   8.863  -3.748  0.00  0.00    +0.061 A 
ATOM     15  C   UNL     1       0.388   8.538  -2.487  0.00  0.00    +0.111 A 
ATOM     16  C   UNL     1       0.254   9.440  -1.448  0.00  0.00    +0.029 A 
BRANCH  13  17
ATOM     17  N   UNL     1      -1.178  10.434  -5.318  0.00  0.00    +0.056 N 
ATOM     18  O   UNL     1      -1.618  11.548  -5.537  0.00  0.00    -0.126 OA
ATOM     19  O   UNL     1      -1.151   9.604  -6.209  0.00  0.00    -0.126 OA
ENDBRANCH  13  17
ENDBRANCH   8  15
ENDBRANCH   1   8
BRANCH   5  20
ATOM     20  C   UNL     1      -4.447   4.325  -2.979  0.00  0.00    +0.178 C 
BRANCH  20  21
ATOM     21  C   UNL     1      -4.331   2.915  -2.461  0.00  0.00    -0.026 A 
ATOM     22  C   UNL     1      -4.029   1.882  -3.329  0.00  0.00    +0.007 A 
ATOM     23  C   UNL     1      -3.916   0.589  -2.853  0.00  0.00    +0.020 A 
ATOM     24  C   UNL     1      -4.117   0.327  -1.509  0.00  0.00    +0.041 A 
ATOM     25  C   UNL     1      -4.425   1.360  -0.642  0.00  0.00    +0.020 A 
ATOM     26  C   UNL     1      -4.531   2.654  -1.118  0.00  0.00    +0.007 A 
ATOM     27 CL   UNL     1      -3.982  -1.297  -0.912  0.00  0.00    -0.084 Cl
ENDBRANCH  20  21
ENDBRANCH   5  20
TORSDOF 5
