REMARK  Name = ZINC05063119
REMARK  9 active torsions:
REMARK  status: ('A' for Active; 'I' for Inactive)
REMARK    1  A    between atoms: C_1  and  C_2
REMARK    2  A    between atoms: C_2  and  C_34
REMARK    3  A    between atoms: C_6  and  O_24
REMARK    4  A    between atoms: C_8  and  C_14
REMARK    5  A    between atoms: C_14  and  O_15
REMARK    6  A    between atoms: O_15  and  C_16
REMARK    7  A    between atoms: C_16  and  C_18
REMARK    8  A    between atoms: O_24  and  C_25
REMARK    9  A    between atoms: N_27  and  C_28
REMARK                            x       y       z     vdW  Elec       q    Type
REMARK                         _______ _______ _______ _____ _____    ______ ____
ROOT
ATOM      1  C   UNL     1       3.999   4.797  -1.884  0.00  0.00    +0.074 C 
ATOM      2  C   UNL     1       2.518   4.864  -1.504  0.00  0.00    +0.168 C 
ATOM      3  O   UNL     1       1.924   3.541  -1.608  0.00  0.00    -0.337 OA
ATOM      4  C   UNL     1       1.293   3.331  -0.367  0.00  0.00    +0.221 C 
ATOM      5  C   UNL     1       1.277   1.991   0.344  0.00  0.00    +0.244 C 
ATOM      6  C   UNL     1       1.491   2.397   1.832  0.00  0.00    +0.202 C 
ATOM      7  O   UNL     1       1.718   3.839   1.841  0.00  0.00    -0.338 OA
ATOM      8  C   UNL     1       2.279   4.105   0.589  0.00  0.00    +0.286 C 
ATOM      9  O   UNL     1       2.382   5.311  -0.121  0.00  0.00    -0.318 OA
ATOM     10  C   UNL     1       1.788   5.833  -2.436  0.00  0.00    +0.074 C 
ENDROOT
BRANCH   6  11
ATOM     11  C   UNL     1       0.245   2.057   2.653  0.00  0.00    +0.268 C 
BRANCH  11  12
ATOM     12  O   UNL     1       0.500   2.331   4.056  0.00  0.00    -0.458 OA
BRANCH  12  13
ATOM     13  C   UNL     1      -0.504   2.084   4.920  0.00  0.00    +0.339 C 
ATOM     14  O   UNL     1      -1.563   1.651   4.512  0.00  0.00    -0.245 OA
BRANCH  13  15
ATOM     15  C   UNL     1      -0.317   2.338   6.362  0.00  0.00    +0.059 A 
ATOM     16  C   UNL     1       0.902   2.830   6.835  0.00  0.00    +0.015 A 
ATOM     17  C   UNL     1       1.068   3.070   8.183  0.00  0.00    +0.001 A 
ATOM     18  C   UNL     1       0.035   2.815   9.068  0.00  0.00    +0.000 A 
ATOM     19  C   UNL     1      -1.173   2.323   8.607  0.00  0.00    +0.001 A 
ATOM     20  C   UNL     1      -1.355   2.083   7.260  0.00  0.00    +0.015 A 
ENDBRANCH  13  15
ENDBRANCH  12  13
ENDBRANCH  11  12
ENDBRANCH   6  11
BRANCH   5  21
ATOM     21  O   UNL     1      -0.004   1.329   0.169  0.00  0.00    -0.441 OA
BRANCH  21  22
ATOM     22  C   UNL     1      -0.001  -0.018   0.167  0.00  0.00    +0.405 C 
ATOM     23  O   UNL     1       1.043  -0.623   0.308  0.00  0.00    -0.226 OA
ATOM     24  N   UNL     1      -1.156  -0.694   0.009  0.00  0.00    -0.251 N 
ATOM     25  H   UNL     1      -1.998  -0.214  -0.026  0.00  0.00    +0.158 HD
BRANCH  24  26
ATOM     26  C   UNL     1      -1.140  -2.089  -0.104  0.00  0.00    +0.036 A 
ATOM     27  C   UNL     1      -0.075  -2.724  -0.729  0.00  0.00    +0.023 A 
ATOM     28  C   UNL     1      -0.060  -4.101  -0.833  0.00  0.00    +0.002 A 
ATOM     29  C   UNL     1      -1.109  -4.846  -0.328  0.00  0.00    +0.000 A 
ATOM     30  C   UNL     1      -2.174  -4.216   0.290  0.00  0.00    +0.002 A 
ATOM     31  C   UNL     1      -2.192  -2.840   0.403  0.00  0.00    +0.023 A 
ENDBRANCH  24  26
ENDBRANCH  21  22
ENDBRANCH   5  21
TORSDOF 7
