REMARK  Name = ZINC28053223
REMARK  2 active torsions:
REMARK  status: ('A' for Active; 'I' for Inactive)
REMARK    1  A    between atoms: C_4  and  C_7
REMARK    2  A    between atoms: C_18  and  C_20
REMARK                            x       y       z     vdW  Elec       q    Type
REMARK                         _______ _______ _______ _____ _____    ______ ____
ROOT
ATOM      1  C   UNL     1       3.112   1.976  -1.801  0.00  0.00    +0.174 C 
ATOM      2  C   UNL     1       2.019   1.257  -1.049  0.00  0.00    +0.025 C 
ATOM      3  C   UNL     1       1.724  -0.025  -1.271  0.00  0.00    +0.050 C 
ATOM      4  C   UNL     1       0.620  -0.640  -0.495  0.00  0.00    +0.039 A 
ATOM      5  C   UNL     1       0.466  -2.018  -0.420  0.00  0.00    +0.033 A 
ATOM      6  C   UNL     1      -0.578  -2.548   0.316  0.00  0.00    +0.042 A 
ATOM      7  C   UNL     1      -1.465  -1.711   0.973  0.00  0.00    +0.023 A 
ATOM      8  C   UNL     1      -1.317  -0.338   0.902  0.00  0.00    +0.048 A 
ATOM      9  C   UNL     1      -0.278   0.205   0.170  0.00  0.00    +0.131 A 
ATOM     10  O   UNL     1      -0.099   1.547   0.077  0.00  0.00    -0.479 OA
ATOM     11  C   UNL     1       1.245   2.021   0.001  0.00  0.00    +0.234 C 
ATOM     12 CL   UNL     1      -0.779  -4.270   0.416  0.00  0.00    -0.084 Cl
ATOM     13  N   UNL     1       2.423  -0.803  -2.201  0.00  0.00    -0.282 N 
ATOM     14  C   UNL     1       3.610  -0.288  -2.696  0.00  0.00    +0.240 A 
ATOM     15  N   UNL     1       3.947   1.015  -2.509  0.00  0.00    -0.201 N 
ATOM     16  N   UNL     1       5.188   1.169  -3.125  0.00  0.00    -0.042 NA
ATOM     17  N   UNL     1       5.500   0.015  -3.620  0.00  0.00    -0.021 NA
ATOM     18  N   UNL     1       4.572  -0.845  -3.372  0.00  0.00    -0.092 NA
ATOM     19  H   UNL     1       2.025  -1.781  -2.510  0.00  0.00    +0.155 HD
ENDROOT
BRANCH  11  20
ATOM     20  C   UNL     1       1.912   1.840   1.340  0.00  0.00    -0.000 A 
ATOM     21  C   UNL     1       1.749   0.658   2.039  0.00  0.00    +0.008 A 
ATOM     22  C   UNL     1       2.364   0.488   3.265  0.00  0.00    +0.003 A 
ATOM     23  C   UNL     1       3.135   1.504   3.799  0.00  0.00    +0.038 A 
ATOM     24  C   UNL     1       3.295   2.690   3.102  0.00  0.00    +0.124 A 
ATOM     25  C   UNL     1       2.682   2.857   1.871  0.00  0.00    +0.046 A 
ATOM     26  F   UNL     1       4.048   3.683   3.623  0.00  0.00    -0.205 F 
ENDBRANCH  11  20
BRANCH   1  30
ATOM     27  C   UNL     1       1.362   4.673  -4.613  0.00  0.00    +0.000 A 
ATOM     28  C   UNL     1       2.182   5.156  -3.610  0.00  0.00    +0.000 A 
ATOM     29  C   UNL     1       2.749   4.283  -2.700  0.00  0.00    +0.006 A 
ATOM     30  C   UNL     1       2.495   2.927  -2.793  0.00  0.00    -0.019 A 
ATOM     31  C   UNL     1       1.679   2.444  -3.799  0.00  0.00    +0.006 A 
ATOM     32  C   UNL     1       1.109   3.318  -4.706  0.00  0.00    +0.000 A 
ENDBRANCH   1  30
TORSDOF 2
