REMARK  Name = ZINC39468618
REMARK  7 active torsions:
REMARK  status: ('A' for Active; 'I' for Inactive)
REMARK    1  A    between atoms: C_1  and  C_2
REMARK    2  A    between atoms: C_2  and  O_3
REMARK    3  A    between atoms: O_3  and  C_4
REMARK    4  A    between atoms: P_13  and  S_29
REMARK    5  A    between atoms: C_21  and  C_22
REMARK    6  A    between atoms: C_27  and  O_28
REMARK    7  A    between atoms: S_29  and  C_30
REMARK                            x       y       z     vdW  Elec       q    Type
REMARK                         _______ _______ _______ _____ _____    ______ ____
ROOT
ATOM      1  C   UNL     1       0.777  -1.810  -1.336  0.00  0.00    +0.124 C 
ATOM      2  C   UNL     1       0.265  -2.638  -0.426  0.00  0.00    +0.023 C 
ATOM      3  C   UNL     1       0.377  -4.127  -0.617  0.00  0.00    +0.019 C 
ATOM      4  C   UNL     1      -0.733  -4.843   0.140  0.00  0.00    -0.002 C 
ATOM      5  C   UNL     1      -1.057  -6.198  -0.501  0.00  0.00    -0.020 C 
ATOM      6  C   UNL     1      -1.570  -7.086   0.642  0.00  0.00    +0.157 C 
ATOM      7  O   UNL     1      -1.935  -8.383   0.144  0.00  0.00    -0.312 OA
ATOM      8  P   UNL     1      -0.839  -9.165  -0.770  0.00  0.00    +0.314 P 
ATOM      9  O   UNL     1      -1.503 -10.194  -1.602  0.00  0.00    -0.262 OA
ATOM     10  N   UNL     1      -0.175  -7.997  -1.725  0.00  0.00    -0.283 NA
ATOM     11  N   UNL     1       0.113  -6.775  -1.151  0.00  0.00    +0.398 N 
ATOM     12  C   UNL     1       0.582  -5.961  -2.283  0.00  0.00    -0.046 C 
ATOM     13  C   UNL     1       0.254  -4.472  -2.099  0.00  0.00    +0.005 C 
ATOM     14  C   UNL     1       1.214  -3.631  -2.899  0.00  0.00    -0.013 C 
ATOM     15  C   UNL     1       1.456  -2.366  -2.529  0.00  0.00    +0.023 C 
ATOM     16  H   UNL     1       0.012  -8.170  -2.661  0.00  0.00    +0.112 HD
ATOM     17  H   UNL     1       0.857  -6.876  -0.477  0.00  0.00    -0.055 HD
ENDROOT
BRANCH  15  18
ATOM     18  C   UNL     1       2.404  -1.531  -3.307  0.00  0.00    +0.027 A 
ATOM     19  C   UNL     1       2.022  -1.002  -4.538  0.00  0.00    +0.012 A 
ATOM     20  C   UNL     1       2.908  -0.225  -5.257  0.00  0.00    +0.001 A 
ATOM     21  C   UNL     1       4.174   0.029  -4.761  0.00  0.00    +0.004 A 
ATOM     22  C   UNL     1       4.563  -0.492  -3.542  0.00  0.00    +0.046 A 
ATOM     23  C   UNL     1       3.682  -1.268  -2.805  0.00  0.00    +0.125 A 
BRANCH  23  24
ATOM     24  O   UNL     1       4.062  -1.776  -1.604  0.00  0.00    -0.506 OA
ATOM     25  H   UNL     1       4.479  -2.647  -1.659  0.00  0.00    +0.292 HD
ENDBRANCH  23  24
ENDBRANCH  15  18
BRANCH   8  26
ATOM     26  S   UNL     1       0.644 -10.054   0.455  0.00  0.00    -0.059 S 
ATOM     27  C   UNL     1      -0.287 -11.197   1.513  0.00  0.00    +0.096 C 
ENDBRANCH   8  26
BRANCH   1  28
ATOM     28  O   UNL     1       0.671  -0.465  -1.174  0.00  0.00    -0.492 OA
BRANCH  28  30
ATOM     29  C   UNL     1      -0.019   1.526   0.010  0.00  0.00    +0.048 C 
ATOM     30  C   UNL     1       0.002  -0.004   0.002  0.00  0.00    +0.225 C 
ENDBRANCH  28  30
ENDBRANCH   1  28
TORSDOF 5
