REMARK  Name = ZINC09119868
REMARK  9 active torsions:
REMARK  status: ('A' for Active; 'I' for Inactive)
REMARK    1  A    between atoms: C_1  and  C_2
REMARK    2  A    between atoms: C_2  and  C_4
REMARK    3  A    between atoms: C_2  and  N_10
REMARK    4  A    between atoms: C_11  and  C_13
REMARK    5  A    between atoms: C_18  and  N_19
REMARK    6  A    between atoms: C_20  and  C_22
REMARK    7  A    between atoms: C_22  and  N_23
REMARK    8  A    between atoms: C_26  and  C_31
REMARK    9  A    between atoms: C_31  and  C_32
REMARK                            x       y       z     vdW  Elec       q    Type
REMARK                         _______ _______ _______ _____ _____    ______ ____
ROOT
ATOM      1  N   UNL     1       3.625   3.035  -0.228  0.00  0.00    -0.284 N 
ATOM      2  C   UNL     1       4.539   3.665  -0.993  0.00  0.00    +0.235 C 
ATOM      3  O   UNL     1       5.314   3.020  -1.667  0.00  0.00    -0.274 OA
ATOM      4  H   UNL     1       2.956   3.549   0.250  0.00  0.00    +0.155 HD
ENDROOT
BRANCH   1  10
ATOM      5  C   UNL     1       2.440   0.933  -0.011  0.00  0.00    +0.058 A 
ATOM      6  C   UNL     1       2.470  -0.459   0.097  0.00  0.00    +0.015 A 
ATOM      7  C   UNL     1       3.678  -1.123   0.080  0.00  0.00    +0.001 A 
ATOM      8  C   UNL     1       4.864  -0.416  -0.033  0.00  0.00    +0.002 A 
ATOM      9  C   UNL     1       4.849   0.960  -0.135  0.00  0.00    +0.024 A 
ATOM     10  C   UNL     1       3.642   1.646  -0.125  0.00  0.00    +0.046 A 
BRANCH   5  12
ATOM     11  N   UNL     1      -0.006   0.957   0.011  0.00  0.00    -0.305 N 
ATOM     12  C   UNL     1       1.150   1.650   0.002  0.00  0.00    +0.246 C 
ATOM     13  O   UNL     1       1.131   2.865   0.003  0.00  0.00    -0.270 OA
ATOM     14  H   UNL     1       0.010  -0.013   0.009  0.00  0.00    +0.150 HD
BRANCH  11  16
ATOM     15  C   UNL     1      -1.665   2.024   1.456  0.00  0.00    +0.033 C 
ATOM     16  C   UNL     1      -1.286   1.669   0.017  0.00  0.00    +0.100 C 
BRANCH  16  17
ATOM     17  C   UNL     1      -2.353   0.788  -0.580  0.00  0.00    -0.027 A 
ATOM     18  C   UNL     1      -2.374  -0.564  -0.294  0.00  0.00    +0.005 A 
ATOM     19  C   UNL     1      -3.356  -1.371  -0.838  0.00  0.00    +0.000 A 
ATOM     20  C   UNL     1      -4.311  -0.828  -1.677  0.00  0.00    +0.000 A 
ATOM     21  C   UNL     1      -4.287   0.524  -1.968  0.00  0.00    +0.000 A 
ATOM     22  C   UNL     1      -3.308   1.331  -1.419  0.00  0.00    +0.005 A 
ENDBRANCH  16  17
ENDBRANCH  11  16
ENDBRANCH   5  12
ENDBRANCH   1  10
BRANCH   2  23
ATOM     23  C   UNL     1       4.596   5.171  -1.012  0.00  0.00    +0.214 C 
BRANCH  23  24
ATOM     24  N   UNL     1       5.665   5.607  -1.914  0.00  0.00    -0.216 N 
ATOM     25  C   UNL     1       6.939   5.821  -1.529  0.00  0.00    +0.244 C 
ATOM     26  O   UNL     1       7.399   5.693  -0.415  0.00  0.00    -0.273 OA
ATOM     27  C   UNL     1       7.678   6.253  -2.781  0.00  0.00    +0.165 C 
ATOM     28  N   UNL     1       6.635   6.238  -3.821  0.00  0.00    -0.287 N 
ATOM     29  C   UNL     1       5.496   5.848  -3.219  0.00  0.00    +0.310 C 
ATOM     30  O   UNL     1       4.433   5.730  -3.796  0.00  0.00    -0.252 OA
ATOM     31  H   UNL     1       6.747   6.464  -4.758  0.00  0.00    +0.151 HD
BRANCH  27  32
ATOM     32  C   UNL     1       8.794   5.264  -3.124  0.00  0.00    +0.067 C 
BRANCH  32  33
ATOM     33  C   UNL     1       9.518   5.734  -4.359  0.00  0.00    -0.045 A 
ATOM     34  C   UNL     1       9.093   5.322  -5.608  0.00  0.00    +0.004 A 
ATOM     35  C   UNL     1       9.754   5.757  -6.742  0.00  0.00    +0.000 A 
ATOM     36  C   UNL     1      10.848   6.595  -6.626  0.00  0.00    +0.000 A 
ATOM     37  C   UNL     1      11.276   7.003  -5.376  0.00  0.00    +0.000 A 
ATOM     38  C   UNL     1      10.612   6.572  -4.243  0.00  0.00    +0.004 A 
ENDBRANCH  32  33
ENDBRANCH  27  32
ENDBRANCH  23  24
ENDBRANCH   2  23
TORSDOF 8
