REMARK  Name = ZINC34108124
REMARK  8 active torsions:
REMARK  status: ('A' for Active; 'I' for Inactive)
REMARK    1  A    between atoms: C_1  and  C_2
REMARK    2  A    between atoms: C_2  and  O_3
REMARK    3  A    between atoms: O_3  and  C_4
REMARK    4  A    between atoms: C_4  and  C_6
REMARK    5  A    between atoms: C_7  and  C_28
REMARK    6  A    between atoms: C_11  and  N_19
REMARK    7  A    between atoms: C_12  and  C_17
REMARK    8  A    between atoms: C_20  and  C_22
REMARK                            x       y       z     vdW  Elec       q    Type
REMARK                         _______ _______ _______ _____ _____    ______ ____
ROOT
ATOM      1  C   UNL     1       1.278  -2.352  -2.564  0.00  0.00    +0.086 C 
ATOM      2  C   UNL     1       1.610  -3.649  -2.582  0.00  0.00    +0.115 C 
ATOM      3  O   UNL     1       2.368  -4.173  -3.556  0.00  0.00    -0.443 OA
ATOM      4  C   UNL     1       3.145  -3.372  -4.317  0.00  0.00    +0.207 A 
ATOM      5  C   UNL     1       2.894  -2.036  -4.401  0.00  0.00    +0.047 A 
ATOM      6  C   UNL     1       3.708  -1.218  -5.196  0.00  0.00    +0.057 A 
ATOM      7  C   UNL     1       4.780  -1.798  -5.901  0.00  0.00    +0.137 A 
ATOM      8  C   UNL     1       4.997  -3.189  -5.779  0.00  0.00    +0.271 A 
ATOM      9  O   UNL     1       5.919  -3.718  -6.378  0.00  0.00    -0.266 OA
ATOM     10  N   UNL     1       4.187  -3.930  -5.003  0.00  0.00    -0.292 N 
ATOM     11  H   UNL     1       4.347  -4.884  -4.927  0.00  0.00    +0.172 HD
ATOM     12  C   UNL     1       1.742  -1.420  -3.649  0.00  0.00    +0.096 C 
ATOM     13  C   UNL     1       1.118  -4.546  -1.476  0.00  0.00    +0.087 C 
ENDROOT
BRANCH  12  14
ATOM     14  C   UNL     1       0.603  -1.154  -4.600  0.00  0.00    -0.035 A 
ATOM     15  C   UNL     1       0.013  -2.202  -5.281  0.00  0.00    +0.004 A 
ATOM     16  C   UNL     1      -1.031  -1.959  -6.154  0.00  0.00    +0.000 A 
ATOM     17  C   UNL     1      -1.486  -0.667  -6.344  0.00  0.00    +0.000 A 
ATOM     18  C   UNL     1      -0.896   0.381  -5.662  0.00  0.00    +0.000 A 
ATOM     19  C   UNL     1       0.146   0.137  -4.787  0.00  0.00    +0.004 A 
ENDBRANCH  12  14
BRANCH   6  20
ATOM     20  N   UNL     1       3.463   0.135  -5.288  0.00  0.00    -0.356 N 
ATOM     21  H   UNL     1       2.722   0.528  -4.800  0.00  0.00    +0.142 HD
ATOM     22  H   UNL     1       4.031   0.695  -5.840  0.00  0.00    +0.142 HD
ENDBRANCH   6  20
BRANCH   1  23
ATOM     23  C   UNL     1       0.474  -1.852  -1.511  0.00  0.00    +0.339 C 
ATOM     24  O   UNL     1       0.972  -1.167  -0.637  0.00  0.00    -0.245 OA
BRANCH  23  25
ATOM     25  O   UNL     1      -0.845  -2.135  -1.477  0.00  0.00    -0.462 OA
BRANCH  25  27
ATOM     26  C   UNL     1      -3.060  -2.021  -0.516  0.00  0.00    +0.048 C 
ATOM     27  C   UNL     1      -1.595  -1.597  -0.386  0.00  0.00    +0.229 C 
ENDBRANCH  25  27
ENDBRANCH  23  25
ENDBRANCH   1  23
BRANCH   7  28
ATOM     28  C   UNL     1       5.633  -0.995  -6.724  0.00  0.00    +0.106 C 
ATOM     29  N   UNL     1       6.310  -0.358  -7.378  0.00  0.00    -0.191 NA
ENDBRANCH   7  28
TORSDOF 6
