REMARK  Name = ZINC10277151
REMARK  10 active torsions:
REMARK  status: ('A' for Active; 'I' for Inactive)
REMARK    1  A    between atoms: C_1  and  C_2
REMARK    2  A    between atoms: C_5  and  S_24
REMARK    3  A    between atoms: C_7  and  C_8
REMARK    4  A    between atoms: N_10  and  C_11
REMARK    5  A    between atoms: C_11  and  C_13
REMARK    6  A    between atoms: C_11  and  C_14
REMARK    7  A    between atoms: C_17  and  S_20
REMARK    8  A    between atoms: S_20  and  N_23
REMARK    9  A    between atoms: S_24  and  N_27
REMARK   10  A    between atoms: N_27  and  C_28
REMARK                            x       y       z     vdW  Elec       q    Type
REMARK                         _______ _______ _______ _____ _____    ______ ____
ROOT
ATOM      1  C   UNL     1      -2.487  -0.275  -0.207  0.00  0.00    +0.044 C 
ATOM      2  C   UNL     1      -2.504   1.226  -0.085  0.00  0.00    -0.038 A 
ATOM      3  C   UNL     1      -3.671   1.926  -0.312  0.00  0.00    +0.006 A 
ATOM      4  C   UNL     1      -3.688   3.305  -0.199  0.00  0.00    +0.029 A 
ATOM      5  C   UNL     1      -2.536   3.991   0.141  0.00  0.00    +0.106 A 
ATOM      6  C   UNL     1      -1.364   3.304   0.376  0.00  0.00    +0.041 A 
ATOM      7  C   UNL     1      -1.339   1.913   0.260  0.00  0.00    +0.041 A 
ENDROOT
BRANCH   7   8
ATOM      8  C   UNL     1      -0.084   1.170   0.505  0.00  0.00    +0.245 C 
ATOM      9  O   UNL     1      -0.090  -0.045   0.515  0.00  0.00    -0.270 OA
ATOM     10  N   UNL     1       1.067   1.841   0.713  0.00  0.00    -0.305 N 
ATOM     11  H   UNL     1       1.071   2.811   0.705  0.00  0.00    +0.150 HD
BRANCH  10  12
ATOM     12  C   UNL     1       2.311   1.104   0.950  0.00  0.00    +0.100 C 
ATOM     13  C   UNL     1       2.944   0.727  -0.390  0.00  0.00    +0.033 C 
BRANCH  12  14
ATOM     14  C   UNL     1       3.266   1.970   1.731  0.00  0.00    -0.027 A 
ATOM     15  C   UNL     1       3.376   3.317   1.437  0.00  0.00    +0.007 A 
ATOM     16  C   UNL     1       4.248   4.112   2.156  0.00  0.00    +0.029 A 
ATOM     17  C   UNL     1       5.018   3.559   3.162  0.00  0.00    +0.105 A 
ATOM     18  C   UNL     1       4.912   2.212   3.452  0.00  0.00    +0.029 A 
ATOM     19  C   UNL     1       4.036   1.417   2.737  0.00  0.00    +0.007 A 
BRANCH  17  20
ATOM     20  S   UNL     1       6.136   4.571   4.074  0.00  0.00    +0.056 S 
ATOM     21  O   UNL     1       5.650   5.903   3.974  0.00  0.00    -0.153 OA
ATOM     22  O   UNL     1       6.341   3.926   5.323  0.00  0.00    -0.153 OA
BRANCH  20  23
ATOM     23  N   UNL     1       7.588   4.536   3.278  0.00  0.00    -0.204 NA
ATOM     24  H   UNL     1       7.684   4.016   2.466  0.00  0.00    +0.144 HD
ATOM     25  H   UNL     1       8.343   5.037   3.625  0.00  0.00    +0.144 HD
ENDBRANCH  20  23
ENDBRANCH  17  20
ENDBRANCH  12  14
ENDBRANCH  10  12
ENDBRANCH   7   8
BRANCH   5  26
ATOM     26  S   UNL     1      -2.569   5.747   0.282  0.00  0.00    +0.059 S 
ATOM     27  O   UNL     1      -1.236   6.196   0.078  0.00  0.00    -0.153 OA
ATOM     28  O   UNL     1      -3.655   6.199  -0.515  0.00  0.00    -0.153 OA
BRANCH  26  29
ATOM     29  N   UNL     1      -2.954   6.106   1.853  0.00  0.00    -0.187 NA
ATOM     30  H   UNL     1      -3.787   6.558   2.057  0.00  0.00    +0.148 HD
BRANCH  29  31
ATOM     31  C   UNL     1      -2.035   5.739   2.934  0.00  0.00    +0.077 C 
ATOM     32  C   UNL     1      -2.453   4.391   3.523  0.00  0.00    +0.020 C 
ATOM     33  C   UNL     1      -1.494   4.008   4.652  0.00  0.00    +0.002 C 
ATOM     34  C   UNL     1      -1.540   5.078   5.744  0.00  0.00    +0.000 C 
ATOM     35  C   UNL     1      -1.122   6.427   5.155  0.00  0.00    +0.002 C 
ATOM     36  C   UNL     1      -2.081   6.809   4.026  0.00  0.00    +0.020 C 
ENDBRANCH  29  31
ENDBRANCH  26  29
ENDBRANCH   5  26
TORSDOF 8
