REMARK  Name = ZINC62189504
REMARK  2 active torsions:
REMARK  status: ('A' for Active; 'I' for Inactive)
REMARK    1  A    between atoms: C_4  and  N_7
REMARK    2  A    between atoms: C_13  and  C_16
REMARK                            x       y       z     vdW  Elec       q    Type
REMARK                         _______ _______ _______ _____ _____    ______ ____
ROOT
ATOM      1  N   UNL     1       3.622  -0.651  -0.036  0.00  0.00    -0.269 N 
ATOM      2  C   UNL     1       3.645  -1.995   0.058  0.00  0.00    +0.306 C 
ATOM      3  O   UNL     1       2.603  -2.622   0.065  0.00  0.00    -0.252 OA
ATOM      4  N   UNL     1       4.823  -2.644   0.144  0.00  0.00    -0.285 N 
ATOM      5  C   UNL     1       6.150  -2.013   0.153  0.00  0.00    +0.110 C 
ATOM      6  C   UNL     1       7.196  -3.145   0.240  0.00  0.00    +0.029 C 
ATOM      7  C   UNL     1       6.418  -4.377  -0.296  0.00  0.00    +0.038 C 
ATOM      8  C   UNL     1       4.993  -4.105   0.252  0.00  0.00    +0.117 C 
ATOM      9  H   UNL     1       4.452  -0.156  -0.120  0.00  0.00    +0.156 HD
ENDROOT
BRANCH   7  10
ATOM     10  C   UNL     1       6.978  -5.657   0.271  0.00  0.00    -0.039 A 
ATOM     11  C   UNL     1       6.978  -5.864   1.638  0.00  0.00    +0.008 A 
ATOM     12  C   UNL     1       7.489  -7.036   2.162  0.00  0.00    +0.050 A 
ATOM     13  C   UNL     1       8.004  -8.007   1.318  0.00  0.00    +0.166 A 
ATOM     14  C   UNL     1       8.004  -7.798  -0.059  0.00  0.00    +0.166 A 
ATOM     15  C   UNL     1       7.484  -6.623  -0.578  0.00  0.00    +0.053 A 
ATOM     16  O   UNL     1       8.558  -8.888  -0.665  0.00  0.00    -0.453 OA
ATOM     17  C   UNL     1       9.268  -9.587   0.374  0.00  0.00    +0.466 C 
ATOM     18  O   UNL     1       8.558  -9.228   1.574  0.00  0.00    -0.453 OA
ENDBRANCH   7  10
BRANCH   1  22
ATOM     19  C   UNL     1      -0.015   1.381   0.031  0.00  0.00    +0.000 A 
ATOM     20  C   UNL     1       0.140   0.219   0.765  0.00  0.00    +0.002 A 
ATOM     21  C   UNL     1       1.344  -0.457   0.744  0.00  0.00    +0.023 A 
ATOM     22  C   UNL     1       2.400   0.031  -0.014  0.00  0.00    +0.035 A 
ATOM     23  C   UNL     1       2.241   1.198  -0.749  0.00  0.00    +0.023 A 
ATOM     24  C   UNL     1       1.034   1.870  -0.725  0.00  0.00    +0.002 A 
ENDBRANCH   1  22
TORSDOF 2
