REMARK  Name = ZINC31153285
REMARK  6 active torsions:
REMARK  status: ('A' for Active; 'I' for Inactive)
REMARK    1  A    between atoms: C_1  and  O_2
REMARK    2  A    between atoms: O_2  and  C_3
REMARK    3  A    between atoms: C_6  and  N_9
REMARK    4  A    between atoms: N_20  and  C_26
REMARK    5  A    between atoms: C_26  and  C_27
REMARK    6  A    between atoms: C_27  and  C_28
REMARK                            x       y       z     vdW  Elec       q    Type
REMARK                         _______ _______ _______ _____ _____    ______ ____
ROOT
ATOM      1  N   UNL     1      -4.892  -2.588   0.100  0.00  0.00    -0.269 N 
ATOM      2  C   UNL     1      -4.946  -3.924  -0.068  0.00  0.00    +0.306 C 
ATOM      3  O   UNL     1      -3.918  -4.570  -0.137  0.00  0.00    -0.252 OA
ATOM      4  N   UNL     1      -6.138  -4.544  -0.161  0.00  0.00    -0.285 N 
ATOM      5  C   UNL     1      -7.377  -3.762  -0.268  0.00  0.00    +0.109 C 
ATOM      6  C   UNL     1      -8.175  -4.249  -1.483  0.00  0.00    +0.023 C 
ATOM      7  C   UNL     1      -8.360  -5.763  -1.376  0.00  0.00    +0.004 C 
ATOM      8  C   UNL     1      -9.242  -6.276  -2.514  0.00  0.00    +0.100 C 
ATOM      9  C   UNL     1      -8.941  -5.467  -3.758  0.00  0.00    +0.216 C 
ATOM     10  O   UNL     1      -9.756  -4.676  -4.182  0.00  0.00    -0.276 OA
ATOM     11  N   UNL     1      -7.776  -5.629  -4.386  0.00  0.00    -0.301 N 
ATOM     12  C   UNL     1      -6.797  -6.611  -3.892  0.00  0.00    +0.108 C 
ATOM     13  C   UNL     1      -6.164  -6.082  -2.608  0.00  0.00    +0.024 C 
ATOM     14  C   UNL     1      -7.002  -6.450  -1.408  0.00  0.00    +0.011 C 
ATOM     15  C   UNL     1      -6.215  -6.013  -0.164  0.00  0.00    +0.113 C 
ATOM     16  H   UNL     1      -5.704  -2.089   0.282  0.00  0.00    +0.156 HD
ENDROOT
BRANCH   1  20
ATOM     17  C   UNL     1      -1.236  -0.598  -0.157  0.00  0.00    +0.120 A 
ATOM     18  C   UNL     1      -2.418   0.088  -0.398  0.00  0.00    +0.047 A 
ATOM     19  C   UNL     1      -3.629  -0.570  -0.313  0.00  0.00    +0.027 A 
ATOM     20  C   UNL     1      -3.663  -1.919   0.013  0.00  0.00    +0.035 A 
ATOM     21  C   UNL     1      -2.481  -2.605   0.254  0.00  0.00    +0.027 A 
ATOM     22  C   UNL     1      -1.270  -1.947   0.164  0.00  0.00    +0.047 A 
BRANCH  17  24
ATOM     23  C   UNL     1      -0.084   1.440  -0.576  0.00  0.00    +0.277 C 
ATOM     24  O   UNL     1      -0.044   0.051  -0.241  0.00  0.00    -0.495 OA
ENDBRANCH  17  24
ENDBRANCH   1  20
BRANCH  11  25
ATOM     25  C   UNL     1      -7.469  -4.826  -5.572  0.00  0.00    +0.114 C 
BRANCH  25  26
ATOM     26  C   UNL     1      -6.769  -3.533  -5.146  0.00  0.00    +0.073 C 
BRANCH  26  27
ATOM     27  C   UNL     1      -6.454  -2.707  -6.366  0.00  0.00    +0.035 A 
ATOM     28  C   UNL     1      -5.366  -2.837  -7.150  0.00  0.00    +0.105 A 
ATOM     29  N   UNL     1      -5.476  -1.897  -8.138  0.00  0.00    -0.352 N 
ATOM     30  H   UNL     1      -4.844  -1.742  -8.858  0.00  0.00    +0.166 HD
ATOM     31  C   UNL     1      -6.627  -1.224  -7.924  0.00  0.00    +0.171 A 
ATOM     32  N   UNL     1      -7.209  -1.718  -6.865  0.00  0.00    -0.350 N 
ATOM     33  H   UNL     1      -8.053  -1.415  -6.496  0.00  0.00    +0.166 HD
ENDBRANCH  26  27
ENDBRANCH  25  26
ENDBRANCH  11  25
TORSDOF 5
