REMARK  Name = ZINC06098732
REMARK  8 active torsions:
REMARK  status: ('A' for Active; 'I' for Inactive)
REMARK    1  A    between atoms: C_1  and  C_2
REMARK    2  A    between atoms: C_5  and  C_29
REMARK    3  A    between atoms: C_6  and  N_8
REMARK    4  A    between atoms: C_9  and  S_13
REMARK    5  A    between atoms: S_13  and  C_14
REMARK    6  A    between atoms: C_14  and  C_16
REMARK    7  A    between atoms: C_14  and  C_17
REMARK    8  A    between atoms: N_19  and  C_20
REMARK                            x       y       z     vdW  Elec       q    Type
REMARK                         _______ _______ _______ _____ _____    ______ ____
ROOT
ATOM      1  C   UNL     1       6.959  -2.130   3.247  0.00  0.00    +0.137 C 
ATOM      2  C   UNL     1       8.176  -2.353   2.347  0.00  0.00    +0.029 C 
ENDROOT
BRANCH   1   3
ATOM      3  C   UNL     1       5.703  -2.180   2.416  0.00  0.00    +0.230 C 
ATOM      4  O   UNL     1       5.031  -3.189   2.393  0.00  0.00    -0.274 OA
ATOM      5  N   UNL     1       5.327  -1.103   1.698  0.00  0.00    -0.284 N 
ATOM      6  H   UNL     1       5.902  -0.323   1.657  0.00  0.00    +0.155 HD
BRANCH   5   7
ATOM      7  C   UNL     1       4.106  -1.111   1.010  0.00  0.00    +0.037 A 
ATOM      8  C   UNL     1       3.983  -0.430  -0.193  0.00  0.00    +0.027 A 
ATOM      9  C   UNL     1       2.780  -0.437  -0.873  0.00  0.00    +0.051 A 
ATOM     10  C   UNL     1       1.693  -1.124  -0.355  0.00  0.00    +0.166 A 
ATOM     11  C   UNL     1       1.814  -1.808   0.852  0.00  0.00    +0.168 A 
ATOM     12  C   UNL     1       3.020  -1.800   1.532  0.00  0.00    +0.072 A 
ATOM     13  O   UNL     1       0.617  -2.396   1.142  0.00  0.00    -0.453 OA
ATOM     14  C   UNL     1      -0.117  -2.407  -0.097  0.00  0.00    +0.466 C 
ATOM     15  O   UNL     1       0.419  -1.284  -0.822  0.00  0.00    -0.453 OA
ENDBRANCH   5   7
ENDBRANCH   1   3
BRANCH   1  16
ATOM     16  S   UNL     1       6.898  -3.425   4.511  0.00  0.00    -0.072 S 
BRANCH  16  18
ATOM     17  N   UNL     1       8.842  -3.708   6.493  0.00  0.00    -0.187 N 
ATOM     18  C   UNL     1       8.369  -3.049   5.404  0.00  0.00    +0.215 A 
ATOM     19  N   UNL     1       9.214  -2.074   5.146  0.00  0.00    -0.101 NA
ATOM     20  N   UNL     1      10.181  -2.081   5.992  0.00  0.00    -0.022 NA
ATOM     21  N   UNL     1      10.031  -3.041   6.838  0.00  0.00    -0.038 NA
BRANCH  17  27
ATOM     22  C   UNL     1       4.889  -5.905   8.425  0.00  0.00    +0.044 C 
ATOM     23  C   UNL     1       6.356  -5.906   8.081  0.00  0.00    -0.048 A 
ATOM     24  C   UNL     1       7.139  -7.001   8.398  0.00  0.00    +0.004 A 
ATOM     25  C   UNL     1       8.485  -7.006   8.084  0.00  0.00    +0.006 A 
ATOM     26  C   UNL     1       9.051  -5.918   7.448  0.00  0.00    -0.025 A 
ATOM     27  C   UNL     1       8.269  -4.815   7.134  0.00  0.00    +0.073 A 
ATOM     28  C   UNL     1       6.917  -4.814   7.450  0.00  0.00    +0.031 A 
ATOM     29  C   UNL     1      10.518  -5.926   7.101  0.00  0.00    +0.046 C 
ENDBRANCH  17  27
ENDBRANCH  16  18
ENDBRANCH   1  16
TORSDOF 5
