REMARK  Name = ZINC03522107
REMARK  6 active torsions:
REMARK  status: ('A' for Active; 'I' for Inactive)
REMARK    1  A    between atoms: C_1  and  C_2
REMARK    2  A    between atoms: C_2  and  C_4
REMARK    3  A    between atoms: C_2  and  S_10
REMARK    4  A    between atoms: S_10  and  C_11
REMARK    5  A    between atoms: N_25  and  C_26
REMARK    6  A    between atoms: C_26  and  C_27
REMARK                            x       y       z     vdW  Elec       q    Type
REMARK                         _______ _______ _______ _____ _____    ______ ____
ROOT
ATOM      1  C   UNL     1      -5.141   0.755   0.658  0.00  0.00    +0.174 A 
ATOM      2  N   UNL     1      -4.921  -0.493   0.296  0.00  0.00    -0.216 NA
ATOM      3  C   UNL     1      -5.901  -1.389   0.319  0.00  0.00    +0.117 A 
ATOM      4  C   UNL     1      -7.204  -1.061   0.724  0.00  0.00    +0.076 A 
ATOM      5  C   UNL     1      -8.183  -2.154   0.695  0.00  0.00    -0.023 A 
ATOM      6  C   UNL     1      -7.734  -3.360   0.293  0.00  0.00    -0.004 A 
ATOM      7  S   UNL     1      -6.015  -3.115  -0.075  0.00  0.00    -0.073 S 
ATOM      8  C   UNL     1      -8.505  -4.639   0.186  0.00  0.00    +0.043 C 
ATOM      9  C   UNL     1      -9.810  -4.380  -0.577  0.00  0.00    +0.005 C 
ATOM     10  C   UNL     1     -10.887  -3.989   0.430  0.00  0.00    +0.001 C 
ATOM     11  C   UNL     1     -10.262  -3.215   1.588  0.00  0.00    +0.005 C 
ATOM     12  C   UNL     1      -9.638  -1.917   1.089  0.00  0.00    +0.037 C 
ATOM     13  C   UNL     1      -7.414   0.300   1.112  0.00  0.00    +0.263 A 
ATOM     14  O   UNL     1      -8.514   0.676   1.479  0.00  0.00    -0.267 OA
ATOM     15  N   UNL     1      -6.378   1.158   1.072  0.00  0.00    -0.283 N 
ENDROOT
BRANCH   1  16
ATOM     16  S   UNL     1      -3.818   1.918   0.614  0.00  0.00    -0.075 S 
BRANCH  16  18
ATOM     17  C   UNL     1      -2.799   0.384  -1.403  0.00  0.00    +0.029 C 
ATOM     18  C   UNL     1      -2.482   0.853   0.018  0.00  0.00    +0.137 C 
BRANCH  18  19
ATOM     19  C   UNL     1      -1.187   1.624   0.017  0.00  0.00    +0.233 C 
ATOM     20  O   UNL     1      -1.204   2.836   0.023  0.00  0.00    -0.274 OA
ATOM     21  N   UNL     1      -0.011   0.966   0.007  0.00  0.00    -0.239 N 
ATOM     22  C   UNL     1       1.147   1.655   0.000  0.00  0.00    +0.303 C 
ATOM     23  O   UNL     1       1.130   2.871   0.007  0.00  0.00    -0.253 OA
ATOM     24  N   UNL     1       2.323   0.998  -0.015  0.00  0.00    -0.313 N 
ATOM     25  H   UNL     1       0.002  -0.004   0.002  0.00  0.00    +0.159 HD
ATOM     26  H   UNL     1       2.336   0.028  -0.020  0.00  0.00    +0.146 HD
ATOM     27  H   UNL     1       3.156   1.494  -0.020  0.00  0.00    +0.146 HD
ENDBRANCH  18  19
ENDBRANCH  16  18
ENDBRANCH   1  16
BRANCH  15  28
ATOM     28  C   UNL     1      -6.583   2.552   1.473  0.00  0.00    +0.154 C 
BRANCH  28  29
ATOM     29  C   UNL     1      -6.991   3.365   0.272  0.00  0.00    -0.013 C 
ATOM     30  C   UNL     1      -8.096   4.069   0.303  0.00  0.00    +0.005 C 
ENDBRANCH  28  29
ENDBRANCH  15  28
TORSDOF 5
