REMARK  Name = ZINC24790923
REMARK  12 active torsions:
REMARK  status: ('A' for Active; 'I' for Inactive)
REMARK    1  A    between atoms: C_1  and  C_2
REMARK    2  A    between atoms: C_2  and  C_3
REMARK    3  A    between atoms: C_3  and  C_27
REMARK    4  A    between atoms: N_6  and  N_10
REMARK    5  A    between atoms: C_11  and  C_13
REMARK    6  A    between atoms: C_13  and  N_14
REMARK    7  A    between atoms: N_14  and  C_15
REMARK    8  A    between atoms: N_14  and  C_17
REMARK    9  A    between atoms: C_15  and  C_16
REMARK   10  A    between atoms: C_17  and  C_18
REMARK   11  A    between atoms: N_20  and  C_21
REMARK   12  A    between atoms: C_21  and  C_22
REMARK                            x       y       z     vdW  Elec       q    Type
REMARK                         _______ _______ _______ _____ _____    ______ ____
ROOT
ATOM      1  N   UNL     1       1.588  -3.732   0.204  0.00  0.00    -0.225 N 
ATOM      2  C   UNL     1       1.488  -2.422  -0.095  0.00  0.00    +0.213 C 
ATOM      3  O   UNL     1       2.208  -1.617   0.457  0.00  0.00    -0.276 OA
ATOM      4  H   UNL     1       0.935  -4.462  -0.297  0.00  0.00    +0.173 HD
ENDROOT
BRANCH   1   8
ATOM      5  C   UNL     1       3.521  -4.929   3.061  0.00  0.00    +0.139 C 
ATOM      6  C   UNL     1       2.208  -4.549   2.406  0.00  0.00    +0.268 C 
ATOM      7  O   UNL     1       1.103  -4.583   2.906  0.00  0.00    -0.271 OA
ATOM      8  N   UNL     1       2.523  -4.165   1.153  0.00  0.00    -0.137 N 
ATOM      9  C   UNL     1       3.838  -4.253   0.926  0.00  0.00    +0.327 C 
ATOM     10  O   UNL     1       4.362  -3.966  -0.132  0.00  0.00    -0.251 OA
ATOM     11  N   UNL     1       4.517  -4.693   2.002  0.00  0.00    -0.280 N 
ATOM     12  H   UNL     1       5.582  -4.884   2.196  0.00  0.00    +0.152 HD
BRANCH   5  13
ATOM     13  C   UNL     1       3.510  -6.380   3.468  0.00  0.00    -0.015 A 
ATOM     14  C   UNL     1       3.078  -6.740   4.731  0.00  0.00    +0.006 A 
ATOM     15  C   UNL     1       3.063  -8.071   5.104  0.00  0.00    +0.000 A 
ATOM     16  C   UNL     1       3.489  -9.042   4.216  0.00  0.00    +0.000 A 
ATOM     17  C   UNL     1       3.926  -8.681   2.955  0.00  0.00    +0.000 A 
ATOM     18  C   UNL     1       3.936  -7.351   2.581  0.00  0.00    +0.006 A 
ENDBRANCH   5  13
BRANCH   5  20
ATOM     19  C   UNL     1       3.857  -2.573   3.820  0.00  0.00    +0.007 C 
ATOM     20  C   UNL     1       3.798  -4.034   4.270  0.00  0.00    +0.037 C 
ENDBRANCH   5  20
ENDBRANCH   1   8
BRANCH   2  21
ATOM     21  C   UNL     1       0.482  -1.956  -1.116  0.00  0.00    +0.021 C 
BRANCH  21  22
ATOM     22  N   UNL     1       0.572  -0.497  -1.261  0.00  0.00    +0.391 N 
ATOM     23  H   UNL     1       1.624  -0.240  -1.450  0.00  0.00    -0.080 HD
BRANCH  22  24
ATOM     24  C   UNL     1       0.155   0.181  -0.026  0.00  0.00    -0.081 C 
ATOM     25  C   UNL     1       0.609   1.642  -0.069  0.00  0.00    -0.017 C 
ENDBRANCH  22  24
BRANCH  22  26
ATOM     26  C   UNL     1      -0.219  -0.033  -2.409  0.00  0.00    +0.019 C 
BRANCH  26  27
ATOM     27  C   UNL     1       0.470  -0.432  -3.688  0.00  0.00    +0.197 C 
ATOM     28  O   UNL     1       1.567  -0.949  -3.651  0.00  0.00    -0.278 OA
ATOM     29  N   UNL     1      -0.133  -0.216  -4.874  0.00  0.00    -0.312 N 
ATOM     30  H   UNL     1      -1.128   0.252  -4.908  0.00  0.00    +0.149 HD
BRANCH  29  31
ATOM     31  C   UNL     1       0.537  -0.605  -6.118  0.00  0.00    +0.146 C 
BRANCH  31  32
ATOM     32  C   UNL     1      -0.343  -0.257  -7.292  0.00  0.00    +0.007 A 
ATOM     33  C   UNL     1      -0.395   0.893  -8.008  0.00  0.00    +0.013 A 
ATOM     34  C   UNL     1      -1.288   0.987  -9.059  0.00  0.00    +0.008 A 
ATOM     35  C   UNL     1      -2.093  -0.068  -9.335  0.00  0.00    +0.045 A 
ATOM     36  S   UNL     1      -1.590  -1.250  -8.094  0.00  0.00    -0.100 S 
ENDBRANCH  31  32
ENDBRANCH  29  31
ENDBRANCH  26  27
ENDBRANCH  22  26
ENDBRANCH  21  22
ENDBRANCH   2  21
TORSDOF 10
