REMARK  Name = ZINC06473896
REMARK  6 active torsions:
REMARK  status: ('A' for Active; 'I' for Inactive)
REMARK    1  A    between atoms: C_5  and  N_7
REMARK    2  A    between atoms: C_8  and  C_10
REMARK    3  A    between atoms: C_10  and  S_11
REMARK    4  A    between atoms: S_11  and  C_12
REMARK    5  A    between atoms: C_15  and  C_17
REMARK    6  A    between atoms: C_20  and  N_23
REMARK                            x       y       z     vdW  Elec       q    Type
REMARK                         _______ _______ _______ _____ _____    ______ ____
ROOT
ATOM      1  C   UNL     1      -1.372  -6.657   0.438  0.00  0.00    +0.278 A 
ATOM      2  N   UNL     1      -0.231  -7.307   0.429  0.00  0.00    -0.101 NA
ATOM      3  N   UNL     1      -0.458  -8.570   0.528  0.00  0.00    -0.106 NA
ATOM      4  C   UNL     1      -1.750  -8.776   0.604  0.00  0.00    +0.249 A 
ATOM      5  O   UNL     1      -2.356  -7.569   0.554  0.00  0.00    -0.411 OA
ENDROOT
BRANCH   4   6
ATOM      6  C   UNL     1      -2.421 -10.087   0.727  0.00  0.00    +0.039 A 
ATOM      7  C   UNL     1      -3.814 -10.158   0.791  0.00  0.00    +0.015 A 
ATOM      8  C   UNL     1      -4.434 -11.385   0.906  0.00  0.00    +0.033 A 
ATOM      9  C   UNL     1      -3.678 -12.543   0.958  0.00  0.00    +0.126 A 
ATOM     10  C   UNL     1      -2.297 -12.479   0.895  0.00  0.00    +0.033 A 
ATOM     11  C   UNL     1      -1.665 -11.259   0.773  0.00  0.00    +0.015 A 
BRANCH   9  12
ATOM     12  N   UNL     1      -4.350 -13.857   1.083  0.00  0.00    +0.056 N 
ATOM     13  O   UNL     1      -5.556 -13.915   1.139  0.00  0.00    -0.126 OA
ATOM     14  O   UNL     1      -3.693 -14.870   1.128  0.00  0.00    -0.126 OA
ENDBRANCH   9  12
ENDBRANCH   4   6
BRANCH   1  15
ATOM     15  S   UNL     1      -1.577  -4.910   0.325  0.00  0.00    -0.056 S 
BRANCH  15  16
ATOM     16  C   UNL     1       0.117  -4.277   0.192  0.00  0.00    +0.175 C 
BRANCH  16  18
ATOM     17  N   UNL     1       1.236  -2.081  -0.022  0.00  0.00    -0.283 N 
ATOM     18  C   UNL     1       0.085  -2.774   0.087  0.00  0.00    +0.228 C 
ATOM     19  O   UNL     1      -0.977  -2.187   0.102  0.00  0.00    -0.275 OA
ATOM     20  H   UNL     1       2.079  -2.552  -0.115  0.00  0.00    +0.155 HD
BRANCH  17  25
ATOM     21  C   UNL     1       0.153   1.372   0.637  0.00  0.00    +0.002 A 
ATOM     22  C   UNL     1       1.173   2.087   0.036  0.00  0.00    +0.003 A 
ATOM     23  C   UNL     1       2.214   1.423  -0.585  0.00  0.00    +0.040 A 
ATOM     24  C   UNL     1       2.239   0.040  -0.607  0.00  0.00    +0.144 A 
ATOM     25  C   UNL     1       1.215  -0.681  -0.002  0.00  0.00    +0.069 A 
ATOM     26  C   UNL     1       0.172  -0.009   0.620  0.00  0.00    +0.026 A 
ATOM     27  F   UNL     1       3.256  -0.609  -1.214  0.00  0.00    -0.204 F 
ENDBRANCH  17  25
ENDBRANCH  16  18
ENDBRANCH  15  16
ENDBRANCH   1  15
TORSDOF 6
