REMARK  Name = ZINC60392546
REMARK  8 active torsions:
REMARK  status: ('A' for Active; 'I' for Inactive)
REMARK    1  A    between atoms: C_1  and  C_2
REMARK    2  A    between atoms: C_2  and  C_3
REMARK    3  A    between atoms: C_3  and  C_5
REMARK    4  A    between atoms: C_3  and  C_6
REMARK    5  A    between atoms: C_6  and  C_8
REMARK    6  A    between atoms: C_6  and  N_27
REMARK    7  A    between atoms: N_13  and  S_16
REMARK    8  A    between atoms: S_16  and  C_19
REMARK                            x       y       z     vdW  Elec       q    Type
REMARK                         _______ _______ _______ _____ _____    ______ ____
ROOT
ATOM      1  C   UNL     1       1.250  -2.634   2.585  0.00  0.00    +0.236 C 
ATOM      2  O   UNL     1       0.527  -3.039   3.471  0.00  0.00    -0.274 OA
ATOM      3  N   UNL     1       2.589  -2.697   2.725  0.00  0.00    -0.297 N 
ATOM      4  C   UNL     1       3.476  -2.313   1.619  0.00  0.00    +0.125 C 
ATOM      5  C   UNL     1       4.443  -1.233   2.119  0.00  0.00    +0.128 C 
ATOM      6  N   UNL     1       5.043  -1.688   3.381  0.00  0.00    -0.174 NA
ATOM      7  C   UNL     1       4.155  -2.072   4.488  0.00  0.00    +0.128 C 
ATOM      8  C   UNL     1       3.188  -3.147   3.990  0.00  0.00    +0.125 C 
ENDROOT
BRANCH   6   9
ATOM      9  S   UNL     1       6.688  -1.766   3.554  0.00  0.00    +0.061 S 
ATOM     10  O   UNL     1       6.944  -2.717   4.578  0.00  0.00    -0.153 OA
ATOM     11  O   UNL     1       7.228  -1.891   2.245  0.00  0.00    -0.153 OA
BRANCH   9  12
ATOM     12  C   UNL     1       7.221  -0.204   4.171  0.00  0.00    +0.107 A 
ATOM     13  C   UNL     1       7.561   0.807   3.292  0.00  0.00    +0.030 A 
ATOM     14  C   UNL     1       7.981   2.032   3.775  0.00  0.00    +0.023 A 
ATOM     15  C   UNL     1       8.060   2.248   5.139  0.00  0.00    +0.059 A 
ATOM     16  C   UNL     1       7.719   1.235   6.020  0.00  0.00    +0.061 A 
ATOM     17  C   UNL     1       7.294   0.011   5.535  0.00  0.00    +0.050 A 
ATOM     18 CL   UNL     1       7.818   1.503   7.732  0.00  0.00    -0.082 Cl
ATOM     19 CL   UNL     1       8.587   3.786   5.747  0.00  0.00    -0.082 Cl
ENDBRANCH   9  12
ENDBRANCH   6   9
BRANCH   1  20
ATOM     20  C   UNL     1       0.650  -2.060   1.328  0.00  0.00    +0.163 C 
BRANCH  20  21
ATOM     21  N   UNL     1      -0.600  -2.758   1.020  0.00  0.00    -0.288 N 
ATOM     22  C   UNL     1      -1.618  -2.740   1.903  0.00  0.00    +0.298 C 
ATOM     23  O   UNL     1      -1.498  -2.143   2.956  0.00  0.00    -0.253 OA
ATOM     24  N   UNL     1      -2.768  -3.382   1.620  0.00  0.00    -0.313 N 
ATOM     25  H   UNL     1      -0.696  -3.234   0.180  0.00  0.00    +0.151 HD
ATOM     26  H   UNL     1      -2.864  -3.858   0.780  0.00  0.00    +0.146 HD
ATOM     27  H   UNL     1      -3.500  -3.369   2.256  0.00  0.00    +0.146 HD
ENDBRANCH  20  21
BRANCH  20  28
ATOM     28  C   UNL     1       0.365  -0.571   1.532  0.00  0.00    +0.015 C 
ATOM     29  C   UNL     1       1.682   0.172   1.770  0.00  0.00    +0.010 C 
BRANCH  28  31
ATOM     30  C   UNL     1      -0.718   1.450   0.538  0.00  0.00    +0.004 C 
ATOM     31  C   UNL     1      -0.321  -0.007   0.287  0.00  0.00    +0.002 C 
ENDBRANCH  28  31
ENDBRANCH  20  28
ENDBRANCH   1  20
TORSDOF 6
