REMARK  Name = ZINC59513425
REMARK  8 active torsions:
REMARK  status: ('A' for Active; 'I' for Inactive)
REMARK    1  A    between atoms: C_2  and  C_3
REMARK    2  A    between atoms: C_3  and  N_4
REMARK    3  A    between atoms: C_8  and  N_29
REMARK    4  A    between atoms: C_10  and  S_11
REMARK    5  A    between atoms: S_11  and  C_12
REMARK    6  A    between atoms: C_12  and  C_13
REMARK    7  A    between atoms: N_15  and  C_16
REMARK    8  A    between atoms: C_17  and  C_27
REMARK                            x       y       z     vdW  Elec       q    Type
REMARK                         _______ _______ _______ _____ _____    ______ ____
ROOT
ATOM      1  C   UNL     1      -0.781  -5.744  -1.622  0.00  0.00    +0.228 C 
ATOM      2  O   UNL     1      -0.863  -5.043  -2.608  0.00  0.00    -0.275 OA
ATOM      3  N   UNL     1      -1.203  -7.023  -1.667  0.00  0.00    -0.278 N 
ATOM      4  H   UNL     1      -1.138  -7.584  -0.878  0.00  0.00    +0.155 HD
ENDROOT
BRANCH   3   5
ATOM      5  C   UNL     1      -1.732  -7.538  -2.842  0.00  0.00    +0.090 A 
ATOM      6  C   UNL     1      -2.216  -8.809  -3.071  0.00  0.00    +0.084 A 
ATOM      7  C   UNL     1      -2.725  -9.124  -4.410  0.00  0.00    -0.018 A 
ATOM      8  C   UNL     1      -2.618  -8.089  -5.264  0.00  0.00    -0.004 A 
ATOM      9  S   UNL     1      -1.939  -6.757  -4.312  0.00  0.00    -0.077 S 
ATOM     10  C   UNL     1      -2.940  -8.056  -6.732  0.00  0.00    +0.043 C 
ATOM     11  C   UNL     1      -1.768  -8.728  -7.470  0.00  0.00    +0.005 C 
ATOM     12  C   UNL     1      -1.547 -10.115  -6.856  0.00  0.00    +0.000 C 
ATOM     13  C   UNL     1      -2.829 -10.882  -7.106  0.00  0.00    +0.000 C 
ATOM     14  C   UNL     1      -3.915 -10.612  -6.079  0.00  0.00    +0.005 C 
ATOM     15  C   UNL     1      -3.352 -10.490  -4.668  0.00  0.00    +0.037 C 
BRANCH   6  16
ATOM     16  C   UNL     1      -2.220  -9.794  -2.031  0.00  0.00    +0.102 C 
ATOM     17  N   UNL     1      -2.223 -10.576  -1.206  0.00  0.00    -0.191 NA
ENDBRANCH   6  16
ENDBRANCH   3   5
BRANCH   1  18
ATOM     18  C   UNL     1      -0.206  -5.185  -0.346  0.00  0.00    +0.173 C 
BRANCH  18  19
ATOM     19  S   UNL     1       0.267  -3.453  -0.604  0.00  0.00    -0.078 S 
BRANCH  19  26
ATOM     20  N   UNL     1       1.367  -1.676   1.111  0.00  0.00    -0.284 N 
ATOM     21  C   UNL     1       1.859  -1.272   2.301  0.00  0.00    +0.257 A 
ATOM     22  O   UNL     1       2.265  -0.130   2.450  0.00  0.00    -0.268 OA
ATOM     23  C   UNL     1       1.897  -2.183   3.361  0.00  0.00    +0.113 A 
ATOM     24  C   UNL     1       1.426  -3.472   3.150  0.00  0.00    +0.124 A 
ATOM     25  N   UNL     1       0.950  -3.816   1.949  0.00  0.00    -0.209 NA
ATOM     26  C   UNL     1       0.912  -2.950   0.957  0.00  0.00    +0.174 A 
BRANCH  24  27
ATOM     27  N   UNL     1       1.451  -4.395   4.177  0.00  0.00    -0.343 N 
ATOM     28  H   UNL     1       1.797  -4.143   5.047  0.00  0.00    +0.144 HD
ATOM     29  H   UNL     1       1.121  -5.295   4.027  0.00  0.00    +0.144 HD
ENDBRANCH  24  27
BRANCH  20  30
ATOM     30  C   UNL     1       1.317  -0.740  -0.015  0.00  0.00    +0.154 C 
BRANCH  30  32
ATOM     31  C   UNL     1      -0.016   1.306   0.009  0.00  0.00    +0.005 C 
ATOM     32  C   UNL     1       0.002  -0.004   0.002  0.00  0.00    -0.013 C 
ENDBRANCH  30  32
ENDBRANCH  20  30
ENDBRANCH  19  26
ENDBRANCH  18  19
ENDBRANCH   1  18
TORSDOF 8
