REMARK  Name = ZINC28616831
REMARK  11 active torsions:
REMARK  status: ('A' for Active; 'I' for Inactive)
REMARK    1  A    between atoms: C_1  and  C_2
REMARK    2  A    between atoms: C_2  and  C_3
REMARK    3  A    between atoms: C_3  and  C_4
REMARK    4  A    between atoms: C_4  and  N_5
REMARK    5  A    between atoms: C_12  and  O_24
REMARK    6  A    between atoms: N_16  and  C_17
REMARK    7  A    between atoms: C_17  and  C_18
REMARK    8  A    between atoms: O_24  and  C_25
REMARK    9  A    between atoms: C_25  and  C_26
REMARK   10  A    between atoms: N_28  and  C_29
REMARK   11  A    between atoms: C_30  and  C_34
REMARK                            x       y       z     vdW  Elec       q    Type
REMARK                         _______ _______ _______ _____ _____    ______ ____
ROOT
ATOM      1  N   UNL     1       1.265   1.855  -0.000  0.00  0.00    -0.307 N 
ATOM      2  C   UNL     1      -0.016   1.308   0.009  0.00  0.00    +0.181 C 
ATOM      3  N   UNL     1       0.002  -0.004   0.002  0.00  0.00    -0.252 NA
ATOM      4  C   UNL     1       1.387  -0.409  -0.045  0.00  0.00    +0.226 C 
ATOM      5  C   UNL     1       2.064   0.818   0.647  0.00  0.00    +0.200 C 
ATOM      6  C   UNL     1       3.516   0.690   0.333  0.00  0.00    +0.208 C 
ATOM      7  N   UNL     1       4.014  -0.529   0.461  0.00  0.00    -0.130 NA
ATOM      8  C   UNL     1       3.249  -1.580   0.822  0.00  0.00    +0.330 C 
ATOM      9  O   UNL     1       3.774  -2.550   1.337  0.00  0.00    -0.250 OA
ATOM     10  N   UNL     1       1.898  -1.579   0.622  0.00  0.00    -0.255 N 
ENDROOT
BRANCH   1  11
ATOM     11  C   UNL     1       1.702   3.150  -0.528  0.00  0.00    +0.107 C 
BRANCH  11  12
ATOM     12  C   UNL     1       1.605   4.209   0.572  0.00  0.00    +0.019 C 
BRANCH  12  14
ATOM     13  C   UNL     1       1.964   6.620   1.120  0.00  0.00    +0.004 C 
ATOM     14  C   UNL     1       2.061   5.561   0.020  0.00  0.00    -0.002 C 
ENDBRANCH  12  14
ENDBRANCH  11  12
ENDBRANCH   1  11
BRANCH  10  15
ATOM     15  C   UNL     1       1.035  -2.682   1.052  0.00  0.00    +0.146 C 
BRANCH  15  16
ATOM     16  C   UNL     1       0.925  -3.696  -0.058  0.00  0.00    -0.030 A 
ATOM     17  C   UNL     1      -0.084  -3.586  -0.997  0.00  0.00    +0.005 A 
ATOM     18  C   UNL     1      -0.182  -4.513  -2.017  0.00  0.00    +0.000 A 
ATOM     19  C   UNL     1       0.722  -5.555  -2.093  0.00  0.00    +0.000 A 
ATOM     20  C   UNL     1       1.728  -5.668  -1.151  0.00  0.00    +0.000 A 
ATOM     21  C   UNL     1       1.829  -4.738  -0.134  0.00  0.00    +0.005 A 
ENDBRANCH  15  16
ENDBRANCH  10  15
BRANCH   6  22
ATOM     22  O   UNL     1       4.264   1.737  -0.054  0.00  0.00    -0.470 OA
BRANCH  22  23
ATOM     23  C   UNL     1       5.666   1.479  -0.330  0.00  0.00    +0.326 C 
BRANCH  23  24
ATOM     24  C   UNL     1       6.340   2.760  -0.747  0.00  0.00    +0.255 C 
ATOM     25  O   UNL     1       5.702   3.790  -0.804  0.00  0.00    -0.272 OA
ATOM     26  N   UNL     1       7.652   2.763  -1.055  0.00  0.00    -0.277 N 
ATOM     27  H   UNL     1       8.231   1.829  -1.003  0.00  0.00    +0.155 HD
BRANCH  26  28
ATOM     28  C   UNL     1       8.273   3.942  -1.438  0.00  0.00    +0.084 A 
ATOM     29  C   UNL     1       9.602   4.143  -1.790  0.00  0.00    +0.065 A 
ATOM     30  C   UNL     1       9.981   5.489  -2.150  0.00  0.00    +0.022 A 
ATOM     31  C   UNL     1       9.020   6.429  -2.114  0.00  0.00    +0.048 A 
ATOM     32  S   UNL     1       7.577   5.519  -1.600  0.00  0.00    -0.081 S 
BRANCH  29  33
ATOM     33  C   UNL     1      10.571   3.043  -1.797  0.00  0.00    +0.244 C 
ATOM     34  O   UNL     1      10.219   1.920  -1.488  0.00  0.00    -0.270 OA
ATOM     35  N   UNL     1      11.852   3.276  -2.144  0.00  0.00    -0.325 N 
ATOM     36  H   UNL     1      12.579   2.450  -2.149  0.00  0.00    +0.145 HD
ATOM     37  H   UNL     1      12.171   4.291  -2.423  0.00  0.00    +0.145 HD
ENDBRANCH  29  33
ENDBRANCH  26  28
ENDBRANCH  23  24
ENDBRANCH  22  23
ENDBRANCH   6  22
TORSDOF 10
