REMARK  Name = ZINC15210072
REMARK  8 active torsions:
REMARK  status: ('A' for Active; 'I' for Inactive)
REMARK    1  A    between atoms: C_1  and  C_2
REMARK    2  A    between atoms: C_5  and  C_31
REMARK    3  A    between atoms: N_8  and  S_10
REMARK    4  A    between atoms: S_10  and  C_13
REMARK    5  A    between atoms: C_16  and  N_22
REMARK    6  A    between atoms: C_17  and  N_19
REMARK    7  A    between atoms: C_26  and  C_29
REMARK    8  A    between atoms: C_29  and  O_30
REMARK                            x       y       z     vdW  Elec       q    Type
REMARK                         _______ _______ _______ _____ _____    ______ ____
ROOT
ATOM      1  C   UNL     1      -3.840  -1.552   0.427  0.00  0.00    +0.108 A 
ATOM      2  C   UNL     1      -3.270  -0.829   1.458  0.00  0.00    +0.030 A 
ATOM      3  C   UNL     1      -1.996  -0.312   1.320  0.00  0.00    +0.027 A 
ATOM      4  C   UNL     1      -1.288  -0.521   0.143  0.00  0.00    +0.060 A 
ATOM      5  C   UNL     1      -1.865  -1.244  -0.892  0.00  0.00    +0.149 A 
ATOM      6  C   UNL     1      -3.137  -1.762  -0.746  0.00  0.00    +0.063 A 
ENDROOT
BRANCH   4   7
ATOM      7  N   UNL     1       0.001  -0.001   0.001  0.00  0.00    -0.328 N 
ATOM      8  C   UNL     1      -0.005   1.462   0.131  0.00  0.00    +0.105 C 
ATOM      9  C   UNL     1       1.391   2.008  -0.174  0.00  0.00    +0.019 C 
ATOM     10  C   UNL     1       2.399   1.394   0.801  0.00  0.00    +0.009 C 
ATOM     11  C   UNL     1       2.350  -0.132   0.680  0.00  0.00    +0.032 C 
ATOM     12  C   UNL     1       0.926  -0.616   0.961  0.00  0.00    +0.111 C 
BRANCH  11  13
ATOM     13  C   UNL     1       3.311  -0.755   1.694  0.00  0.00    +0.160 C 
BRANCH  13  14
ATOM     14  O   UNL     1       4.654  -0.396   1.361  0.00  0.00    -0.395 OA
ATOM     15  H   UNL     1       5.319  -0.758   1.964  0.00  0.00    +0.209 HD
ENDBRANCH  13  14
ENDBRANCH  11  13
ENDBRANCH   4   7
BRANCH   1  16
ATOM     16  S   UNL     1      -5.465  -2.209   0.607  0.00  0.00    +0.061 S 
ATOM     17  O   UNL     1      -5.560  -3.309  -0.287  0.00  0.00    -0.153 OA
ATOM     18  O   UNL     1      -5.698  -2.339   2.002  0.00  0.00    -0.153 OA
BRANCH  16  24
ATOM     19  C   UNL     1      -7.485   2.403   1.249  0.00  0.00    +0.009 C 
ATOM     20  C   UNL     1      -6.804   1.343   0.381  0.00  0.00    +0.002 C 
ATOM     21  C   UNL     1      -7.369   1.407  -1.040  0.00  0.00    +0.009 C 
ATOM     22  C   UNL     1      -6.665   0.369  -1.918  0.00  0.00    +0.002 C 
ATOM     23  C   UNL     1      -6.929  -1.031  -1.356  0.00  0.00    +0.112 C 
ATOM     24  N   UNL     1      -6.521  -1.058   0.056  0.00  0.00    -0.176 NA
ATOM     25  C   UNL     1      -7.074  -0.050   0.970  0.00  0.00    +0.112 C 
ATOM     26  C   UNL     1      -5.160   0.642  -1.925  0.00  0.00    +0.009 C 
ENDBRANCH  16  24
ENDBRANCH   1  16
BRANCH   5  27
ATOM     27  N   UNL     1      -1.116  -1.464  -2.150  0.00  0.00    +0.058 N 
ATOM     28  O   UNL     1      -1.656  -2.016  -3.092  0.00  0.00    -0.126 OA
ATOM     29  O   UNL     1       0.040  -1.092  -2.243  0.00  0.00    -0.126 OA
ENDBRANCH   5  27
TORSDOF 6
