REMARK  Name = ZINC33260262
REMARK  7 active torsions:
REMARK  status: ('A' for Active; 'I' for Inactive)
REMARK    1  A    between atoms: C_1  and  C_2
REMARK    2  A    between atoms: C_2  and  C_3
REMARK    3  A    between atoms: C_3  and  C_5
REMARK    4  A    between atoms: C_3  and  N_6
REMARK    5  A    between atoms: C_7  and  C_9
REMARK    6  A    between atoms: C_21  and  C_24
REMARK    7  A    between atoms: C_27  and  C_30
REMARK                            x       y       z     vdW  Elec       q    Type
REMARK                         _______ _______ _______ _____ _____    ______ ____
ROOT
ATOM      1  C   UNL     1      -0.013   1.086   0.008  0.00  0.00    +0.078 C 
ATOM      2  C   UNL     1      -0.732   1.581   1.266  0.00  0.00    +0.031 C 
ATOM      3  C   UNL     1      -2.185   1.096   1.239  0.00  0.00    +0.107 C 
ATOM      4  N   UNL     1      -2.852   1.610   0.036  0.00  0.00    -0.314 N 
ATOM      5  C   UNL     1      -2.207   1.109  -1.184  0.00  0.00    +0.107 C 
ATOM      6  C   UNL     1      -0.756   1.594  -1.230  0.00  0.00    +0.031 C 
ATOM      7  C   UNL     1      -4.208   1.298   0.047  0.00  0.00    +0.142 A 
ATOM      8  C   UNL     1      -5.005   1.694   1.138  0.00  0.00    +0.049 A 
ATOM      9  C   UNL     1      -6.331   1.394   1.159  0.00  0.00    +0.053 A 
ATOM     10  C   UNL     1      -6.891   0.686   0.080  0.00  0.00    +0.178 A 
ATOM     11  N   UNL     1      -8.113   0.253  -0.194  0.00  0.00    -0.128 NA
ATOM     12  N   UNL     1      -8.112  -0.353  -1.330  0.00  0.00    -0.127 NA
ATOM     13  C   UNL     1      -6.897  -0.344  -1.847  0.00  0.00    +0.185 A 
ATOM     14  N   UNL     1      -6.087   0.314  -0.969  0.00  0.00    -0.191 N 
ATOM     15  N   UNL     1      -4.730   0.642  -0.963  0.00  0.00    -0.148 NA
ENDROOT
BRANCH  13  16
ATOM     16  C   UNL     1      -6.490  -0.938  -3.138  0.00  0.00    +0.021 A 
ATOM     17  C   UNL     1      -5.137  -1.129  -3.426  0.00  0.00    +0.012 A 
ATOM     18  C   UNL     1      -4.765  -1.688  -4.631  0.00  0.00    +0.004 A 
ATOM     19  C   UNL     1      -5.727  -2.049  -5.557  0.00  0.00    -0.050 A 
ATOM     20  C   UNL     1      -7.069  -1.857  -5.279  0.00  0.00    +0.004 A 
ATOM     21  C   UNL     1      -7.456  -1.304  -4.076  0.00  0.00    +0.012 A 
ATOM     22  C   UNL     1      -5.312  -2.654  -6.873  0.00  0.00    +0.044 C 
ENDBRANCH  13  16
BRANCH   1  24
ATOM     23  N   UNL     1       2.245   1.290   0.998  0.00  0.00    -0.313 N 
ATOM     24  C   UNL     1       1.401   1.609  -0.003  0.00  0.00    +0.216 C 
ATOM     25  O   UNL     1       1.778   2.317  -0.912  0.00  0.00    -0.276 OA
ATOM     26  H   UNL     1       1.902   0.648   1.823  0.00  0.00    +0.149 HD
BRANCH  23  27
ATOM     27  C   UNL     1       3.619   1.798   0.988  0.00  0.00    +0.070 C 
ATOM     28  C   UNL     1       4.499   0.871   0.147  0.00  0.00    +0.028 C 
BRANCH  27  30
ATOM     29  C   UNL     1       3.351   2.870   3.229  0.00  0.00    +0.005 C 
ATOM     30  C   UNL     1       4.154   1.849   2.420  0.00  0.00    +0.018 C 
ENDBRANCH  27  30
ENDBRANCH  23  27
ENDBRANCH   1  24
TORSDOF 4
