REMARK  Name = ZINC09517121
REMARK  10 active torsions:
REMARK  status: ('A' for Active; 'I' for Inactive)
REMARK    1  A    between atoms: C_1  and  C_2
REMARK    2  A    between atoms: C_2  and  C_3
REMARK    3  A    between atoms: C_3  and  N_4
REMARK    4  A    between atoms: C_8  and  S_30
REMARK    5  A    between atoms: C_12  and  S_13
REMARK    6  A    between atoms: S_13  and  C_14
REMARK    7  A    between atoms: C_14  and  C_15
REMARK    8  A    between atoms: C_15  and  C_17
REMARK    9  A    between atoms: C_19  and  C_23
REMARK   10  A    between atoms: S_30  and  N_33
REMARK                            x       y       z     vdW  Elec       q    Type
REMARK                         _______ _______ _______ _____ _____    ______ ____
ROOT
ATOM      1  N   UNL     1      -5.844  -2.822   0.019  0.00  0.00    -0.319 N 
ATOM      2  C   UNL     1      -5.468  -4.155   0.006  0.00  0.00    +0.070 A 
ATOM      3  C   UNL     1      -6.169  -5.351   0.002  0.00  0.00    +0.030 A 
ATOM      4  C   UNL     1      -5.483  -6.549  -0.006  0.00  0.00    +0.030 A 
ATOM      5  C   UNL     1      -4.096  -6.565  -0.011  0.00  0.00    +0.107 A 
ATOM      6  C   UNL     1      -3.384  -5.386  -0.009  0.00  0.00    +0.058 A 
ATOM      7  C   UNL     1      -4.063  -4.165   0.000  0.00  0.00    +0.092 A 
ATOM      8  N   UNL     1      -3.653  -2.870   0.005  0.00  0.00    -0.222 NA
ATOM      9  C   UNL     1      -4.698  -2.078   0.013  0.00  0.00    +0.170 A 
ENDROOT
BRANCH   5  10
ATOM     10  S   UNL     1      -3.240  -8.104  -0.022  0.00  0.00    +0.056 S 
ATOM     11  O   UNL     1      -1.952  -7.856   0.525  0.00  0.00    -0.153 OA
ATOM     12  O   UNL     1      -4.128  -9.068   0.528  0.00  0.00    -0.153 OA
BRANCH  10  13
ATOM     13  N   UNL     1      -3.007  -8.525  -1.607  0.00  0.00    -0.204 NA
ATOM     14  H   UNL     1      -3.331  -7.945  -2.314  0.00  0.00    +0.144 HD
ATOM     15  H   UNL     1      -2.548  -9.350  -1.827  0.00  0.00    +0.144 HD
ENDBRANCH  10  13
ENDBRANCH   5  10
BRANCH   1  16
ATOM     16  C   UNL     1      -7.215  -2.306   0.034  0.00  0.00    +0.124 C 
BRANCH  16  18
ATOM     17  C   UNL     1      -9.137  -1.580  -1.387  0.00  0.00    +0.005 C 
ATOM     18  C   UNL     1      -7.705  -2.119  -1.403  0.00  0.00    +0.018 C 
ENDBRANCH  16  18
ENDBRANCH   1  16
BRANCH   9  19
ATOM     19  S   UNL     1      -4.633  -0.317   0.021  0.00  0.00    -0.080 S 
BRANCH  19  20
ATOM     20  C   UNL     1      -2.840  -0.068   0.015  0.00  0.00    +0.157 C 
BRANCH  20  21
ATOM     21  C   UNL     1      -2.538   1.408   0.021  0.00  0.00    +0.175 C 
ATOM     22  O   UNL     1      -3.446   2.213   0.028  0.00  0.00    -0.291 OA
BRANCH  21  23
ATOM     23  C   UNL     1      -1.147   1.872   0.017  0.00  0.00    +0.036 A 
ATOM     24  C   UNL     1      -0.708   3.218   0.025  0.00  0.00    +0.043 A 
ATOM     25  C   UNL     1       0.654   3.192   0.012  0.00  0.00    +0.103 A 
ATOM     26  N   UNL     1       1.064   1.875   0.002  0.00  0.00    -0.356 N 
ATOM     27  H   UNL     1       1.986   1.575  -0.008  0.00  0.00    +0.165 HD
ATOM     28  C   UNL     1      -0.013   1.076   0.008  0.00  0.00    +0.094 A 
BRANCH  25  29
ATOM     29  C   UNL     1       1.536   4.366   0.010  0.00  0.00    +0.263 C 
ATOM     30  O   UNL     1       1.058   5.485   0.019  0.00  0.00    -0.268 OA
ATOM     31  N   UNL     1       2.874   4.204  -0.003  0.00  0.00    -0.296 N 
ATOM     32  C   UNL     1       3.581   2.915  -0.009  0.00  0.00    +0.108 C 
ATOM     33  C   UNL     1       5.093   3.222   0.002  0.00  0.00    +0.020 C 
ATOM     34  C   UNL     1       5.151   4.655   0.592  0.00  0.00    +0.020 C 
ATOM     35  C   UNL     1       3.871   5.290  -0.007  0.00  0.00    +0.108 C 
ENDBRANCH  25  29
ENDBRANCH  21  23
ENDBRANCH  20  21
ENDBRANCH  19  20
ENDBRANCH   9  19
TORSDOF 9
