REMARK  Name = ZINC08908783
REMARK  7 active torsions:
REMARK  status: ('A' for Active; 'I' for Inactive)
REMARK    1  A    between atoms: C_1  and  C_2
REMARK    2  A    between atoms: C_2  and  C_3
REMARK    3  A    between atoms: C_9  and  C_11
REMARK    4  A    between atoms: C_11  and  S_12
REMARK    5  A    between atoms: S_12  and  C_13
REMARK    6  A    between atoms: C_19  and  C_21
REMARK    7  A    between atoms: N_26  and  C_28
REMARK                            x       y       z     vdW  Elec       q    Type
REMARK                         _______ _______ _______ _____ _____    ______ ____
ROOT
ATOM      1  C   UNL     1      -3.728   2.572   0.114  0.00  0.00    +0.160 A 
ATOM      2  N   UNL     1      -2.673   3.373   0.108  0.00  0.00    -0.133 NA
ATOM      3  N   UNL     1      -1.495   2.924   0.085  0.00  0.00    -0.125 NA
ATOM      4  C   UNL     1      -1.240   1.626   0.065  0.00  0.00    +0.189 A 
ATOM      5  S   UNL     1      -2.910   0.980   0.074  0.00  0.00    -0.024 S 
ATOM      6  N   UNL     1      -0.020   0.953   0.039  0.00  0.00    -0.263 N 
ATOM      7  C   UNL     1       1.133   1.650   0.025  0.00  0.00    +0.224 C 
ATOM      8  O   UNL     1       1.110   2.863   0.041  0.00  0.00    -0.275 OA
ATOM      9  H   UNL     1      -0.001  -0.016   0.026  0.00  0.00    +0.157 HD
ENDROOT
BRANCH   7  10
ATOM     10  C   UNL     1       2.453   0.923  -0.010  0.00  0.00    +0.102 C 
ATOM     11  C   UNL     1       2.629   0.035   1.244  0.00  0.00    +0.110 C 
ATOM     12  C   UNL     1       3.381   0.914   2.218  0.00  0.00    +0.221 C 
ATOM     13  O   UNL     1       3.477   0.708   3.410  0.00  0.00    -0.275 OA
ATOM     14  N   UNL     1       3.928   1.958   1.571  0.00  0.00    -0.271 N 
ATOM     15  C   UNL     1       3.632   1.910   0.135  0.00  0.00    +0.127 C 
BRANCH  14  16
ATOM     16  C   UNL     1       4.683   2.963   2.189  0.00  0.00    +0.036 A 
ATOM     17  C   UNL     1       4.803   2.992   3.572  0.00  0.00    +0.026 A 
ATOM     18  C   UNL     1       5.552   3.981   4.179  0.00  0.00    +0.040 A 
ATOM     19  C   UNL     1       6.174   4.950   3.410  0.00  0.00    +0.124 A 
ATOM     20  C   UNL     1       6.051   4.926   2.031  0.00  0.00    +0.040 A 
ATOM     21  C   UNL     1       5.307   3.936   1.420  0.00  0.00    +0.026 A 
ATOM     22  F   UNL     1       6.901   5.920   4.006  0.00  0.00    -0.205 F 
ENDBRANCH  14  16
ENDBRANCH   7  10
BRANCH   1  23
ATOM     23  S   UNL     1      -5.446   2.962   0.144  0.00  0.00    -0.088 S 
BRANCH  23  24
ATOM     24  C   UNL     1      -5.484   4.776   0.168  0.00  0.00    +0.172 C 
BRANCH  24  31
ATOM     25  C   UNL     1     -10.871   8.166   0.291  0.00  0.00    +0.103 A 
ATOM     26  N   UNL     1     -10.764   6.852   0.273  0.00  0.00    -0.145 NA
ATOM     27  N   UNL     1      -9.629   6.300   0.249  0.00  0.00    -0.126 NA
ATOM     28  C   UNL     1      -8.509   7.003   0.241  0.00  0.00    +0.188 A 
ATOM     29  S   UNL     1      -9.142   8.623   0.279  0.00  0.00    -0.035 S 
ATOM     30  N   UNL     1      -7.189   6.568   0.216  0.00  0.00    -0.263 N 
ATOM     31  C   UNL     1      -6.915   5.248   0.195  0.00  0.00    +0.229 C 
ATOM     32  O   UNL     1      -7.820   4.441   0.198  0.00  0.00    -0.275 OA
ATOM     33  H   UNL     1      -6.465   7.213   0.214  0.00  0.00    +0.157 HD
BRANCH  25  35
ATOM     34  C   UNL     1     -12.496   9.312   1.773  0.00  0.00    +0.011 C 
ATOM     35  C   UNL     1     -12.101   9.036   0.321  0.00  0.00    +0.061 C 
ENDBRANCH  25  35
ENDBRANCH  24  31
ENDBRANCH  23  24
ENDBRANCH   1  23
TORSDOF 6
