REMARK  Name = ZINC20457213
REMARK  6 active torsions:
REMARK  status: ('A' for Active; 'I' for Inactive)
REMARK    1  A    between atoms: C_3  and  C_10
REMARK    2  A    between atoms: C_5  and  N_7
REMARK    3  A    between atoms: N_11  and  N_12
REMARK    4  A    between atoms: C_19  and  C_22
REMARK    5  A    between atoms: C_22  and  C_23
REMARK    6  A    between atoms: C_23  and  C_24
REMARK                            x       y       z     vdW  Elec       q    Type
REMARK                         _______ _______ _______ _____ _____    ______ ____
ROOT
ATOM      1  N   UNL     1      -1.222   7.354   0.051  0.00  0.00    -0.220 N 
ATOM      2  C   UNL     1      -2.435   8.033   0.066  0.00  0.00    +0.159 A 
ATOM      3  C   UNL     1      -2.444   9.442   0.073  0.00  0.00    +0.050 A 
ATOM      4  C   UNL     1      -3.624  10.116   0.088  0.00  0.00    +0.053 A 
ATOM      5  C   UNL     1      -4.830   9.388   0.096  0.00  0.00    +0.178 A 
ATOM      6  N   UNL     1      -6.107   9.732   0.111  0.00  0.00    -0.128 NA
ATOM      7  N   UNL     1      -6.834   8.669   0.113  0.00  0.00    -0.126 NA
ATOM      8  C   UNL     1      -6.073   7.602   0.101  0.00  0.00    +0.230 A 
ATOM      9  N   UNL     1      -4.788   8.015   0.089  0.00  0.00    -0.189 N 
ATOM     10  N   UNL     1      -3.559   7.353   0.069  0.00  0.00    -0.147 NA
ATOM     11  H   UNL     1      -0.277   7.917   0.044  0.00  0.00    +0.176 HD
ENDROOT
BRANCH   8  12
ATOM     12  C   UNL     1      -6.548   6.172   0.099  0.00  0.00    +0.379 C 
ATOM     13  F   UNL     1      -6.080   5.527  -1.051  0.00  0.00    -0.190 F 
ATOM     14  F   UNL     1      -6.057   5.517   1.233  0.00  0.00    -0.190 F 
BRANCH  12  15
ATOM     15  C   UNL     1      -8.077   6.142   0.114  0.00  0.00    +0.410 C 
ATOM     16  F   UNL     1      -8.545   6.787   1.264  0.00  0.00    -0.189 F 
ATOM     17  F   UNL     1      -8.568   6.798  -1.021  0.00  0.00    -0.189 F 
BRANCH  15  18
ATOM     18  C   UNL     1      -8.559   4.690   0.112  0.00  0.00    +0.461 C 
ATOM     19  F   UNL     1      -8.069   4.034   1.246  0.00  0.00    -0.165 F 
ATOM     20  F   UNL     1      -9.957   4.662   0.126  0.00  0.00    -0.165 F 
ATOM     21  F   UNL     1      -8.091   4.045  -1.038  0.00  0.00    -0.165 F 
ENDBRANCH  15  18
ENDBRANCH  12  15
ENDBRANCH   8  12
BRANCH   1  23
ATOM     22  C   UNL     1      -0.070   5.320   0.030  0.00  0.00    +0.138 C 
ATOM     23  N   UNL     1      -1.203   5.953   0.044  0.00  0.00    -0.189 NA
BRANCH  22  26
ATOM     24  C   UNL     1      -1.222   1.748   0.017  0.00  0.00    +0.003 A 
ATOM     25  C   UNL     1      -1.248   3.127   0.031  0.00  0.00    +0.009 A 
ATOM     26  C   UNL     1      -0.050   3.845   0.023  0.00  0.00    -0.003 A 
ATOM     27  C   UNL     1       1.167   3.160   0.007  0.00  0.00    +0.042 A 
ATOM     28  C   UNL     1       1.178   1.781   0.000  0.00  0.00    +0.127 A 
ATOM     29  C   UNL     1      -0.013   1.076   0.008  0.00  0.00    +0.033 A 
BRANCH  28  30
ATOM     30  N   UNL     1       2.467   1.053  -0.016  0.00  0.00    +0.056 N 
ATOM     31  O   UNL     1       2.478  -0.165  -0.022  0.00  0.00    -0.126 OA
ATOM     32  O   UNL     1       3.516   1.672  -0.022  0.00  0.00    -0.126 OA
ENDBRANCH  28  30
ENDBRANCH  22  26
ENDBRANCH   1  23
TORSDOF 6
