REMARK  Name = ZINC45222400
REMARK  8 active torsions:
REMARK  status: ('A' for Active; 'I' for Inactive)
REMARK    1  A    between atoms: C_1  and  C_2
REMARK    2  A    between atoms: C_2  and  C_4
REMARK    3  A    between atoms: C_2  and  N_12
REMARK    4  A    between atoms: C_13  and  C_15
REMARK    5  A    between atoms: C_15  and  N_16
REMARK    6  A    between atoms: C_19  and  C_23
REMARK    7  A    between atoms: C_19  and  C_24
REMARK    8  A    between atoms: C_27  and  N_30
REMARK                            x       y       z     vdW  Elec       q    Type
REMARK                         _______ _______ _______ _____ _____    ______ ____
ROOT
ATOM      1  N   UNL     1      -3.929  -1.240   2.572  0.00  0.00    -0.215 N 
ATOM      2  C   UNL     1      -3.791  -2.314   3.375  0.00  0.00    +0.251 C 
ATOM      3  O   UNL     1      -3.260  -3.369   3.102  0.00  0.00    -0.272 OA
ATOM      4  C   UNL     1      -4.436  -1.927   4.691  0.00  0.00    +0.135 C 
ATOM      5  N   UNL     1      -4.907  -0.551   4.455  0.00  0.00    -0.281 N 
ATOM      6  C   UNL     1      -4.561  -0.238   3.193  0.00  0.00    +0.310 C 
ATOM      7  O   UNL     1      -4.799   0.835   2.674  0.00  0.00    -0.252 OA
ATOM      8  C   UNL     1      -5.612  -2.852   5.006  0.00  0.00    +0.047 C 
ATOM      9  H   UNL     1      -5.373   0.018   5.086  0.00  0.00    +0.152 HD
ENDROOT
BRANCH   4  10
ATOM     10  C   UNL     1      -3.423  -1.956   5.806  0.00  0.00    -0.015 A 
ATOM     11  C   UNL     1      -2.353  -2.830   5.747  0.00  0.00    +0.008 A 
ATOM     12  C   UNL     1      -1.424  -2.857   6.770  0.00  0.00    +0.033 A 
ATOM     13  C   UNL     1      -1.564  -2.009   7.853  0.00  0.00    +0.126 A 
ATOM     14  C   UNL     1      -2.633  -1.135   7.912  0.00  0.00    +0.033 A 
ATOM     15  C   UNL     1      -3.560  -1.105   6.887  0.00  0.00    +0.008 A 
BRANCH  13  16
ATOM     16  N   UNL     1      -0.570  -2.039   8.949  0.00  0.00    +0.056 N 
ATOM     17  O   UNL     1       0.365  -2.804   8.897  0.00  0.00    -0.126 OA
ATOM     18  O   UNL     1      -0.692  -1.297   9.896  0.00  0.00    -0.126 OA
ENDBRANCH  13  16
ENDBRANCH   4  10
BRANCH   1  19
ATOM     19  C   UNL     1      -3.442  -1.177   1.191  0.00  0.00    +0.213 C 
BRANCH  19  21
ATOM     20  N   UNL     1      -1.372  -0.511   0.012  0.00  0.00    -0.307 N 
ATOM     21  C   UNL     1      -2.029  -0.655   1.181  0.00  0.00    +0.231 C 
ATOM     22  O   UNL     1      -1.481  -0.365   2.224  0.00  0.00    -0.274 OA
ATOM     23  H   UNL     1      -1.810  -0.743  -0.822  0.00  0.00    +0.149 HD
BRANCH  20  25
ATOM     24  C   UNL     1      -0.019   1.526   0.010  0.00  0.00    +0.033 C 
ATOM     25  C   UNL     1       0.002  -0.004   0.002  0.00  0.00    +0.103 C 
BRANCH  25  26
ATOM     26  C   UNL     1       0.707  -0.490  -1.238  0.00  0.00    +0.008 A 
ATOM     27  C   UNL     1      -0.023  -0.817  -2.365  0.00  0.00    +0.011 A 
ATOM     28  C   UNL     1       0.623  -1.262  -3.503  0.00  0.00    +0.039 A 
ATOM     29  C   UNL     1       2.002  -1.382  -3.515  0.00  0.00    +0.126 A 
ATOM     30  C   UNL     1       2.735  -1.055  -2.387  0.00  0.00    +0.077 A 
ATOM     31  C   UNL     1       2.087  -0.603  -1.250  0.00  0.00    +0.131 A 
ATOM     32  F   UNL     1       2.801  -0.278  -0.150  0.00  0.00    -0.205 F 
ATOM     33  F   UNL     1       2.633  -1.818  -4.627  0.00  0.00    -0.205 F 
ENDBRANCH  25  26
ENDBRANCH  20  25
ENDBRANCH  19  21
ENDBRANCH   1  19
TORSDOF 6
