REMARK  Name = ZINC04332057
REMARK  6 active torsions:
REMARK  status: ('A' for Active; 'I' for Inactive)
REMARK    1  A    between atoms: C_8  and  C_10
REMARK    2  A    between atoms: C_10  and  O_12
REMARK    3  A    between atoms: O_12  and  C_13
REMARK    4  A    between atoms: C_13  and  C_14
REMARK    5  A    between atoms: N_16  and  C_17
REMARK    6  A    between atoms: C_20  and  N_24
REMARK                            x       y       z     vdW  Elec       q    Type
REMARK                         _______ _______ _______ _____ _____    ______ ____
ROOT
ATOM      1  C   UNL     1       7.275   5.365  -0.031  0.00  0.00    +0.255 C 
ATOM      2  O   UNL     1       6.468   6.271  -0.022  0.00  0.00    -0.272 OA
ATOM      3  N   UNL     1       8.595   5.638  -0.048  0.00  0.00    -0.281 N 
ATOM      4  H   UNL     1       9.240   4.916   0.010  0.00  0.00    +0.155 HD
ENDROOT
BRANCH   3   5
ATOM      5  C   UNL     1       9.034   6.963  -0.151  0.00  0.00    +0.052 A 
ATOM      6  C   UNL     1       8.312   7.984   0.453  0.00  0.00    +0.027 A 
ATOM      7  C   UNL     1       8.748   9.290   0.350  0.00  0.00    +0.034 A 
ATOM      8  C   UNL     1       9.903   9.583  -0.353  0.00  0.00    +0.128 A 
ATOM      9  C   UNL     1      10.624   8.569  -0.956  0.00  0.00    +0.054 A 
ATOM     10  C   UNL     1      10.197   7.259  -0.852  0.00  0.00    +0.064 A 
ATOM     11 CL   UNL     1      11.107   5.985  -1.603  0.00  0.00    -0.082 Cl
BRANCH   8  12
ATOM     12  N   UNL     1      10.367  10.984  -0.461  0.00  0.00    +0.056 N 
ATOM     13  O   UNL     1       9.733  11.878   0.070  0.00  0.00    -0.126 OA
ATOM     14  O   UNL     1      11.383  11.243  -1.080  0.00  0.00    -0.126 OA
ENDBRANCH   8  12
ENDBRANCH   3   5
BRANCH   1  15
ATOM     15  C   UNL     1       6.801   3.934  -0.022  0.00  0.00    +0.328 C 
BRANCH  15  16
ATOM     16  O   UNL     1       5.349   3.905  -0.004  0.00  0.00    -0.450 OA
BRANCH  16  17
ATOM     17  C   UNL     1       4.762   2.692   0.006  0.00  0.00    +0.375 C 
ATOM     18  O   UNL     1       5.444   1.685  -0.001  0.00  0.00    -0.241 OA
BRANCH  17  26
ATOM     19  C   UNL     1      -1.204   1.750   0.079  0.00  0.00    +0.001 A 
ATOM     20  C   UNL     1      -1.230   3.138   0.083  0.00  0.00    +0.004 A 
ATOM     21  C   UNL     1      -0.059   3.864   0.066  0.00  0.00    +0.047 A 
ATOM     22  C   UNL     1       1.165   3.204   0.051  0.00  0.00    +0.136 A 
ATOM     23  C   UNL     1       1.185   1.797   0.053  0.00  0.00    +0.021 A 
ATOM     24  C   UNL     1      -0.014   1.079   0.070  0.00  0.00    +0.011 A 
ATOM     25  C   UNL     1       2.598   1.420   0.036  0.00  0.00    +0.065 A 
ATOM     26  C   UNL     1       3.297   2.585   0.025  0.00  0.00    +0.213 A 
ATOM     27  O   UNL     1       2.443   3.630   0.034  0.00  0.00    -0.448 OA
ENDBRANCH  17  26
ENDBRANCH  16  17
ENDBRANCH  15  16
ENDBRANCH   1  15
TORSDOF 6
