REMARK  Name = ZINC40921085
REMARK  10 active torsions:
REMARK  status: ('A' for Active; 'I' for Inactive)
REMARK    1  A    between atoms: C_1  and  C_2
REMARK    2  A    between atoms: C_3  and  C_27
REMARK    3  A    between atoms: C_4  and  C_12
REMARK    4  A    between atoms: C_15  and  O_18
REMARK    5  A    between atoms: O_18  and  C_19
REMARK    6  A    between atoms: C_19  and  C_20
REMARK    7  A    between atoms: C_27  and  O_29
REMARK    8  A    between atoms: O_29  and  C_30
REMARK    9  A    between atoms: C_30  and  C_31
REMARK   10  A    between atoms: C_30  and  C_32
REMARK                            x       y       z     vdW  Elec       q    Type
REMARK                         _______ _______ _______ _____ _____    ______ ____
ROOT
ATOM      1  C   UNL     1      -0.018   1.503   0.010  0.00  0.00    +0.061 C 
ATOM      2  C   UNL     1       0.002  -0.004   0.002  0.00  0.00    +0.020 C 
ATOM      3  C   UNL     1      -1.165  -0.668   0.004  0.00  0.00    +0.082 C 
ATOM      4  C   UNL     1      -1.255  -2.171   0.008  0.00  0.00    +0.181 C 
ATOM      5  N   UNL     1       0.058  -2.736  -0.277  0.00  0.00    -0.201 N 
ATOM      6  C   UNL     1       1.208  -2.011  -0.275  0.00  0.00    +0.240 A 
ATOM      7  N   UNL     1       2.180  -2.829  -0.561  0.00  0.00    -0.092 NA
ATOM      8  N   UNL     1       1.723  -4.020  -0.747  0.00  0.00    -0.021 NA
ATOM      9  N   UNL     1       0.438  -4.039  -0.592  0.00  0.00    -0.042 NA
ATOM     10  N   UNL     1       1.213  -0.650  -0.013  0.00  0.00    -0.286 N 
ATOM     11  H   UNL     1       2.041  -0.174   0.157  0.00  0.00    +0.155 HD
ENDROOT
BRANCH   4  12
ATOM     12  C   UNL     1      -1.723  -2.643   1.360  0.00  0.00    -0.018 A 
ATOM     13  C   UNL     1      -0.983  -2.345   2.489  0.00  0.00    +0.009 A 
ATOM     14  C   UNL     1      -1.410  -2.777   3.730  0.00  0.00    +0.046 A 
ATOM     15  C   UNL     1      -2.582  -3.510   3.843  0.00  0.00    +0.121 A 
ATOM     16  C   UNL     1      -3.324  -3.807   2.709  0.00  0.00    +0.046 A 
ATOM     17  C   UNL     1      -2.895  -3.368   1.471  0.00  0.00    +0.009 A 
BRANCH  15  18
ATOM     18  O   UNL     1      -3.004  -3.936   5.062  0.00  0.00    -0.487 OA
BRANCH  18  19
ATOM     19  C   UNL     1      -4.220  -4.686   5.103  0.00  0.00    +0.267 C 
BRANCH  19  20
ATOM     20  C   UNL     1      -4.526  -5.070   6.528  0.00  0.00    +0.025 A 
ATOM     21  C   UNL     1      -3.675  -4.683   7.546  0.00  0.00    +0.010 A 
ATOM     22  C   UNL     1      -3.956  -5.035   8.853  0.00  0.00    +0.001 A 
ATOM     23  C   UNL     1      -5.088  -5.774   9.143  0.00  0.00    +0.003 A 
ATOM     24  C   UNL     1      -5.940  -6.162   8.127  0.00  0.00    +0.039 A 
ATOM     25  C   UNL     1      -5.663  -5.805   6.818  0.00  0.00    +0.130 A 
ATOM     26  F   UNL     1      -6.498  -6.179   5.824  0.00  0.00    -0.205 F 
ENDBRANCH  19  20
ENDBRANCH  18  19
ENDBRANCH  15  18
ENDBRANCH   4  12
BRANCH   3  27
ATOM     27  C   UNL     1      -2.364   0.079   0.003  0.00  0.00    +0.339 C 
ATOM     28  O   UNL     1      -2.323   1.295   0.001  0.00  0.00    -0.245 OA
BRANCH  27  29
ATOM     29  O   UNL     1      -3.554  -0.556   0.005  0.00  0.00    -0.459 OA
BRANCH  29  30
ATOM     30  C   UNL     1      -4.726   0.262   0.004  0.00  0.00    +0.171 C 
ATOM     31  C   UNL     1      -5.860  -0.473  -0.715  0.00  0.00    +0.052 C 
ATOM     32  C   UNL     1      -5.144   0.556   1.446  0.00  0.00    +0.052 C 
ENDBRANCH  29  30
ENDBRANCH  27  29
ENDBRANCH   3  27
TORSDOF 7
