REMARK  Name = ZINC00865291
REMARK  10 active torsions:
REMARK  status: ('A' for Active; 'I' for Inactive)
REMARK    1  A    between atoms: C_1  and  C_2
REMARK    2  A    between atoms: C_2  and  O_3
REMARK    3  A    between atoms: O_3  and  C_4
REMARK    4  A    between atoms: C_4  and  C_6
REMARK    5  A    between atoms: C_10  and  N_11
REMARK    6  A    between atoms: C_12  and  C_14
REMARK    7  A    between atoms: C_14  and  N_15
REMARK    8  A    between atoms: C_16  and  C_24
REMARK    9  A    between atoms: C_17  and  N_21
REMARK   10  A    between atoms: C_18  and  C_20
REMARK                            x       y       z     vdW  Elec       q    Type
REMARK                         _______ _______ _______ _____ _____    ______ ____
ROOT
ATOM      1  C   UNL     1       1.325   2.061   0.001  0.00  0.00    +0.091 A 
ATOM      2  C   UNL     1       2.292   0.971  -0.011  0.00  0.00    -0.021 A 
ATOM      3  C   UNL     1       1.754  -0.267  -0.017  0.00  0.00    -0.004 A 
ATOM      4  S   UNL     1       0.002  -0.004   0.002  0.00  0.00    -0.077 S 
ATOM      5  C   UNL     1      -0.021   1.728   0.011  0.00  0.00    +0.086 A 
ATOM      6  C   UNL     1       2.476  -1.578  -0.048  0.00  0.00    +0.043 C 
ATOM      7  C   UNL     1       3.578  -1.576   1.020  0.00  0.00    +0.005 C 
ATOM      8  C   UNL     1       4.855  -1.024   0.393  0.00  0.00    +0.001 C 
ATOM      9  C   UNL     1       4.513   0.031  -0.656  0.00  0.00    +0.005 C 
ATOM     10  C   UNL     1       3.797   1.212  -0.010  0.00  0.00    +0.037 C 
ENDROOT
BRANCH   5  11
ATOM     11  N   UNL     1      -1.119   2.575   0.022  0.00  0.00    -0.278 N 
ATOM     12  C   UNL     1      -2.365   2.062   0.026  0.00  0.00    +0.239 C 
ATOM     13  O   UNL     1      -2.527   0.860   0.020  0.00  0.00    -0.273 OA
ATOM     14  H   UNL     1      -0.989   3.536   0.026  0.00  0.00    +0.155 HD
BRANCH  12  15
ATOM     15  C   UNL     1      -3.558   2.983   0.037  0.00  0.00    +0.239 C 
BRANCH  15  16
ATOM     16  N   UNL     1      -4.789   2.188   0.039  0.00  0.00    -0.257 N 
ATOM     17  C   UNL     1      -5.450   1.752   1.132  0.00  0.00    +0.067 A 
ATOM     18  C   UNL     1      -6.531   1.057   0.709  0.00  0.00    +0.169 A 
ATOM     19  C   UNL     1      -6.531   1.069  -0.690  0.00  0.00    +0.090 A 
ATOM     20  N   UNL     1      -5.490   1.752  -1.092  0.00  0.00    -0.173 NA
ATOM     21  C   UNL     1      -7.557   0.415  -1.579  0.00  0.00    +0.070 C 
ATOM     22  C   UNL     1      -5.054   1.994   2.565  0.00  0.00    +0.068 C 
BRANCH  18  23
ATOM     23  N   UNL     1      -7.537   0.400   1.574  0.00  0.00    +0.060 N 
ATOM     24  O   UNL     1      -8.523   1.015   1.938  0.00  0.00    -0.126 OA
ATOM     25  O   UNL     1      -7.378  -0.757   1.922  0.00  0.00    -0.126 OA
ENDBRANCH  18  23
ENDBRANCH  15  16
ENDBRANCH  12  15
ENDBRANCH   5  11
BRANCH   1  26
ATOM     26  C   UNL     1       1.759   3.459   0.001  0.00  0.00    +0.342 C 
ATOM     27  O   UNL     1       1.950   4.037   1.054  0.00  0.00    -0.245 OA
BRANCH  26  28
ATOM     28  O   UNL     1       1.948   4.107  -1.167  0.00  0.00    -0.461 OA
BRANCH  28  30
ATOM     29  C   UNL     1       2.539   6.054  -2.505  0.00  0.00    +0.048 C 
ATOM     30  C   UNL     1       2.379   5.491  -1.091  0.00  0.00    +0.229 C 
ENDBRANCH  28  30
ENDBRANCH  26  28
ENDBRANCH   1  26
TORSDOF 7
