REMARK  Name = ZINC13064478
REMARK  12 active torsions:
REMARK  status: ('A' for Active; 'I' for Inactive)
REMARK    1  A    between atoms: C_1  and  C_2
REMARK    2  A    between atoms: C_2  and  C_3
REMARK    3  A    between atoms: C_3  and  C_5
REMARK    4  A    between atoms: C_3  and  N_63
REMARK    5  A    between atoms: N_9  and  C_10
REMARK    6  A    between atoms: C_10  and  C_11
REMARK    7  A    between atoms: C_11  and  O_12
REMARK    8  A    between atoms: O_12  and  C_13
REMARK    9  A    between atoms: C_14  and  C_15
REMARK   10  A    between atoms: C_14  and  N_63
REMARK   11  A    between atoms: C_20  and  C_21
REMARK   12  A    between atoms: C_20  and  N_63
REMARK                            x       y       z     vdW  Elec       q    Type
REMARK                         _______ _______ _______ _____ _____    ______ ____
ROOT
ATOM      1  N   UNL     1      -2.159   1.114   1.166  0.00  0.00    +0.392 N 
ATOM      2  H   UNL     1      -2.680   1.512   1.956  0.00  0.00    -0.080 HD
ENDROOT
BRANCH   1   3
ATOM      3  C   UNL     1      -0.791   1.673   1.161  0.00  0.00    +0.003 C 
BRANCH   3   4
ATOM      4  C   UNL     1      -0.093   1.348  -0.134  0.00  0.00    +0.138 A 
ATOM      5  N   UNL     1      -0.599   1.435  -1.340  0.00  0.00    -0.115 NA
ATOM      6  N   UNL     1       0.308   1.071  -2.180  0.00  0.00    -0.023 NA
ATOM      7  N   UNL     1       1.380   0.755  -1.541  0.00  0.00    -0.044 NA
ATOM      8  N   UNL     1       1.175   0.918  -0.278  0.00  0.00    -0.229 N 
BRANCH   8   9
ATOM      9  C   UNL     1       2.139   0.676   0.799  0.00  0.00    +0.175 C 
BRANCH   9  10
ATOM     10  C   UNL     1       2.151  -0.813   1.148  0.00  0.00    +0.183 C 
BRANCH  10  11
ATOM     11  O   UNL     1       2.998  -1.031   2.278  0.00  0.00    -0.381 OA
ATOM     12  C   UNL     1       3.080  -2.397   2.688  0.00  0.00    +0.194 C 
ENDBRANCH  10  11
ENDBRANCH   9  10
ENDBRANCH   8   9
ENDBRANCH   3   4
BRANCH   3  14
ATOM     13  C   UNL     1      -1.533   3.523   2.668  0.00  0.00    +0.002 C 
ATOM     14  C   UNL     1      -0.880   3.192   1.325  0.00  0.00    -0.011 C 
ENDBRANCH   3  14
ENDBRANCH   1   3
BRANCH   1  15
ATOM     15  C   UNL     1      -2.103  -0.355   1.320  0.00  0.00    -0.034 C 
BRANCH  15  16
ATOM     16  C   UNL     1      -1.766  -0.679   2.752  0.00  0.00    -0.027 A 
ATOM     17  C   UNL     1      -2.601  -0.944   3.787  0.00  0.00    +0.009 A 
ATOM     18  C   UNL     1      -2.062  -1.219   5.030  0.00  0.00    +0.008 A 
ATOM     19  C   UNL     1      -0.715  -1.215   5.177  0.00  0.00    +0.045 A 
ATOM     20  S   UNL     1      -0.164  -0.821   3.526  0.00  0.00    -0.103 S 
ENDBRANCH  15  16
ENDBRANCH   1  15
BRANCH   1  21
ATOM     21  C   UNL     1      -2.853   1.464  -0.091  0.00  0.00    -0.036 C 
BRANCH  21  22
ATOM     22  C   UNL     1      -4.331   1.237   0.092  0.00  0.00    +0.001 A 
ATOM     23  C   UNL     1      -5.131   2.265   0.475  0.00  0.00    +0.017 A 
ATOM     24  C   UNL     1      -6.562   2.014   0.640  0.00  0.00    +0.002 A 
ATOM     25  C   UNL     1      -7.435   3.037   1.028  0.00  0.00    +0.059 A 
ATOM     26  C   UNL     1      -8.780   2.769   1.180  0.00  0.00    +0.163 A 
ATOM     27  C   UNL     1      -9.272   1.482   0.947  0.00  0.00    +0.164 A 
ATOM     28  C   UNL     1      -8.415   0.464   0.563  0.00  0.00    +0.075 A 
ATOM     29  C   UNL     1      -7.059   0.717   0.407  0.00  0.00    +0.053 A 
ATOM     30  N   UNL     1      -6.191  -0.286   0.026  0.00  0.00    -0.322 N 
ATOM     31  H   UNL     1      -6.534  -1.180  -0.134  0.00  0.00    +0.169 HD
ATOM     32  C   UNL     1      -4.878  -0.043  -0.128  0.00  0.00    +0.251 A 
ATOM     33  O   UNL     1      -4.141  -0.954  -0.466  0.00  0.00    -0.268 OA
ATOM     34  O   UNL     1     -10.597   1.210   1.091  0.00  0.00    -0.485 OA
ATOM     35  C   UNL     1     -11.371   2.155   1.837  0.00  0.00    +0.270 C 
ATOM     36  C   UNL     1     -11.015   3.565   1.345  0.00  0.00    +0.270 C 
ATOM     37  O   UNL     1      -9.616   3.775   1.562  0.00  0.00    -0.485 OA
ENDBRANCH  21  22
ENDBRANCH   1  21
TORSDOF 10
