REMARK  Name = ZINC21586814
REMARK  8 active torsions:
REMARK  status: ('A' for Active; 'I' for Inactive)
REMARK    1  A    between atoms: C_1  and  C_2
REMARK    2  A    between atoms: C_2  and  C_3
REMARK    3  A    between atoms: C_2  and  C_4
REMARK    4  A    between atoms: C_2  and  C_5
REMARK    5  A    between atoms: C_8  and  N_11
REMARK    6  A    between atoms: C_12  and  C_14
REMARK    7  A    between atoms: C_14  and  N_15
REMARK    8  A    between atoms: C_18  and  N_26
REMARK                            x       y       z     vdW  Elec       q    Type
REMARK                         _______ _______ _______ _____ _____    ______ ____
ROOT
ATOM      1  C   UNL     1       2.402   5.309   0.347  0.00  0.00    +0.209 C 
ENDROOT
BRANCH   1   2
ATOM      2  N   UNL     1       2.366   3.886   0.002  0.00  0.00    -0.256 N 
ATOM      3  C   UNL     1       1.152   3.184   0.001  0.00  0.00    +0.081 A 
ATOM      4  C   UNL     1      -0.057   3.861   0.009  0.00  0.00    +0.060 A 
ATOM      5  C   UNL     1      -1.243   3.150   0.009  0.00  0.00    +0.128 A 
ATOM      6  C   UNL     1      -1.225   1.768  -0.005  0.00  0.00    +0.036 A 
ATOM      7  C   UNL     1      -0.021   1.086  -0.006  0.00  0.00    +0.050 A 
ATOM      8  C   UNL     1       1.170   1.791  -0.007  0.00  0.00    +0.143 A 
ATOM      9  O   UNL     1       2.362   1.137  -0.017  0.00  0.00    -0.481 OA
ATOM     10  C   UNL     1       3.439   1.774  -0.710  0.00  0.00    +0.325 C 
ATOM     11  C   UNL     1       3.502   3.229  -0.321  0.00  0.00    +0.258 C 
ATOM     12  O   UNL     1       4.567   3.808  -0.298  0.00  0.00    -0.271 OA
BRANCH   5  13
ATOM     13  N   UNL     1      -2.535   3.872   0.016  0.00  0.00    +0.056 N 
ATOM     14  O   UNL     1      -2.553   5.090   0.022  0.00  0.00    -0.126 OA
ATOM     15  O   UNL     1      -3.581   3.247   0.017  0.00  0.00    -0.126 OA
ENDBRANCH   5  13
ENDBRANCH   1   2
BRANCH   1  17
ATOM     16  N   UNL     1       2.675   6.690   2.381  0.00  0.00    -0.284 N 
ATOM     17  C   UNL     1       2.608   5.461   1.832  0.00  0.00    +0.235 C 
ATOM     18  O   UNL     1       2.714   4.477   2.533  0.00  0.00    -0.274 OA
ATOM     19  H   UNL     1       2.655   7.582   1.737  0.00  0.00    +0.155 HD
BRANCH  16  23
ATOM     20  C   UNL     1       2.956   7.113   6.516  0.00  0.00    -0.042 A 
ATOM     21  C   UNL     1       3.578   6.050   5.888  0.00  0.00    +0.006 A 
ATOM     22  C   UNL     1       3.487   5.907   4.517  0.00  0.00    +0.023 A 
ATOM     23  C   UNL     1       2.769   6.832   3.770  0.00  0.00    +0.033 A 
ATOM     24  C   UNL     1       2.149   7.901   4.404  0.00  0.00    +0.023 A 
ATOM     25  C   UNL     1       2.240   8.036   5.775  0.00  0.00    +0.006 A 
BRANCH  20  27
ATOM     26  C   UNL     1       4.527   7.408   8.411  0.00  0.00    +0.015 C 
ATOM     27  C   UNL     1       3.057   7.266   8.012  0.00  0.00    -0.013 C 
ATOM     28  C   UNL     1       2.287   8.513   8.450  0.00  0.00    +0.015 C 
ATOM     29  C   UNL     1       2.461   6.032   8.692  0.00  0.00    +0.015 C 
ENDBRANCH  20  27
ENDBRANCH  16  23
ENDBRANCH   1  17
TORSDOF 5
