REMARK  Name = ZINC00708980
REMARK  8 active torsions:
REMARK  status: ('A' for Active; 'I' for Inactive)
REMARK    1  A    between atoms: C_1  and  C_2
REMARK    2  A    between atoms: C_3  and  C_18
REMARK    3  A    between atoms: C_4  and  C_10
REMARK    4  A    between atoms: C_13  and  O_16
REMARK    5  A    between atoms: O_16  and  C_17
REMARK    6  A    between atoms: N_20  and  C_21
REMARK    7  A    between atoms: C_24  and  O_27
REMARK    8  A    between atoms: O_27  and  C_28
REMARK                            x       y       z     vdW  Elec       q    Type
REMARK                         _______ _______ _______ _____ _____    ______ ____
ROOT
ATOM      1  C   UNL     1      -4.627   1.863  -2.485  0.00  0.00    +0.061 C 
ATOM      2  C   UNL     1      -3.917   1.733  -1.162  0.00  0.00    +0.017 C 
ATOM      3  C   UNL     1      -2.737   1.081  -1.103  0.00  0.00    +0.056 C 
ATOM      4  C   UNL     1      -2.057   0.972   0.247  0.00  0.00    +0.139 C 
ATOM      5  N   UNL     1      -2.745   1.592   1.392  0.00  0.00    -0.315 N 
ATOM      6  C   UNL     1      -3.923   2.210   1.174  0.00  0.00    +0.135 C 
ATOM      7  S   UNL     1      -4.734   2.935   2.496  0.00  0.00    -0.019 S 
ATOM      8  N   UNL     1      -4.479   2.276  -0.042  0.00  0.00    -0.300 N 
ATOM      9  H   UNL     1      -2.361   1.555   2.281  0.00  0.00    +0.149 HD
ATOM     10  H   UNL     1      -5.328   2.736  -0.133  0.00  0.00    +0.154 HD
ENDROOT
BRANCH   4  11
ATOM     11  C   UNL     1      -0.692   1.599   0.131  0.00  0.00    -0.022 A 
ATOM     12  C   UNL     1       0.385   0.837  -0.284  0.00  0.00    +0.009 A 
ATOM     13  C   UNL     1       1.637   1.410  -0.396  0.00  0.00    +0.046 A 
ATOM     14  C   UNL     1       1.814   2.751  -0.087  0.00  0.00    +0.120 A 
ATOM     15  C   UNL     1       0.734   3.513   0.334  0.00  0.00    +0.046 A 
ATOM     16  C   UNL     1      -0.516   2.934   0.445  0.00  0.00    +0.009 A 
BRANCH  14  17
ATOM     17  O   UNL     1       3.044   3.318  -0.198  0.00  0.00    -0.495 OA
ATOM     18  C   UNL     1       3.153   4.703   0.137  0.00  0.00    +0.277 C 
ENDBRANCH  14  17
ENDBRANCH   4  11
BRANCH   3  19
ATOM     19  C   UNL     1      -2.153   0.518  -2.264  0.00  0.00    +0.248 C 
ATOM     20  O   UNL     1      -1.978  -0.685  -2.335  0.00  0.00    -0.270 OA
ATOM     21  N   UNL     1      -1.791   1.313  -3.290  0.00  0.00    -0.282 N 
ATOM     22  H   UNL     1      -2.029   2.253  -3.283  0.00  0.00    +0.155 HD
BRANCH  21  23
ATOM     23  C   UNL     1      -1.072   0.782  -4.368  0.00  0.00    +0.034 A 
ATOM     24  C   UNL     1      -1.215  -0.557  -4.707  0.00  0.00    +0.027 A 
ATOM     25  C   UNL     1      -0.509  -1.079  -5.773  0.00  0.00    +0.047 A 
ATOM     26  C   UNL     1       0.351  -0.269  -6.498  0.00  0.00    +0.120 A 
ATOM     27  C   UNL     1       0.499   1.068  -6.158  0.00  0.00    +0.047 A 
ATOM     28  C   UNL     1      -0.210   1.593  -5.095  0.00  0.00    +0.027 A 
BRANCH  26  29
ATOM     29  O   UNL     1       1.050  -0.784  -7.545  0.00  0.00    -0.495 OA
ATOM     30  C   UNL     1       0.849  -2.168  -7.840  0.00  0.00    +0.277 C 
ENDBRANCH  26  29
ENDBRANCH  21  23
ENDBRANCH   3  19
TORSDOF 5
