REMARK  Name = ZINC44173880
REMARK  9 active torsions:
REMARK  status: ('A' for Active; 'I' for Inactive)
REMARK    1  A    between atoms: C_1  and  C_2
REMARK    2  A    between atoms: C_2  and  C_3
REMARK    3  A    between atoms: C_6  and  N_9
REMARK    4  A    between atoms: C_14  and  C_27
REMARK    5  A    between atoms: C_17  and  C_22
REMARK    6  A    between atoms: C_17  and  C_24
REMARK    7  A    between atoms: C_22  and  O_23
REMARK    8  A    between atoms: C_30  and  C_33
REMARK    9  A    between atoms: C_34  and  C_35
REMARK                            x       y       z     vdW  Elec       q    Type
REMARK                         _______ _______ _______ _____ _____    ______ ____
ROOT
ATOM      1  N   UNL     1       2.937  -1.700  -4.441  0.00  0.00    -0.210 N 
ATOM      2  C   UNL     1       2.185  -1.892  -5.574  0.00  0.00    +0.229 C 
ATOM      3  O   UNL     1       1.060  -1.496  -5.792  0.00  0.00    -0.275 OA
ATOM      4  C   UNL     1       3.032  -2.672  -6.446  0.00  0.00    +0.077 C 
ATOM      5  C   UNL     1       3.161  -3.034  -7.864  0.00  0.00    -0.027 C 
ATOM      6  N   UNL     1       4.579  -3.506  -7.999  0.00  0.00    +0.397 N 
ATOM      7  C   UNL     1       5.255  -3.283  -6.680  0.00  0.00    +0.071 C 
ATOM      8  C   UNL     1       4.462  -2.089  -6.109  0.00  0.00    +0.088 C 
ATOM      9  C   UNL     1       4.253  -2.020  -4.620  0.00  0.00    +0.229 C 
ATOM     10  O   UNL     1       5.083  -2.212  -3.758  0.00  0.00    -0.275 OA
ATOM     11  H   UNL     1       4.592  -4.488  -8.229  0.00  0.00    -0.083 HD
ATOM     12  H   UNL     1       5.048  -2.977  -8.719  0.00  0.00    -0.083 HD
ENDROOT
BRANCH   1  16
ATOM     13  C   UNL     1       1.377  -0.276  -0.848  0.00  0.00    -0.048 A 
ATOM     14  C   UNL     1       0.547  -0.446  -1.941  0.00  0.00    +0.005 A 
ATOM     15  C   UNL     1       1.062  -0.918  -3.133  0.00  0.00    +0.024 A 
ATOM     16  C   UNL     1       2.413  -1.221  -3.233  0.00  0.00    +0.044 A 
ATOM     17  C   UNL     1       3.243  -1.048  -2.134  0.00  0.00    +0.024 A 
ATOM     18  C   UNL     1       2.724  -0.572  -0.946  0.00  0.00    +0.005 A 
BRANCH  13  20
ATOM     19  C   UNL     1       0.888   1.766   0.471  0.00  0.00    +0.009 C 
ATOM     20  C   UNL     1       0.813   0.238   0.452  0.00  0.00    +0.032 C 
ENDBRANCH  13  20
ENDBRANCH   1  16
BRANCH   5  21
ATOM     21  C   UNL     1       2.917  -1.832  -8.739  0.00  0.00    -0.061 A 
ATOM     22  C   UNL     1       3.928  -0.907  -8.936  0.00  0.00    +0.002 A 
ATOM     23  C   UNL     1       3.713   0.196  -9.736  0.00  0.00    +0.008 A 
ATOM     24  C   UNL     1       2.470   0.378 -10.348  0.00  0.00    -0.025 A 
ATOM     25  C   UNL     1       1.454  -0.560 -10.145  0.00  0.00    +0.008 A 
ATOM     26  C   UNL     1       1.686  -1.660  -9.347  0.00  0.00    +0.002 A 
BRANCH  24  27
ATOM     27  C   UNL     1       2.232   1.554 -11.204  0.00  0.00    +0.008 C 
ATOM     28  C   UNL     1       1.037   1.726 -11.791  0.00  0.00    +0.008 C 
BRANCH  28  29
ATOM     29  C   UNL     1       0.799   2.903 -12.647  0.00  0.00    -0.025 A 
ATOM     30  C   UNL     1       1.817   3.838 -12.854  0.00  0.00    +0.008 A 
ATOM     31  C   UNL     1       1.587   4.936 -13.656  0.00  0.00    +0.001 A 
ATOM     32  C   UNL     1       0.352   5.112 -14.256  0.00  0.00    +0.000 A 
ATOM     33  C   UNL     1      -0.660   4.191 -14.055  0.00  0.00    +0.001 A 
ATOM     34  C   UNL     1      -0.443   3.085 -13.259  0.00  0.00    +0.008 A 
ENDBRANCH  28  29
ENDBRANCH  24  27
ENDBRANCH   5  21
BRANCH   7  35
ATOM     35  C   UNL     1       6.701  -2.907  -6.878  0.00  0.00    +0.348 C 
ATOM     36  O   UNL     1       7.167  -2.849  -8.004  0.00  0.00    -0.248 OA
ATOM     37  O   UNL     1       7.405  -2.661  -5.914  0.00  0.00    -0.248 OA
ENDBRANCH   7  35
BRANCH   7  38
ATOM     38  C   UNL     1       5.133  -4.522  -5.791  0.00  0.00    +0.155 C 
BRANCH  38  39
ATOM     39  O   UNL     1       5.769  -5.631  -6.429  0.00  0.00    -0.396 OA
ATOM     40  H   UNL     1       5.730  -6.453  -5.921  0.00  0.00    +0.209 HD
ENDBRANCH  38  39
ENDBRANCH   7  38
TORSDOF 8
