REMARK  Name = ZINC39007120
REMARK  11 active torsions:
REMARK  status: ('A' for Active; 'I' for Inactive)
REMARK    1  A    between atoms: C_1  and  C_2
REMARK    2  A    between atoms: C_2  and  O_3
REMARK    3  A    between atoms: O_3  and  C_4
REMARK    4  A    between atoms: C_9  and  C_26
REMARK    5  A    between atoms: C_11  and  N_14
REMARK    6  A    between atoms: C_15  and  C_17
REMARK    7  A    between atoms: C_17  and  N_18
REMARK    8  A    between atoms: C_22  and  C_25
REMARK    9  A    between atoms: C_26  and  O_28
REMARK   10  A    between atoms: O_28  and  C_29
REMARK   11  A    between atoms: C_29  and  C_30
REMARK                            x       y       z     vdW  Elec       q    Type
REMARK                         _______ _______ _______ _____ _____    ______ ____
ROOT
ATOM      1  C   UNL     1       1.593  -2.144  -0.017  0.00  0.00    +0.121 A 
ATOM      2  C   UNL     1       1.712  -3.205  -0.925  0.00  0.00    +0.047 A 
ATOM      3  C   UNL     1       2.035  -4.457  -0.523  0.00  0.00    +0.029 A 
ATOM      4  C   UNL     1       2.263  -4.722   0.853  0.00  0.00    +0.045 A 
ATOM      5  N   UNL     1       2.584  -5.833   1.485  0.00  0.00    -0.367 N 
ATOM      6  C   UNL     1       2.700  -5.551   2.919  0.00  0.00    +0.234 C 
ATOM      7  C   UNL     1       2.399  -4.077   3.080  0.00  0.00    +0.053 C 
ATOM      8  C   UNL     1       2.138  -3.606   1.806  0.00  0.00    +0.021 A 
ATOM      9  C   UNL     1       1.802  -2.321   1.314  0.00  0.00    +0.057 A 
ATOM     10  H   UNL     1       2.720  -6.698   1.069  0.00  0.00    +0.161 HD
ENDROOT
BRANCH   7  11
ATOM     11  N   UNL     1       2.386  -3.362   4.241  0.00  0.00    -0.288 N 
ATOM     12  C   UNL     1       2.768  -3.943   5.395  0.00  0.00    +0.200 C 
ATOM     13  O   UNL     1       3.200  -5.076   5.389  0.00  0.00    -0.278 OA
ATOM     14  H   UNL     1       2.102  -2.435   4.236  0.00  0.00    +0.155 HD
BRANCH  12  15
ATOM     15  C   UNL     1       2.659  -3.186   6.693  0.00  0.00    +0.019 C 
BRANCH  15  16
ATOM     16  N   UNL     1       3.248  -3.984   7.777  0.00  0.00    +0.386 N 
ATOM     17  C   UNL     1       2.388  -5.141   8.052  0.00  0.00    -0.078 C 
ATOM     18  C   UNL     1       3.036  -6.020   9.124  0.00  0.00    -0.018 C 
ATOM     19  C   UNL     1       3.218  -5.201  10.406  0.00  0.00    -0.001 C 
ATOM     20  C   UNL     1       4.054  -3.957  10.091  0.00  0.00    -0.031 C 
ATOM     21  C   UNL     1       3.368  -3.155   8.983  0.00  0.00    -0.075 C 
ATOM     22  C   UNL     1       4.177  -3.093  11.347  0.00  0.00    +0.005 C 
ATOM     23  H   UNL     1       4.162  -4.305   7.499  0.00  0.00    -0.081 HD
ENDBRANCH  15  16
ENDBRANCH  12  15
ENDBRANCH   7  11
BRANCH   6  24
ATOM     24  C   UNL     1       1.702  -6.374   3.693  0.00  0.00    +0.336 C 
ATOM     25  O   UNL     1       0.576  -6.506   3.276  0.00  0.00    -0.248 OA
BRANCH  24  26
ATOM     26  O   UNL     1       2.065  -6.960   4.845  0.00  0.00    -0.463 OA
BRANCH  26  27
ATOM     27  C   UNL     1       1.079  -7.757   5.505  0.00  0.00    +0.229 C 
ATOM     28  C   UNL     1       1.681  -8.364   6.774  0.00  0.00    +0.048 C 
ENDBRANCH  26  27
ENDBRANCH  24  26
ENDBRANCH   6  24
BRANCH   1  29
ATOM     29  O   UNL     1       1.265  -0.907  -0.480  0.00  0.00    -0.492 OA
BRANCH  29  31
ATOM     30  C   UNL     1       0.699   0.675  -2.216  0.00  0.00    +0.048 C 
ATOM     31  C   UNL     1       1.056  -0.775  -1.887  0.00  0.00    +0.225 C 
ENDBRANCH  29  31
ENDBRANCH   1  29
TORSDOF 8
