REMARK  Name = ZINC08426295
REMARK  11 active torsions:
REMARK  status: ('A' for Active; 'I' for Inactive)
REMARK    1  A    between atoms: C_1  and  C_2
REMARK    2  A    between atoms: C_5  and  C_8
REMARK    3  A    between atoms: C_8  and  C_10
REMARK    4  A    between atoms: C_11  and  O_33
REMARK    5  A    between atoms: N_14  and  C_26
REMARK    6  A    between atoms: C_15  and  C_17
REMARK    7  A    between atoms: C_26  and  C_27
REMARK    8  A    between atoms: C_27  and  C_28
REMARK    9  A    between atoms: C_28  and  C_29
REMARK   10  A    between atoms: C_29  and  C_30
REMARK   11  A    between atoms: C_30  and  C_31
REMARK                            x       y       z     vdW  Elec       q    Type
REMARK                         _______ _______ _______ _____ _____    ______ ____
ROOT
ATOM      1  C   UNL     1       3.161   1.172   1.322  0.00  0.00    +0.071 C 
ATOM      2  C   UNL     1       4.349   1.778   1.089  0.00  0.00    +0.188 C 
ATOM      3  C   UNL     1       4.465   2.081  -0.353  0.00  0.00    +0.282 C 
ATOM      4  O   UNL     1       5.417   2.624  -0.877  0.00  0.00    -0.267 OA
ATOM      5  N   UNL     1       3.360   1.667  -0.999  0.00  0.00    -0.284 N 
ATOM      6  C   UNL     1       2.457   1.067  -0.011  0.00  0.00    +0.145 C 
ENDROOT
BRANCH   6   7
ATOM      7  C   UNL     1       1.155   1.825   0.030  0.00  0.00    -0.019 A 
ATOM      8  C   UNL     1       1.163   3.205   0.116  0.00  0.00    +0.009 A 
ATOM      9  C   UNL     1      -0.028   3.905   0.153  0.00  0.00    +0.050 A 
ATOM     10  C   UNL     1      -1.234   3.225   0.104  0.00  0.00    +0.166 A 
ATOM     11  C   UNL     1      -1.242   1.835   0.013  0.00  0.00    +0.167 A 
ATOM     12  C   UNL     1      -0.044   1.140  -0.019  0.00  0.00    +0.055 A 
ATOM     13  O   UNL     1      -2.538   1.408  -0.027  0.00  0.00    -0.453 OA
ATOM     14  C   UNL     1      -3.315   2.570  -0.375  0.00  0.00    +0.466 C 
ATOM     15  O   UNL     1      -2.525   3.669   0.125  0.00  0.00    -0.453 OA
ENDBRANCH   6   7
BRANCH   1  16
ATOM     16  C   UNL     1       2.654   0.709   2.618  0.00  0.00    +0.195 C 
ATOM     17  O   UNL     1       2.395   1.514   3.492  0.00  0.00    -0.287 OA
BRANCH  16  22
ATOM     18  C   UNL     1       1.893  -4.916   3.566  0.00  0.00    +0.044 C 
ATOM     19  C   UNL     1       2.092  -3.443   3.317  0.00  0.00    -0.050 A 
ATOM     20  C   UNL     1       1.689  -2.523   4.270  0.00  0.00    +0.004 A 
ATOM     21  C   UNL     1       1.869  -1.173   4.049  0.00  0.00    +0.012 A 
ATOM     22  C   UNL     1       2.459  -0.736   2.861  0.00  0.00    +0.022 A 
ATOM     23  C   UNL     1       2.858  -1.669   1.902  0.00  0.00    +0.012 A 
ATOM     24  C   UNL     1       2.677  -3.016   2.138  0.00  0.00    +0.004 A 
ENDBRANCH  16  22
ENDBRANCH   1  16
BRANCH   2  25
ATOM     25  O   UNL     1       5.282   2.060   2.027  0.00  0.00    -0.502 OA
ATOM     26  H   UNL     1       6.065   2.507   1.595  0.00  0.00    +0.292 HD
ENDBRANCH   2  25
BRANCH   5  27
ATOM     27  C   UNL     1       3.104   1.792  -2.436  0.00  0.00    +0.109 C 
BRANCH  27  28
ATOM     28  C   UNL     1       2.403   3.123  -2.715  0.00  0.00    +0.019 C 
BRANCH  28  29
ATOM     29  C   UNL     1       2.135   3.254  -4.216  0.00  0.00    +0.002 C 
BRANCH  29  30
ATOM     30  C   UNL     1       1.434   4.585  -4.494  0.00  0.00    +0.011 C 
BRANCH  30  31
ATOM     31  C   UNL     1       1.167   4.716  -5.995  0.00  0.00    +0.125 C 
BRANCH  31  32
ATOM     32  C   UNL     1       0.476   6.027  -6.269  0.00  0.00    +0.356 C 
ATOM     33  O   UNL     1       0.223   6.780  -5.358  0.00  0.00    -0.246 OA
ATOM     34  O   UNL     1       0.141   6.359  -7.526  0.00  0.00    -0.246 OA
ENDBRANCH  31  32
ENDBRANCH  30  31
ENDBRANCH  29  30
ENDBRANCH  28  29
ENDBRANCH  27  28
ENDBRANCH   5  27
TORSDOF 10
