REMARK  Name = ZINC67453053
REMARK  5 active torsions:
REMARK  status: ('A' for Active; 'I' for Inactive)
REMARK    1  A    between atoms: C_3  and  C_24
REMARK    2  A    between atoms: C_5  and  N_7
REMARK    3  A    between atoms: N_7  and  C_8
REMARK    4  A    between atoms: N_12  and  C_15
REMARK    5  A    between atoms: C_19  and  N_21
REMARK                            x       y       z     vdW  Elec       q    Type
REMARK                         _______ _______ _______ _____ _____    ______ ____
ROOT
ATOM      1  C   UNL     1      -0.019  -2.830  -0.012  0.00  0.00    +0.159 C 
ATOM      2  C   UNL     1       0.196  -4.248  -0.592  0.00  0.00    +0.051 C 
ATOM      3  C   UNL     1      -0.746  -5.095   0.292  0.00  0.00    +0.116 C 
ATOM      4  N   UNL     1      -0.876  -4.352   1.551  0.00  0.00    -0.270 N 
ATOM      5  C   UNL     1      -0.481  -3.073   1.407  0.00  0.00    +0.240 C 
ATOM      6  O   UNL     1      -0.492  -2.237   2.287  0.00  0.00    -0.273 OA
ENDROOT
BRANCH   4   7
ATOM      7  C   UNL     1      -1.351  -4.902   2.747  0.00  0.00    +0.038 A 
ATOM      8  C   UNL     1      -1.732  -6.236   2.796  0.00  0.00    +0.023 A 
ATOM      9  C   UNL     1      -2.200  -6.776   3.978  0.00  0.00    +0.004 A 
ATOM     10  C   UNL     1      -2.289  -5.989   5.112  0.00  0.00    +0.033 A 
ATOM     11  C   UNL     1      -1.910  -4.660   5.066  0.00  0.00    +0.128 A 
ATOM     12  C   UNL     1      -1.437  -4.115   3.888  0.00  0.00    +0.056 A 
BRANCH  11  13
ATOM     13  N   UNL     1      -2.008  -3.821   6.281  0.00  0.00    +0.056 N 
ATOM     14  O   UNL     1      -2.418  -4.298   7.314  0.00  0.00    -0.126 OA
ATOM     15  O   UNL     1      -1.677  -2.659   6.242  0.00  0.00    -0.126 OA
ENDBRANCH  11  13
ENDBRANCH   4   7
BRANCH   1  16
ATOM     16  N   UNL     1       1.238  -2.077  -0.021  0.00  0.00    -0.333 N 
ATOM     17  H   UNL     1       2.086  -2.549  -0.032  0.00  0.00    +0.147 HD
BRANCH  16  22
ATOM     18  C   UNL     1      -0.017   1.377   0.010  0.00  0.00    +0.002 A 
ATOM     19  C   UNL     1       1.171   2.086   0.002  0.00  0.00    +0.009 A 
ATOM     20  C   UNL     1       2.380   1.416  -0.013  0.00  0.00    +0.019 A 
ATOM     21  C   UNL     1       2.406   0.035  -0.021  0.00  0.00    +0.032 A 
ATOM     22  C   UNL     1       1.215  -0.681  -0.013  0.00  0.00    +0.028 A 
ATOM     23  C   UNL     1       0.002  -0.004   0.002  0.00  0.00    +0.023 A 
BRANCH  20  24
ATOM     24  C   UNL     1       3.671   2.193  -0.023  0.00  0.00    +0.372 C 
ATOM     25  F   UNL     1       3.488   3.409   0.645  0.00  0.00    -0.204 F 
ATOM     26  F   UNL     1       4.666   1.451   0.623  0.00  0.00    -0.204 F 
ENDBRANCH  20  24
ENDBRANCH  16  22
ENDBRANCH   1  16
TORSDOF 5
