REMARK  Name = ZINC27905332
REMARK  9 active torsions:
REMARK  status: ('A' for Active; 'I' for Inactive)
REMARK    1  A    between atoms: C_1  and  C_2
REMARK    2  A    between atoms: C_3  and  C_14
REMARK    3  A    between atoms: C_4  and  C_7
REMARK    4  A    between atoms: C_14  and  O_15
REMARK    5  A    between atoms: O_15  and  N_16
REMARK    6  A    between atoms: N_16  and  C_17
REMARK    7  A    between atoms: C_24  and  C_30
REMARK    8  A    between atoms: C_26  and  C_28
REMARK    9  A    between atoms: C_26  and  C_29
REMARK                            x       y       z     vdW  Elec       q    Type
REMARK                         _______ _______ _______ _____ _____    ______ ____
ROOT
ATOM      1  O   UNL     1      -1.230   4.675   0.179  0.00  0.00    -0.294 OA
ENDROOT
BRANCH   1   2
ATOM      2  N   UNL     1      -0.790   5.901  -0.488  0.00  0.00    -0.186 NA
ATOM      3  H   UNL     1      -0.508   6.598   0.185  0.00  0.00    +0.155 HD
BRANCH   2   4
ATOM      4  C   UNL     1      -1.836   6.420  -1.379  0.00  0.00    +0.197 C 
ATOM      5  C   UNL     1      -1.783   7.937  -1.571  0.00  0.00    +0.163 C 
ATOM      6  N   UNL     1      -1.634   7.671  -3.023  0.00  0.00    -0.271 N 
ATOM      7  C   UNL     1      -1.492   6.317  -2.850  0.00  0.00    +0.239 C 
ATOM      8  O   UNL     1      -1.203   5.397  -3.585  0.00  0.00    -0.274 OA
ATOM      9  C   UNL     1      -2.801   8.096  -3.847  0.00  0.00    +0.206 C 
ATOM     10  C   UNL     1      -3.571   9.279  -3.197  0.00  0.00    +0.042 C 
ATOM     11  S   UNL     1      -3.415   8.770  -1.427  0.00  0.00    -0.128 S 
ATOM     12  C   UNL     1      -5.033   9.313  -3.646  0.00  0.00    +0.025 C 
ATOM     13  C   UNL     1      -2.875  10.616  -3.462  0.00  0.00    +0.025 C 
BRANCH   9  14
ATOM     14  C   UNL     1      -2.297   8.522  -5.201  0.00  0.00    +0.377 C 
ATOM     15  O   UNL     1      -1.146   8.862  -5.338  0.00  0.00    -0.244 OA
ATOM     16  O   UNL     1      -3.127   8.524  -6.256  0.00  0.00    -0.244 OA
ENDBRANCH   9  14
ENDBRANCH   2   4
ENDBRANCH   1   2
BRANCH   1  17
ATOM     17  C   UNL     1      -0.258   4.114   1.063  0.00  0.00    +0.226 C 
BRANCH  17  20
ATOM     18  C   UNL     1      -0.252   1.169  -0.139  0.00  0.00    +0.089 C 
ATOM     19  C   UNL     1      -0.816   1.607   1.188  0.00  0.00    +0.140 A 
ATOM     20  C   UNL     1      -0.814   2.862   1.692  0.00  0.00    +0.049 A 
ATOM     21  C   UNL     1      -1.461   2.727   2.951  0.00  0.00    +0.120 A 
ATOM     22  N   UNL     1      -1.765   1.458   3.071  0.00  0.00    -0.078 NA
ATOM     23  O   UNL     1      -1.413   0.827   2.101  0.00  0.00    -0.359 OA
BRANCH  21  24
ATOM     24  C   UNL     1      -1.733   3.805   3.935  0.00  0.00    +0.022 A 
ATOM     25  C   UNL     1      -2.288   5.012   3.514  0.00  0.00    +0.011 A 
ATOM     26  C   UNL     1      -2.543   6.009   4.433  0.00  0.00    +0.001 A 
ATOM     27  C   UNL     1      -2.238   5.817   5.769  0.00  0.00    +0.001 A 
ATOM     28  C   UNL     1      -1.682   4.624   6.192  0.00  0.00    +0.020 A 
ATOM     29  C   UNL     1      -1.428   3.616   5.282  0.00  0.00    +0.050 A 
ATOM     30 CL   UNL     1      -0.729   2.119   5.814  0.00  0.00    -0.083 Cl
ENDBRANCH  21  24
ENDBRANCH  17  20
ENDBRANCH   1  17
TORSDOF 6
