REMARK  Name = ZINC48552430
REMARK  8 active torsions:
REMARK  status: ('A' for Active; 'I' for Inactive)
REMARK    1  A    between atoms: C_1  and  C_2
REMARK    2  A    between atoms: C_5  and  N_11
REMARK    3  A    between atoms: C_6  and  N_8
REMARK    4  A    between atoms: C_12  and  C_14
REMARK    5  A    between atoms: C_16  and  C_17
REMARK    6  A    between atoms: C_16  and  C_28
REMARK    7  A    between atoms: C_28  and  C_30
REMARK    8  A    between atoms: C_34  and  N_36
REMARK                            x       y       z     vdW  Elec       q    Type
REMARK                         _______ _______ _______ _____ _____    ______ ____
ROOT
ATOM      1  C   UNL     1      -0.062  -6.704  -1.009  0.00  0.00    +0.251 C 
ATOM      2  O   UNL     1      -0.285  -7.383   0.139  0.00  0.00    -0.282 OA
ATOM      3  C   UNL     1      -0.340  -7.281  -2.202  0.00  0.00    +0.096 C 
ENDROOT
BRANCH   3   4
ATOM      4  C   UNL     1      -0.839  -8.702  -2.253  0.00  0.00    +0.245 C 
ATOM      5  C   UNL     1       0.143  -9.566  -3.003  0.00  0.00    +0.011 A 
ATOM      6  C   UNL     1       1.463  -9.894  -2.802  0.00  0.00    +0.008 A 
ATOM      7  C   UNL     1       2.110 -10.736  -3.692  0.00  0.00    +0.000 A 
ATOM      8  C   UNL     1       1.432 -11.249  -4.784  0.00  0.00    +0.001 A 
ATOM      9  C   UNL     1       0.107 -10.927  -4.995  0.00  0.00    +0.015 A 
ATOM     10  C   UNL     1      -0.550 -10.079  -4.103  0.00  0.00    +0.066 A 
ATOM     11  C   UNL     1      -1.927  -9.554  -4.048  0.00  0.00    +0.340 C 
ATOM     12  O   UNL     1      -2.800  -9.802  -4.855  0.00  0.00    -0.245 OA
ATOM     13  O   UNL     1      -2.074  -8.761  -2.972  0.00  0.00    -0.448 OA
ENDBRANCH   3   4
BRANCH   1  15
ATOM     14  N   UNL     1       0.758  -4.752   0.226  0.00  0.00    -0.277 N 
ATOM     15  C   UNL     1       0.487  -5.329  -0.962  0.00  0.00    +0.289 C 
ATOM     16  O   UNL     1       0.694  -4.721  -1.993  0.00  0.00    -0.266 OA
ATOM     17  H   UNL     1       0.667  -5.263   1.045  0.00  0.00    +0.155 HD
BRANCH  14  22
ATOM     18  C   UNL     1       2.426   0.664   0.434  0.00  0.00    +0.044 C 
ATOM     19  C   UNL     1       1.983  -0.775   0.378  0.00  0.00    -0.048 A 
ATOM     20  C   UNL     1       1.190  -1.213  -0.666  0.00  0.00    +0.005 A 
ATOM     21  C   UNL     1       0.782  -2.531  -0.720  0.00  0.00    +0.026 A 
ATOM     22  C   UNL     1       1.169  -3.418   0.277  0.00  0.00    +0.064 A 
ATOM     23  C   UNL     1       1.966  -2.974   1.325  0.00  0.00    +0.148 A 
ATOM     24  C   UNL     1       2.375  -1.656   1.369  0.00  0.00    +0.038 A 
BRANCH  23  25
ATOM     25  N   UNL     1       2.381  -3.915   2.389  0.00  0.00    +0.058 N 
ATOM     26  O   UNL     1       2.989  -3.509   3.352  0.00  0.00    -0.126 OA
ATOM     27  O   UNL     1       2.112  -5.090   2.296  0.00  0.00    -0.126 OA
ENDBRANCH  23  25
ENDBRANCH  14  22
ENDBRANCH   1  15
BRANCH   3  28
ATOM     28  C   UNL     1      -0.156  -6.524  -3.443  0.00  0.00    +0.197 C 
ATOM     29  O   UNL     1       0.846  -6.687  -4.113  0.00  0.00    -0.287 OA
BRANCH  28  30
ATOM     30  C   UNL     1      -1.189  -5.560  -3.881  0.00  0.00    +0.024 A 
ATOM     31  C   UNL     1      -2.309  -5.321  -3.082  0.00  0.00    +0.012 A 
ATOM     32  C   UNL     1      -3.268  -4.421  -3.496  0.00  0.00    +0.003 A 
ATOM     33  C   UNL     1      -3.122  -3.755  -4.701  0.00  0.00    +0.033 A 
ATOM     34  C   UNL     1      -2.015  -3.987  -5.497  0.00  0.00    +0.127 A 
ATOM     35  C   UNL     1      -1.045  -4.881  -5.092  0.00  0.00    +0.044 A 
BRANCH  34  36
ATOM     36  N   UNL     1      -1.868  -3.271  -6.784  0.00  0.00    +0.056 N 
ATOM     37  O   UNL     1      -2.715  -2.484  -7.138  0.00  0.00    -0.126 OA
ATOM     38  O   UNL     1      -0.901  -3.473  -7.481  0.00  0.00    -0.126 OA
ENDBRANCH  34  36
ENDBRANCH  28  30
ENDBRANCH   3  28
TORSDOF 7
