REMARK  Name = ZINC39595676
REMARK  7 active torsions:
REMARK  status: ('A' for Active; 'I' for Inactive)
REMARK    1  A    between atoms: C_1  and  C_2
REMARK    2  A    between atoms: C_2  and  C_4
REMARK    3  A    between atoms: C_2  and  O_29
REMARK    4  A    between atoms: C_4  and  N_5
REMARK    5  A    between atoms: C_6  and  C_8
REMARK    6  A    between atoms: C_19  and  C_21
REMARK    7  A    between atoms: O_29  and  C_30
REMARK                            x       y       z     vdW  Elec       q    Type
REMARK                         _______ _______ _______ _____ _____    ______ ____
ROOT
ATOM      1  C   UNL     1      -2.128  -2.859  -0.435  0.00  0.00    +0.100 C 
ATOM      2  C   UNL     1      -1.592  -3.393   0.912  0.00  0.00    +0.121 C 
ATOM      3  N   UNL     1      -2.801  -3.821   1.654  0.00  0.00    -0.296 N 
ATOM      4  C   UNL     1      -3.663  -4.447   0.623  0.00  0.00    +0.115 C 
ATOM      5  C   UNL     1      -3.486  -3.556  -0.623  0.00  0.00    -0.004 C 
ATOM      6  C   UNL     1      -4.606  -2.521  -0.694  0.00  0.00    -0.010 C 
ATOM      7  C   UNL     1      -5.939  -3.234  -0.938  0.00  0.00    -0.082 C 
ATOM      8  N   UNL     1      -5.867  -3.994  -2.192  0.00  0.00    +0.379 N 
ATOM      9  C   UNL     1      -4.851  -5.047  -2.082  0.00  0.00    -0.082 C 
ATOM     10  C   UNL     1      -3.472  -4.411  -1.886  0.00  0.00    -0.010 C 
ATOM     11  C   UNL     1      -3.059  -3.675   2.968  0.00  0.00    +0.249 C 
ATOM     12  O   UNL     1      -2.285  -3.059   3.675  0.00  0.00    -0.270 OA
ATOM     13  H   UNL     1      -6.765  -4.413  -2.381  0.00  0.00    -0.086 HD
ATOM     14  H   UNL     1      -5.624  -3.371  -2.947  0.00  0.00    -0.086 HD
ENDROOT
BRANCH  11  15
ATOM     15  C   UNL     1      -4.281  -4.263   3.550  0.00  0.00    +0.072 A 
ATOM     16  C   UNL     1      -4.775  -5.477   3.066  0.00  0.00    +0.019 A 
ATOM     17  C   UNL     1      -5.916  -6.021   3.612  0.00  0.00    +0.039 A 
ATOM     18  C   UNL     1      -6.576  -5.368   4.644  0.00  0.00    +0.126 A 
ATOM     19  C   UNL     1      -6.093  -4.165   5.130  0.00  0.00    +0.077 A 
ATOM     20  C   UNL     1      -4.946  -3.611   4.594  0.00  0.00    +0.138 A 
ATOM     21  F   UNL     1      -4.472  -2.440   5.073  0.00  0.00    -0.205 F 
ATOM     22  F   UNL     1      -7.695  -5.908   5.175  0.00  0.00    -0.205 F 
ENDBRANCH  11  15
BRANCH   1  24
ATOM     23  N   UNL     1      -2.277  -0.634  -1.505  0.00  0.00    -0.312 N 
ATOM     24  C   UNL     1      -2.310  -1.364  -0.372  0.00  0.00    +0.218 C 
ATOM     25  O   UNL     1      -2.484  -0.819   0.697  0.00  0.00    -0.275 OA
ATOM     26  H   UNL     1      -2.138  -1.070  -2.360  0.00  0.00    +0.149 HD
BRANCH  23  27
ATOM     27  C   UNL     1      -2.454   0.819  -1.444  0.00  0.00    +0.148 C 
BRANCH  27  29
ATOM     28  C   UNL     1      -2.559   2.920  -2.793  0.00  0.00    +0.053 C 
ATOM     29  C   UNL     1      -2.375   1.402  -2.856  0.00  0.00    +0.187 C 
BRANCH  29  30
ATOM     30  O   UNL     1      -1.099   1.100  -3.426  0.00  0.00    -0.488 OA
BRANCH  30  31
ATOM     31  C   UNL     1      -1.021   1.070  -4.783  0.00  0.00    +0.121 A 
ATOM     32  C   UNL     1       0.152   0.665  -5.401  0.00  0.00    +0.048 A 
ATOM     33  C   UNL     1       0.231   0.635  -6.780  0.00  0.00    +0.042 A 
ATOM     34  C   UNL     1      -0.861   1.009  -7.545  0.00  0.00    +0.124 A 
ATOM     35  C   UNL     1      -2.033   1.414  -6.928  0.00  0.00    +0.042 A 
ATOM     36  C   UNL     1      -2.116   1.439  -5.550  0.00  0.00    +0.048 A 
ATOM     37  F   UNL     1      -0.783   0.980  -8.893  0.00  0.00    -0.205 F 
ENDBRANCH  30  31
ENDBRANCH  29  30
ENDBRANCH  27  29
ENDBRANCH  23  27
ENDBRANCH   1  24
TORSDOF 6
