REMARK  Name = ZINC09388829
REMARK  9 active torsions:
REMARK  status: ('A' for Active; 'I' for Inactive)
REMARK    1  A    between atoms: C_1  and  C_2
REMARK    2  A    between atoms: C_2  and  C_4
REMARK    3  A    between atoms: C_2  and  O_31
REMARK    4  A    between atoms: C_4  and  N_5
REMARK    5  A    between atoms: C_15  and  S_16
REMARK    6  A    between atoms: S_16  and  C_17
REMARK    7  A    between atoms: C_17  and  C_18
REMARK    8  A    between atoms: N_20  and  C_21
REMARK    9  A    between atoms: C_26  and  N_27
REMARK                            x       y       z     vdW  Elec       q    Type
REMARK                         _______ _______ _______ _____ _____    ______ ____
ROOT
ATOM      1  N   UNL     1       0.036  -2.764  -0.031  0.00  0.00    -0.285 N 
ATOM      2  C   UNL     1       1.239  -2.144  -0.053  0.00  0.00    +0.262 A 
ATOM      3  O   UNL     1       2.277  -2.779  -0.065  0.00  0.00    -0.267 OA
ATOM      4  C   UNL     1       1.244  -0.675  -0.062  0.00  0.00    +0.065 A 
ATOM      5  C   UNL     1       2.431   0.057  -0.085  0.00  0.00    +0.015 A 
ATOM      6  C   UNL     1       2.379   1.424  -0.092  0.00  0.00    +0.001 A 
ATOM      7  C   UNL     1       1.159   2.088  -0.078  0.00  0.00    +0.002 A 
ATOM      8  C   UNL     1      -0.018   1.396  -0.056  0.00  0.00    +0.028 A 
ATOM      9  C   UNL     1       0.001  -0.002  -0.048  0.00  0.00    +0.079 A 
ATOM     10  N   UNL     1      -1.137  -0.725  -0.026  0.00  0.00    -0.223 NA
ATOM     11  C   UNL     1      -1.118  -2.035  -0.018  0.00  0.00    +0.173 A 
ENDROOT
BRANCH   1  12
ATOM     12  C   UNL     1      -0.027  -4.228  -0.020  0.00  0.00    +0.158 C 
BRANCH  12  14
ATOM     13  C   UNL     1      -0.138  -6.275  -1.447  0.00  0.00    +0.039 C 
ATOM     14  C   UNL     1      -0.072  -4.747  -1.458  0.00  0.00    +0.131 C 
BRANCH  14  15
ATOM     15  O   UNL     1      -1.227  -4.225  -2.118  0.00  0.00    -0.390 OA
ATOM     16  H   UNL     1      -2.063  -4.471  -1.700  0.00  0.00    +0.210 HD
ENDBRANCH  14  15
ENDBRANCH  12  14
ENDBRANCH   1  12
BRANCH  11  17
ATOM     17  S   UNL     1      -2.655  -2.896   0.011  0.00  0.00    -0.078 S 
BRANCH  17  18
ATOM     18  C   UNL     1      -3.801  -1.495   0.019  0.00  0.00    +0.173 C 
BRANCH  18  19
ATOM     19  C   UNL     1      -5.219  -2.005   0.043  0.00  0.00    +0.228 C 
ATOM     20  O   UNL     1      -5.433  -3.199   0.054  0.00  0.00    -0.275 OA
ATOM     21  N   UNL     1      -6.248  -1.135   0.053  0.00  0.00    -0.283 N 
ATOM     22  H   UNL     1      -6.077  -0.183   0.125  0.00  0.00    +0.155 HD
BRANCH  21  23
ATOM     23  C   UNL     1      -7.563  -1.606  -0.042  0.00  0.00    +0.064 A 
ATOM     24  C   UNL     1      -7.823  -2.826  -0.652  0.00  0.00    +0.027 A 
ATOM     25  C   UNL     1      -9.121  -3.288  -0.743  0.00  0.00    +0.022 A 
ATOM     26  C   UNL     1     -10.162  -2.536  -0.228  0.00  0.00    +0.043 A 
ATOM     27  C   UNL     1      -9.906  -1.320   0.380  0.00  0.00    +0.054 A 
ATOM     28  C   UNL     1      -8.609  -0.856   0.479  0.00  0.00    +0.149 A 
ATOM     29 CL   UNL     1     -11.793  -3.120  -0.345  0.00  0.00    -0.083 Cl
BRANCH  28  30
ATOM     30  N   UNL     1      -8.335   0.443   1.135  0.00  0.00    +0.058 N 
ATOM     31  O   UNL     1      -9.239   1.057   1.671  0.00  0.00    -0.126 OA
ATOM     32  O   UNL     1      -7.204   0.896   1.139  0.00  0.00    -0.126 OA
ENDBRANCH  28  30
ENDBRANCH  21  23
ENDBRANCH  18  19
ENDBRANCH  17  18
ENDBRANCH  11  17
TORSDOF 8
