REMARK  Name = ZINC16006789
REMARK  9 active torsions:
REMARK  status: ('A' for Active; 'I' for Inactive)
REMARK    1  A    between atoms: C_1  and  C_2
REMARK    2  A    between atoms: C_2  and  O_3
REMARK    3  A    between atoms: O_3  and  C_4
REMARK    4  A    between atoms: C_4  and  C_6
REMARK    5  A    between atoms: C_7  and  C_25
REMARK    6  A    between atoms: C_8  and  C_24
REMARK    7  A    between atoms: C_10  and  N_11
REMARK    8  A    between atoms: C_12  and  C_14
REMARK    9  A    between atoms: C_18  and  N_20
REMARK                            x       y       z     vdW  Elec       q    Type
REMARK                         _______ _______ _______ _____ _____    ______ ____
ROOT
ATOM      1  N   UNL     1      -3.048  -2.529   2.497  0.00  0.00    -0.275 N 
ATOM      2  C   UNL     1      -3.828  -2.875   3.540  0.00  0.00    +0.249 C 
ATOM      3  O   UNL     1      -4.931  -3.347   3.344  0.00  0.00    -0.270 OA
ATOM      4  H   UNL     1      -2.167  -2.152   2.654  0.00  0.00    +0.156 HD
ENDROOT
BRANCH   1   9
ATOM      5  C   UNL     1      -2.842  -2.416   0.016  0.00  0.00    +0.091 A 
ATOM      6  C   UNL     1      -3.551  -2.715  -1.208  0.00  0.00    -0.025 A 
ATOM      7  C   UNL     1      -4.779  -3.243  -1.061  0.00  0.00    -0.008 A 
ATOM      8  S   UNL     1      -4.978  -3.337   0.705  0.00  0.00    -0.078 S 
ATOM      9  C   UNL     1      -3.502  -2.711   1.202  0.00  0.00    +0.087 A 
ATOM     10  C   UNL     1      -5.753  -3.656  -2.134  0.00  0.00    +0.052 C 
ATOM     11  C   UNL     1      -2.950  -2.450  -2.565  0.00  0.00    +0.045 C 
BRANCH   5  12
ATOM     12  C   UNL     1      -1.497  -1.838   0.006  0.00  0.00    +0.342 C 
ATOM     13  O   UNL     1      -0.522  -2.566  -0.007  0.00  0.00    -0.245 OA
BRANCH  12  14
ATOM     14  O   UNL     1      -1.339  -0.499   0.012  0.00  0.00    -0.461 OA
BRANCH  14  16
ATOM     15  C   UNL     1      -0.019   1.526   0.010  0.00  0.00    +0.048 C 
ATOM     16  C   UNL     1       0.002  -0.004   0.002  0.00  0.00    +0.229 C 
ENDBRANCH  14  16
ENDBRANCH  12  14
ENDBRANCH   5  12
ENDBRANCH   1   9
BRANCH   2  17
ATOM     17  C   UNL     1      -3.343  -2.680   4.922  0.00  0.00    +0.039 A 
ATOM     18  C   UNL     1      -2.079  -2.133   5.151  0.00  0.00    +0.014 A 
ATOM     19  C   UNL     1      -1.632  -1.954   6.443  0.00  0.00    +0.018 A 
ATOM     20  C   UNL     1      -2.434  -2.316   7.513  0.00  0.00    +0.048 A 
ATOM     21  C   UNL     1      -3.689  -2.859   7.292  0.00  0.00    +0.141 A 
ATOM     22  C   UNL     1      -4.150  -3.037   6.005  0.00  0.00    +0.047 A 
ATOM     23 BR   UNL     1      -1.813  -2.068   9.282  0.00  0.00    -0.048 Br
BRANCH  21  24
ATOM     24  N   UNL     1      -4.540  -3.243   8.441  0.00  0.00    +0.058 N 
ATOM     25  O   UNL     1      -5.635  -3.717   8.250  0.00  0.00    -0.126 OA
ATOM     26  O   UNL     1      -4.139  -3.083   9.570  0.00  0.00    -0.126 OA
ENDBRANCH  21  24
ENDBRANCH   2  17
TORSDOF 6
