REMARK  Name = ZINC10709425
REMARK  8 active torsions:
REMARK  status: ('A' for Active; 'I' for Inactive)
REMARK    1  A    between atoms: C_1  and  C_2
REMARK    2  A    between atoms: C_2  and  C_4
REMARK    3  A    between atoms: C_2  and  S_17
REMARK    4  A    between atoms: N_6  and  C_7
REMARK    5  A    between atoms: C_10  and  N_14
REMARK    6  A    between atoms: S_17  and  C_18
REMARK    7  A    between atoms: C_21  and  C_24
REMARK    8  A    between atoms: N_22  and  C_23
REMARK                            x       y       z     vdW  Elec       q    Type
REMARK                         _______ _______ _______ _____ _____    ______ ____
ROOT
ATOM      1  C   UNL     1       2.303   9.607   1.413  0.00  0.00    +0.029 C 
ATOM      2  C   UNL     1       2.729   9.580  -0.056  0.00  0.00    +0.137 C 
ENDROOT
BRANCH   2   3
ATOM      3  C   UNL     1       3.694  10.707  -0.320  0.00  0.00    +0.230 C 
ATOM      4  O   UNL     1       4.887  10.488  -0.360  0.00  0.00    -0.274 OA
ATOM      5  N   UNL     1       3.232  11.959  -0.512  0.00  0.00    -0.283 N 
ATOM      6  H   UNL     1       2.277  12.123  -0.545  0.00  0.00    +0.155 HD
BRANCH   5   7
ATOM      7  C   UNL     1       4.131  13.021  -0.663  0.00  0.00    +0.052 A 
ATOM      8  C   UNL     1       5.342  12.821  -1.314  0.00  0.00    +0.027 A 
ATOM      9  C   UNL     1       6.227  13.871  -1.462  0.00  0.00    +0.034 A 
ATOM     10  C   UNL     1       5.909  15.121  -0.963  0.00  0.00    +0.128 A 
ATOM     11  C   UNL     1       4.705  15.324  -0.315  0.00  0.00    +0.054 A 
ATOM     12  C   UNL     1       3.812  14.279  -0.168  0.00  0.00    +0.064 A 
ATOM     13 CL   UNL     1       2.298  14.537   0.640  0.00  0.00    -0.082 Cl
BRANCH  10  14
ATOM     14  N   UNL     1       6.860  16.244  -1.124  0.00  0.00    +0.056 N 
ATOM     15  O   UNL     1       7.921  16.066  -1.695  0.00  0.00    -0.126 OA
ATOM     16  O   UNL     1       6.582  17.345  -0.685  0.00  0.00    -0.126 OA
ENDBRANCH  10  14
ENDBRANCH   5   7
ENDBRANCH   2   3
BRANCH   2  17
ATOM     17  S   UNL     1       3.533   8.000  -0.423  0.00  0.00    -0.074 S 
BRANCH  17  18
ATOM     18  C   UNL     1       2.174   6.903  -0.183  0.00  0.00    +0.192 A 
ATOM     19  N   UNL     1       0.954   7.240   0.167  0.00  0.00    -0.122 NA
ATOM     20  N   UNL     1       0.213   6.194   0.253  0.00  0.00    -0.128 NA
ATOM     21  C   UNL     1       0.916   5.121  -0.037  0.00  0.00    +0.171 A 
ATOM     22  N   UNL     1       2.197   5.543  -0.319  0.00  0.00    -0.305 N 
ATOM     23  C   UNL     1       3.342   4.709  -0.691  0.00  0.00    +0.153 C 
BRANCH  21  24
ATOM     24  C   UNL     1       0.430   3.732  -0.050  0.00  0.00    +0.056 A 
ATOM     25  C   UNL     1      -0.862   3.269  -0.049  0.00  0.00    +0.019 A 
ATOM     26  C   UNL     1      -1.075   1.909  -0.069  0.00  0.00    +0.008 A 
ATOM     27  C   UNL     1      -0.007   1.070  -0.079  0.00  0.00    +0.046 A 
ATOM     28  S   UNL     1       1.366   2.212  -0.072  0.00  0.00    -0.094 S 
ENDBRANCH  21  24
ENDBRANCH  17  18
ENDBRANCH   2  17
TORSDOF 6
