REMARK  Name = ZINC36039343
REMARK  7 active torsions:
REMARK  status: ('A' for Active; 'I' for Inactive)
REMARK    1  A    between atoms: C_4  and  C_7
REMARK    2  A    between atoms: N_9  and  C_23
REMARK    3  A    between atoms: N_12  and  C_13
REMARK    4  A    between atoms: C_13  and  C_15
REMARK    5  A    between atoms: C_15  and  N_16
REMARK    6  A    between atoms: N_16  and  C_17
REMARK    7  A    between atoms: C_17  and  C_18
REMARK                            x       y       z     vdW  Elec       q    Type
REMARK                         _______ _______ _______ _____ _____    ______ ____
ROOT
ATOM      1  C   UNL     1       3.696  -0.685  -0.038  0.00  0.00    +0.066 A 
ATOM      2  C   UNL     1       3.859  -2.020  -0.052  0.00  0.00    +0.120 A 
ATOM      3  N   UNL     1       5.213  -2.286  -0.066  0.00  0.00    -0.287 N 
ATOM      4  C   UNL     1       5.878  -1.099  -0.059  0.00  0.00    +0.205 A 
ATOM      5  N   UNL     1       4.957  -0.101  -0.049  0.00  0.00    -0.326 N 
ATOM      6  N   UNL     1       7.202  -0.943  -0.068  0.00  0.00    -0.148 NA
ATOM      7  H   UNL     1       5.146   0.850  -0.046  0.00  0.00    +0.169 HD
ENDROOT
BRANCH   1  11
ATOM      8  C   UNL     1      -0.017   1.379   0.010  0.00  0.00    +0.000 A 
ATOM      9  C   UNL     1       1.168   2.093   0.002  0.00  0.00    +0.001 A 
ATOM     10  C   UNL     1       2.377   1.429  -0.013  0.00  0.00    +0.010 A 
ATOM     11  C   UNL     1       2.403   0.034  -0.021  0.00  0.00    -0.000 A 
ATOM     12  C   UNL     1       1.204  -0.680  -0.013  0.00  0.00    +0.010 A 
ATOM     13  C   UNL     1       0.002  -0.004   0.002  0.00  0.00    +0.001 A 
ENDBRANCH   1  11
BRANCH   3  14
ATOM     14  C   UNL     1       5.801  -3.557  -0.082  0.00  0.00    +0.049 A 
ATOM     15  C   UNL     1       7.184  -3.684  -0.088  0.00  0.00    +0.026 A 
ATOM     16  C   UNL     1       7.761  -4.938  -0.104  0.00  0.00    +0.002 A 
ATOM     17  C   UNL     1       6.963  -6.068  -0.114  0.00  0.00    +0.000 A 
ATOM     18  C   UNL     1       5.586  -5.945  -0.108  0.00  0.00    +0.002 A 
ATOM     19  C   UNL     1       5.003  -4.693  -0.087  0.00  0.00    +0.026 A 
ENDBRANCH   3  14
BRANCH   6  20
ATOM     20  C   UNL     1       7.726   0.277  -0.061  0.00  0.00    +0.222 C 
ATOM     21  O   UNL     1       6.999   1.252  -0.045  0.00  0.00    -0.276 OA
BRANCH  20  22
ATOM     22  C   UNL     1       9.223   0.454  -0.071  0.00  0.00    +0.018 C 
BRANCH  22  23
ATOM     23  N   UNL     1       9.547   1.887  -0.059  0.00  0.00    +0.389 N 
ATOM     24  H   UNL     1       9.151   2.328  -0.876  0.00  0.00    -0.085 HD
ATOM     25  H   UNL     1       9.164   2.312   0.772  0.00  0.00    -0.085 HD
BRANCH  23  26
ATOM     26  C   UNL     1      11.006   2.059  -0.069  0.00  0.00    -0.006 C 
BRANCH  26  27
ATOM     27  C   UNL     1      11.338   3.529  -0.058  0.00  0.00    +0.088 A 
ATOM     28  C   UNL     1      11.525   4.284   1.039  0.00  0.00    +0.042 A 
ATOM     29  C   UNL     1      11.815   5.594   0.591  0.00  0.00    +0.041 A 
ATOM     30  C   UNL     1      11.787   5.560  -0.754  0.00  0.00    +0.195 A 
ATOM     31  O   UNL     1      11.503   4.305  -1.141  0.00  0.00    -0.470 OA
ENDBRANCH  26  27
ENDBRANCH  23  26
ENDBRANCH  22  23
ENDBRANCH  20  22
ENDBRANCH   6  20
TORSDOF 7
