REMARK  Name = ZINC09702576
REMARK  7 active torsions:
REMARK  status: ('A' for Active; 'I' for Inactive)
REMARK    1  A    between atoms: C_3  and  C_6
REMARK    2  A    between atoms: C_6  and  N_7
REMARK    3  A    between atoms: C_11  and  C_13
REMARK    4  A    between atoms: C_13  and  O_14
REMARK    5  A    between atoms: O_14  and  C_15
REMARK    6  A    between atoms: C_15  and  C_17
REMARK    7  A    between atoms: N_25  and  C_28
REMARK                            x       y       z     vdW  Elec       q    Type
REMARK                         _______ _______ _______ _____ _____    ______ ____
ROOT
ATOM      1  C   UNL     1       1.149   3.579   0.010  0.00  0.00    +0.340 C 
ATOM      2  O   UNL     1       2.188   4.207   0.003  0.00  0.00    -0.245 OA
ENDROOT
BRANCH   1   3
ATOM      3  C   UNL     1       1.178   2.100   0.002  0.00  0.00    +0.060 A 
ATOM      4  C   UNL     1      -0.017   1.380   0.010  0.00  0.00    +0.016 A 
ATOM      5  C   UNL     1       0.002  -0.004   0.002  0.00  0.00    +0.014 A 
ATOM      6  C   UNL     1       1.213  -0.679  -0.013  0.00  0.00    +0.049 A 
ATOM      7  C   UNL     1       2.424   0.043  -0.021  0.00  0.00    +0.050 A 
ATOM      8  C   UNL     1       2.404   1.427  -0.014  0.00  0.00    +0.028 A 
ATOM      9  C   UNL     1       3.499  -0.971  -0.037  0.00  0.00    +0.254 C 
ATOM     10  O   UNL     1       4.691  -0.739  -0.046  0.00  0.00    -0.270 OA
ATOM     11  N   UNL     1       2.937  -2.193  -0.038  0.00  0.00    -0.231 N 
ATOM     12  C   UNL     1       1.595  -2.109  -0.025  0.00  0.00    +0.254 C 
ATOM     13  O   UNL     1       0.826  -3.049  -0.022  0.00  0.00    -0.270 OA
BRANCH  11  14
ATOM     14  C   UNL     1       3.689  -3.450  -0.051  0.00  0.00    +0.085 C 
ATOM     15  C   UNL     1       3.320  -4.252  -1.302  0.00  0.00    +0.023 C 
ATOM     16  C   UNL     1       4.105  -5.565  -1.316  0.00  0.00    +0.002 C 
ATOM     17  C   UNL     1       3.759  -6.379  -0.067  0.00  0.00    +0.000 C 
ATOM     18  C   UNL     1       4.128  -5.578   1.183  0.00  0.00    +0.002 C 
ATOM     19  C   UNL     1       3.343  -4.265   1.197  0.00  0.00    +0.023 C 
ENDBRANCH  11  14
ENDBRANCH   1   3
BRANCH   1  20
ATOM     20  O   UNL     1      -0.031   4.229   0.024  0.00  0.00    -0.452 OA
BRANCH  20  21
ATOM     21  C   UNL     1       0.016   5.680   0.031  0.00  0.00    +0.328 C 
BRANCH  21  26
ATOM     22  N   UNL     1      -3.050   9.383   0.079  0.00  0.00    -0.292 N 
ATOM     23  C   UNL     1      -2.847   8.050   0.070  0.00  0.00    +0.306 C 
ATOM     24  O   UNL     1      -3.796   7.291   0.075  0.00  0.00    -0.252 OA
ATOM     25  N   UNL     1      -1.591   7.560   0.056  0.00  0.00    -0.237 N 
ATOM     26  C   UNL     1      -1.388   6.228   0.047  0.00  0.00    +0.258 C 
ATOM     27  O   UNL     1      -2.334   5.471   0.052  0.00  0.00    -0.272 OA
ATOM     28  H   UNL     1      -2.293   9.989   0.075  0.00  0.00    +0.151 HD
ATOM     29  H   UNL     1      -0.834   8.167   0.052  0.00  0.00    +0.159 HD
BRANCH  22  30
ATOM     30  C   UNL     1      -4.415   9.915   0.094  0.00  0.00    +0.180 C 
BRANCH  30  33
ATOM     31  C   UNL     1      -4.303  13.547  -0.520  0.00  0.00    +0.041 A 
ATOM     32  C   UNL     1      -4.351  12.213  -0.986  0.00  0.00    +0.046 A 
ATOM     33  C   UNL     1      -4.366  11.422   0.101  0.00  0.00    +0.122 A 
ATOM     34  O   UNL     1      -4.336  12.201   1.194  0.00  0.00    -0.466 OA
ATOM     35  C   UNL     1      -4.292  13.491   0.823  0.00  0.00    +0.195 A 
ENDBRANCH  30  33
ENDBRANCH  22  30
ENDBRANCH  21  26
ENDBRANCH  20  21
ENDBRANCH   1  20
TORSDOF 7
