REMARK  Name = ZINC66644264
REMARK  7 active torsions:
REMARK  status: ('A' for Active; 'I' for Inactive)
REMARK    1  A    between atoms: C_1  and  C_2
REMARK    2  A    between atoms: C_2  and  C_4
REMARK    3  A    between atoms: C_2  and  N_21
REMARK    4  A    between atoms: C_4  and  C_5
REMARK    5  A    between atoms: N_7  and  N_8
REMARK    6  A    between atoms: C_9  and  C_11
REMARK    7  A    between atoms: C_22  and  C_24
REMARK                            x       y       z     vdW  Elec       q    Type
REMARK                         _______ _______ _______ _____ _____    ______ ____
ROOT
ATOM      1  C   UNL     1       0.657  -2.014   1.298  0.00  0.00    +0.231 C 
ATOM      2  O   UNL     1       0.062  -2.621   0.432  0.00  0.00    -0.274 OA
ATOM      3  N   UNL     1       1.241  -2.685   2.311  0.00  0.00    -0.234 N 
ATOM      4  H   UNL     1       1.716  -2.200   3.003  0.00  0.00    +0.173 HD
ENDROOT
BRANCH   3   5
ATOM      5  N   UNL     1       1.161  -4.083   2.363  0.00  0.00    -0.231 N 
ATOM      6  C   UNL     1       1.745  -4.754   3.375  0.00  0.00    +0.270 C 
ATOM      7  O   UNL     1       2.340  -4.147   4.242  0.00  0.00    -0.270 OA
ATOM      8  H   UNL     1       0.686  -4.568   1.670  0.00  0.00    +0.173 HD
BRANCH   6   9
ATOM      9  C   UNL     1       1.660  -6.257   3.432  0.00  0.00    +0.264 C 
ATOM     10  C   UNL     1       0.205  -6.714   3.695  0.00  0.00    +0.093 C 
ATOM     11  C   UNL     1       0.413  -7.923   4.586  0.00  0.00    -0.002 A 
ATOM     12  C   UNL     1      -0.424  -8.951   4.960  0.00  0.00    +0.007 A 
ATOM     13  C   UNL     1       0.040  -9.950   5.797  0.00  0.00    +0.000 A 
ATOM     14  C   UNL     1       1.343  -9.912   6.256  0.00  0.00    +0.004 A 
ATOM     15  C   UNL     1       2.182  -8.881   5.886  0.00  0.00    +0.046 A 
ATOM     16  C   UNL     1       1.723  -7.870   5.046  0.00  0.00    +0.125 A 
ATOM     17  O   UNL     1       2.369  -6.765   4.574  0.00  0.00    -0.479 OA
ENDBRANCH   6   9
ENDBRANCH   3   5
BRANCH   1  18
ATOM     18  C   UNL     1       0.742  -0.511   1.242  0.00  0.00    +0.119 C 
BRANCH  18  20
ATOM     19  C   UNL     1      -0.019   1.526   0.010  0.00  0.00    +0.028 C 
ATOM     20  C   UNL     1       0.002  -0.004   0.002  0.00  0.00    +0.079 C 
BRANCH  20  21
ATOM     21  N   UNL     1       0.688  -0.476  -1.203  0.00  0.00    -0.312 N 
ATOM     22  C   UNL     1       0.006  -0.608  -2.358  0.00  0.00    +0.216 C 
ATOM     23  O   UNL     1      -1.175  -0.336  -2.400  0.00  0.00    -0.276 OA
ATOM     24  H   UNL     1       1.632  -0.695  -1.170  0.00  0.00    +0.149 HD
BRANCH  22  25
ATOM     25  C   UNL     1       0.712  -1.094  -3.598  0.00  0.00    +0.075 C 
ATOM     26  C   UNL     1       1.849  -0.133  -3.948  0.00  0.00    +0.013 C 
ATOM     27  C   UNL     1       2.565  -0.626  -5.207  0.00  0.00    +0.001 C 
ATOM     28  C   UNL     1       1.572  -0.685  -6.369  0.00  0.00    +0.000 C 
ATOM     29  C   UNL     1       0.434  -1.646  -6.019  0.00  0.00    +0.001 C 
ATOM     30  C   UNL     1      -0.282  -1.153  -4.761  0.00  0.00    +0.013 C 
ENDBRANCH  22  25
ENDBRANCH  20  21
ENDBRANCH  18  20
ENDBRANCH   1  18
TORSDOF 6
