REMARK  Name = ZINC12521904
REMARK  9 active torsions:
REMARK  status: ('A' for Active; 'I' for Inactive)
REMARK    1  A    between atoms: C_1  and  C_2
REMARK    2  A    between atoms: N_11  and  C_12
REMARK    3  A    between atoms: C_12  and  C_13
REMARK    4  A    between atoms: C_13  and  C_15
REMARK    5  A    between atoms: C_16  and  N_28
REMARK    6  A    between atoms: N_17  and  C_24
REMARK    7  A    between atoms: C_24  and  C_25
REMARK    8  A    between atoms: C_25  and  O_26
REMARK    9  A    between atoms: O_26  and  C_27
REMARK                            x       y       z     vdW  Elec       q    Type
REMARK                         _______ _______ _______ _____ _____    ______ ____
ROOT
ATOM      1  C   UNL     1      -3.449   1.383  -2.461  0.00  0.00    +0.121 A 
ATOM      2  C   UNL     1      -2.810   1.014  -1.264  0.00  0.00    +0.116 A 
ATOM      3  N   UNL     1      -2.130  -0.169  -1.217  0.00  0.00    -0.279 N 
ATOM      4  C   UNL     1      -2.069  -0.983  -2.283  0.00  0.00    +0.331 A 
ATOM      5  O   UNL     1      -1.454  -2.027  -2.188  0.00  0.00    -0.246 OA
ATOM      6  N   UNL     1      -2.663  -0.685  -3.450  0.00  0.00    -0.274 N 
ATOM      7  H   UNL     1      -2.590  -1.322  -4.217  0.00  0.00    +0.173 HD
ATOM      8  C   UNL     1      -3.356   0.462  -3.601  0.00  0.00    +0.266 A 
ATOM      9  O   UNL     1      -3.892   0.729  -4.661  0.00  0.00    -0.267 OA
ENDROOT
BRANCH   2  10
ATOM     10  N   UNL     1      -2.866   1.824  -0.173  0.00  0.00    -0.344 N 
ATOM     11  H   UNL     1      -3.012   2.777  -0.282  0.00  0.00    +0.144 HD
ATOM     12  H   UNL     1      -2.759   1.449   0.716  0.00  0.00    +0.144 HD
ENDBRANCH   2  10
BRANCH   1  13
ATOM     13  C   UNL     1      -4.161   2.598  -2.562  0.00  0.00    +0.189 C 
ATOM     14  O   UNL     1      -4.323   3.290  -1.577  0.00  0.00    -0.290 OA
BRANCH  13  15
ATOM     15  C   UNL     1      -4.719   3.036  -3.891  0.00  0.00    +0.185 C 
BRANCH  15  26
ATOM     16  C   UNL     1      -9.574   4.228  -0.030  0.00  0.00    +0.044 C 
ATOM     17  C   UNL     1      -8.433   4.280  -1.014  0.00  0.00    -0.050 A 
ATOM     18  C   UNL     1      -8.175   3.196  -1.833  0.00  0.00    +0.005 A 
ATOM     19  C   UNL     1      -7.133   3.247  -2.734  0.00  0.00    +0.023 A 
ATOM     20  C   UNL     1      -6.333   4.387  -2.825  0.00  0.00    +0.033 A 
ATOM     21  C   UNL     1      -6.592   5.467  -1.999  0.00  0.00    -0.026 A 
ATOM     22  C   UNL     1      -7.644   5.409  -1.098  0.00  0.00    +0.008 A 
ATOM     23  C   UNL     1      -5.760   6.724  -2.042  0.00  0.00    +0.038 C 
ATOM     24  C   UNL     1      -4.927   6.747  -3.325  0.00  0.00    +0.024 C 
ATOM     25  C   UNL     1      -4.261   5.373  -3.480  0.00  0.00    +0.106 C 
ATOM     26  N   UNL     1      -5.299   4.379  -3.760  0.00  0.00    -0.322 N 
ENDBRANCH  15  26
ENDBRANCH  13  15
ENDBRANCH   1  13
BRANCH   3  27
ATOM     27  C   UNL     1      -1.457  -0.561   0.024  0.00  0.00    +0.156 C 
BRANCH  27  28
ATOM     28  C   UNL     1      -0.022  -0.031   0.016  0.00  0.00    +0.181 C 
BRANCH  28  29
ATOM     29  O   UNL     1      -0.041   1.398   0.031  0.00  0.00    -0.381 OA
ATOM     30  C   UNL     1       1.256   1.997   0.025  0.00  0.00    +0.194 C 
ENDBRANCH  28  29
ENDBRANCH  27  28
ENDBRANCH   3  27
TORSDOF 7
