REMARK  Name = ZINC38661341
REMARK  6 active torsions:
REMARK  status: ('A' for Active; 'I' for Inactive)
REMARK    1  A    between atoms: C_1  and  C_2
REMARK    2  A    between atoms: C_2  and  C_4
REMARK    3  A    between atoms: C_4  and  C_15
REMARK    4  A    between atoms: C_5  and  C_6
REMARK    5  A    between atoms: N_17  and  C_18
REMARK    6  A    between atoms: C_21  and  N_24
REMARK                            x       y       z     vdW  Elec       q    Type
REMARK                         _______ _______ _______ _____ _____    ______ ____
ROOT
ATOM      1  C   UNL     1       0.560  -0.700  -1.049  0.00  0.00    +0.079 C 
ATOM      2  C   UNL     1       1.121  -1.954  -0.827  0.00  0.00    +0.022 C 
ENDROOT
BRANCH   2   3
ATOM      3  C   UNL     1       0.980  -2.572   0.418  0.00  0.00    -0.018 C 
ATOM      4  C   UNL     1       1.551  -3.771   0.833  0.00  0.00    +0.003 A 
ATOM      5  C   UNL     1       2.399  -4.701   0.196  0.00  0.00    +0.010 A 
ATOM      6  C   UNL     1       2.812  -5.811   0.853  0.00  0.00    +0.001 A 
ATOM      7  C   UNL     1       2.428  -6.090   2.173  0.00  0.00    +0.002 A 
ATOM      8  C   UNL     1       1.619  -5.263   2.871  0.00  0.00    +0.026 A 
ATOM      9  C   UNL     1       1.126  -4.033   2.228  0.00  0.00    +0.043 A 
ATOM     10  N   UNL     1       0.350  -3.078   2.658  0.00  0.00    -0.380 N 
ATOM     11  C   UNL     1       0.178  -2.076   1.602  0.00  0.00    +0.149 C 
ATOM     12  H   UNL     1      -0.050  -3.035   3.541  0.00  0.00    +0.160 HD
ENDBRANCH   2   3
BRANCH   1  13
ATOM     13  C   UNL     1       0.825   0.012  -2.309  0.00  0.00    +0.252 C 
ATOM     14  O   UNL     1       1.609  -0.451  -3.117  0.00  0.00    -0.270 OA
ATOM     15  N   UNL     1       0.200   1.178  -2.570  0.00  0.00    -0.281 N 
ATOM     16  H   UNL     1      -0.359   1.590  -1.892  0.00  0.00    +0.155 HD
BRANCH  15  17
ATOM     17  C   UNL     1       0.357   1.792  -3.815  0.00  0.00    +0.034 A 
ATOM     18  C   UNL     1       0.512   1.019  -4.959  0.00  0.00    +0.025 A 
ATOM     19  C   UNL     1       0.666   1.629  -6.188  0.00  0.00    +0.034 A 
ATOM     20  C   UNL     1       0.667   3.009  -6.281  0.00  0.00    +0.126 A 
ATOM     21  C   UNL     1       0.513   3.782  -5.145  0.00  0.00    +0.034 A 
ATOM     22  C   UNL     1       0.352   3.178  -3.914  0.00  0.00    +0.025 A 
BRANCH  20  23
ATOM     23  N   UNL     1       0.833   3.660  -7.600  0.00  0.00    +0.056 N 
ATOM     24  O   UNL     1       0.968   2.985  -8.595  0.00  0.00    -0.126 OA
ATOM     25  O   UNL     1       0.833   4.866  -7.684  0.00  0.00    -0.126 OA
ENDBRANCH  20  23
ENDBRANCH  15  17
ENDBRANCH   1  13
BRANCH   1  27
ATOM     26  C   UNL     1      -1.747  -0.469   0.062  0.00  0.00    +0.092 C 
ATOM     27  C   UNL     1      -0.291  -0.089  -0.030  0.00  0.00    +0.165 C 
ATOM     28  O   UNL     1       0.174   0.724   0.742  0.00  0.00    -0.292 OA
ENDBRANCH   1  27
TORSDOF 5
