REMARK  Name = ZINC49060021
REMARK  8 active torsions:
REMARK  status: ('A' for Active; 'I' for Inactive)
REMARK    1  A    between atoms: C_1  and  C_2
REMARK    2  A    between atoms: C_5  and  C_8
REMARK    3  A    between atoms: N_13  and  C_15
REMARK    4  A    between atoms: C_15  and  C_17
REMARK    5  A    between atoms: C_15  and  C_18
REMARK    6  A    between atoms: N_20  and  C_21
REMARK    7  A    between atoms: C_23  and  N_28
REMARK    8  A    between atoms: C_26  and  C_27
REMARK                            x       y       z     vdW  Elec       q    Type
REMARK                         _______ _______ _______ _____ _____    ______ ____
ROOT
ATOM      1  C   UNL     1       0.102  -6.852   2.472  0.00  0.00    +0.194 C 
ATOM      2  C   UNL     1       1.339  -6.416   3.258  0.00  0.00    +0.043 C 
ENDROOT
BRANCH   1   8
ATOM      3  C   UNL     1       0.059  -4.243  -0.013  0.00  0.00    +0.092 A 
ATOM      4  C   UNL     1       0.077  -4.939  -1.244  0.00  0.00    +0.035 A 
ATOM      5  C   UNL     1       0.105  -6.302  -1.214  0.00  0.00    +0.074 A 
ATOM      6  C   UNL     1       0.113  -6.936   0.049  0.00  0.00    +0.268 A 
ATOM      7  O   UNL     1       0.137  -8.153   0.126  0.00  0.00    -0.266 OA
ATOM      8  N   UNL     1       0.093  -6.186   1.167  0.00  0.00    -0.217 N 
ATOM      9  N   UNL     1       0.073  -4.903   1.120  0.00  0.00    -0.168 NA
BRANCH   3  14
ATOM     10  C   UNL     1      -0.058   1.515   0.022  0.00  0.00    +0.044 C 
ATOM     11  C   UNL     1      -0.027   0.009   0.013  0.00  0.00    -0.050 A 
ATOM     12  C   UNL     1      -0.014  -0.673  -1.191  0.00  0.00    +0.004 A 
ATOM     13  C   UNL     1       0.014  -2.053  -1.205  0.00  0.00    +0.010 A 
ATOM     14  C   UNL     1       0.029  -2.759  -0.004  0.00  0.00    +0.002 A 
ATOM     15  C   UNL     1       0.016  -2.068   1.206  0.00  0.00    +0.010 A 
ATOM     16  C   UNL     1      -0.006  -0.688   1.208  0.00  0.00    +0.004 A 
ENDBRANCH   3  14
ENDBRANCH   1   8
BRANCH   1  17
ATOM     17  C   UNL     1      -1.139  -6.472   3.237  0.00  0.00    +0.242 C 
ATOM     18  O   UNL     1      -1.951  -5.720   2.742  0.00  0.00    -0.273 OA
ATOM     19  N   UNL     1      -1.347  -6.969   4.473  0.00  0.00    -0.283 N 
ATOM     20  H   UNL     1      -0.741  -7.633   4.837  0.00  0.00    +0.155 HD
BRANCH  19  21
ATOM     21  C   UNL     1      -2.439  -6.529   5.229  0.00  0.00    +0.039 A 
ATOM     22  C   UNL     1      -2.994  -5.279   4.988  0.00  0.00    +0.056 A 
ATOM     23  C   UNL     1      -4.071  -4.847   5.737  0.00  0.00    +0.128 A 
ATOM     24  C   UNL     1      -4.597  -5.657   6.726  0.00  0.00    +0.033 A 
ATOM     25  C   UNL     1      -4.046  -6.902   6.969  0.00  0.00    +0.007 A 
ATOM     26  C   UNL     1      -2.973  -7.343   6.220  0.00  0.00    -0.029 A 
ATOM     27  C   UNL     1      -2.378  -8.703   6.481  0.00  0.00    +0.045 C 
BRANCH  23  28
ATOM     28  N   UNL     1      -4.662  -3.514   5.480  0.00  0.00    +0.056 N 
ATOM     29  O   UNL     1      -4.203  -2.805   4.616  0.00  0.00    -0.126 OA
ATOM     30  O   UNL     1      -5.605  -3.135   6.136  0.00  0.00    -0.126 OA
ENDBRANCH  23  28
ENDBRANCH  19  21
ENDBRANCH   1  17
TORSDOF 5
