REMARK  Name = ZINC22062044
REMARK  6 active torsions:
REMARK  status: ('A' for Active; 'I' for Inactive)
REMARK    1  A    between atoms: C_1  and  N_2
REMARK    2  A    between atoms: C_6  and  S_8
REMARK    3  A    between atoms: S_8  and  C_9
REMARK    4  A    between atoms: C_12  and  C_18
REMARK    5  A    between atoms: C_14  and  N_15
REMARK    6  A    between atoms: C_18  and  C_20
REMARK                            x       y       z     vdW  Elec       q    Type
REMARK                         _______ _______ _______ _____ _____    ______ ____
ROOT
ATOM      1  C   UNL     1      -6.086   1.588  -0.213  0.00  0.00    +0.045 A 
ATOM      2  C   UNL     1      -4.867   0.950   0.036  0.00  0.00    +0.018 A 
ATOM      3  C   UNL     1      -3.717   1.682   0.114  0.00  0.00    +0.013 A 
ATOM      4  C   UNL     1      -3.760   3.071  -0.043  0.00  0.00    +0.024 A 
ATOM      5  C   UNL     1      -4.980   3.709  -0.292  0.00  0.00    +0.045 A 
ATOM      6  C   UNL     1      -6.129   2.975  -0.376  0.00  0.00    +0.141 A 
ENDROOT
BRANCH   6   7
ATOM      7  N   UNL     1      -7.420   3.650  -0.640  0.00  0.00    +0.058 N 
ATOM      8  O   UNL     1      -7.460   4.957  -0.794  0.00  0.00    -0.126 OA
ATOM      9  O   UNL     1      -8.528   2.942  -0.721  0.00  0.00    -0.126 OA
ENDBRANCH   6   7
BRANCH   4  10
ATOM     10  C   UNL     1      -2.516   3.864   0.047  0.00  0.00    +0.193 C 
ATOM     11  O   UNL     1      -2.377   4.856  -0.641  0.00  0.00    -0.287 OA
BRANCH  10  12
ATOM     12  C   UNL     1      -1.443   3.451   0.974  0.00  0.00    +0.022 A 
ATOM     13  C   UNL     1      -1.656   2.403   1.872  0.00  0.00    +0.012 A 
ATOM     14  C   UNL     1      -0.651   2.025   2.738  0.00  0.00    +0.001 A 
ATOM     15  C   UNL     1       0.570   2.676   2.711  0.00  0.00    +0.000 A 
ATOM     16  C   UNL     1       0.790   3.712   1.821  0.00  0.00    +0.001 A 
ATOM     17  C   UNL     1      -0.208   4.104   0.953  0.00  0.00    +0.012 A 
ENDBRANCH  10  12
ENDBRANCH   4  10
BRANCH   1  18
ATOM     18  S   UNL     1      -7.569   0.642  -0.322  0.00  0.00    -0.059 S 
BRANCH  18  24
ATOM     19  C   UNL     1     -10.110   1.956   5.722  0.00  0.00    +0.127 C 
ATOM     20  N   UNL     1     -10.480   1.255   4.489  0.00  0.00    -0.325 N 
ATOM     21  C   UNL     1      -9.632   1.230   3.452  0.00  0.00    +0.182 A 
ATOM     22  N   UNL     1      -8.382   1.792   3.339  0.00  0.00    -0.125 NA
ATOM     23  N   UNL     1      -7.708   1.665   2.279  0.00  0.00    -0.133 NA
ATOM     24  C   UNL     1      -8.241   0.965   1.219  0.00  0.00    +0.165 A 
ATOM     25  S   UNL     1      -9.823   0.480   1.896  0.00  0.00    -0.024 S 
ATOM     26  H   UNL     1     -11.454   0.750   4.416  0.00  0.00    +0.148 HD
ENDBRANCH  18  24
ENDBRANCH   1  18
TORSDOF 5
