REMARK  Name = ZINC39781280
REMARK  5 active torsions:
REMARK  status: ('A' for Active; 'I' for Inactive)
REMARK    1  A    between atoms: C_1  and  C_2
REMARK    2  A    between atoms: C_9  and  C_11
REMARK    3  A    between atoms: C_16  and  N_17
REMARK    4  A    between atoms: N_17  and  S_18
REMARK    5  A    between atoms: S_18  and  C_21
REMARK                            x       y       z     vdW  Elec       q    Type
REMARK                         _______ _______ _______ _____ _____    ______ ____
ROOT
ATOM      1  N   UNL     1      -0.616  -4.342   4.273  0.00  0.00    -0.216 N 
ATOM      2  H   UNL     1      -1.147  -3.541   4.141  0.00  0.00    +0.174 HD
ENDROOT
BRANCH   1   8
ATOM      3  C   UNL     1       0.389  -4.268   2.073  0.00  0.00    +0.059 A 
ATOM      4  C   UNL     1       0.944  -4.942   0.982  0.00  0.00    +0.015 A 
ATOM      5  C   UNL     1       1.035  -6.316   0.997  0.00  0.00    +0.001 A 
ATOM      6  C   UNL     1       0.578  -7.036   2.089  0.00  0.00    +0.002 A 
ATOM      7  C   UNL     1       0.027  -6.386   3.174  0.00  0.00    +0.025 A 
ATOM      8  C   UNL     1      -0.067  -4.999   3.180  0.00  0.00    +0.060 A 
BRANCH   3  16
ATOM      9  C   UNL     1      -2.192   1.108   0.713  0.00  0.00    +0.009 C 
ATOM     10  C   UNL     1      -1.996  -0.405   0.830  0.00  0.00    +0.003 C 
ATOM     11  C   UNL     1      -2.459  -1.081  -0.463  0.00  0.00    +0.006 C 
ATOM     12  C   UNL     1      -2.295  -2.598  -0.335  0.00  0.00    +0.019 C 
ATOM     13  C   UNL     1      -0.815  -2.930  -0.118  0.00  0.00    +0.108 C 
ATOM     14  N   UNL     1      -0.324  -2.170   1.040  0.00  0.00    -0.297 N 
ATOM     15  C   UNL     1      -0.513  -0.713   1.060  0.00  0.00    +0.111 C 
ATOM     16  C   UNL     1       0.288  -2.797   2.063  0.00  0.00    +0.248 C 
ATOM     17  O   UNL     1       0.758  -2.149   2.979  0.00  0.00    -0.270 OA
ENDBRANCH   3  16
ENDBRANCH   1   8
BRANCH   1  18
ATOM     18  S   UNL     1      -0.364  -4.925   5.803  0.00  0.00    +0.072 S 
ATOM     19  O   UNL     1      -0.945  -3.986   6.697  0.00  0.00    -0.150 OA
ATOM     20  O   UNL     1      -0.744  -6.294   5.783  0.00  0.00    -0.150 OA
BRANCH  18  21
ATOM     21  C   UNL     1       1.373  -4.889   6.094  0.00  0.00    +0.110 A 
ATOM     22  C   UNL     1       2.174  -6.054   5.738  0.00  0.00    +0.031 A 
ATOM     23  C   UNL     1       3.510  -6.092   5.934  0.00  0.00    +0.027 A 
ATOM     24  C   UNL     1       4.185  -4.936   6.521  0.00  0.00    +0.056 A 
ATOM     25  N   UNL     1       5.424  -4.652   6.837  0.00  0.00    -0.268 N 
ATOM     26  C   UNL     1       5.457  -3.385   7.368  0.00  0.00    +0.308 C 
ATOM     27  O   UNL     1       6.455  -2.819   7.762  0.00  0.00    -0.252 OA
ATOM     28  N   UNL     1       4.188  -2.854   7.387  0.00  0.00    -0.267 N 
ATOM     29  C   UNL     1       3.363  -3.740   6.888  0.00  0.00    +0.058 A 
ATOM     30  C   UNL     1       1.923  -3.781   6.636  0.00  0.00    +0.054 A 
ATOM     31  H   UNL     1       3.946  -1.974   7.714  0.00  0.00    +0.156 HD
ATOM     32  H   UNL     1       6.189  -5.237   6.716  0.00  0.00    +0.156 HD
ENDBRANCH  18  21
ENDBRANCH   1  18
TORSDOF 4
