REMARK  Name = ZINC47347925
REMARK  8 active torsions:
REMARK  status: ('A' for Active; 'I' for Inactive)
REMARK    1  A    between atoms: C_1  and  C_2
REMARK    2  A    between atoms: C_2  and  C_3
REMARK    3  A    between atoms: C_3  and  C_22
REMARK    4  A    between atoms: N_6  and  C_10
REMARK    5  A    between atoms: C_10  and  C_11
REMARK    6  A    between atoms: C_11  and  O_12
REMARK    7  A    between atoms: O_12  and  C_13
REMARK    8  A    between atoms: C_17  and  N_19
REMARK                            x       y       z     vdW  Elec       q    Type
REMARK                         _______ _______ _______ _____ _____    ______ ____
ROOT
ATOM      1  C   UNL     1      -1.433  -0.534   0.013  0.00  0.00    +0.138 C 
ATOM      2  C   UNL     1      -2.192  -0.043  -1.205  0.00  0.00    +0.251 C 
ATOM      3  O   UNL     1      -1.933  -0.267  -2.368  0.00  0.00    -0.272 OA
ATOM      4  N   UNL     1      -3.214   0.692  -0.725  0.00  0.00    -0.221 N 
ATOM      5  C   UNL     1      -3.207   0.734   0.612  0.00  0.00    +0.310 C 
ATOM      6  O   UNL     1      -4.031   1.335   1.273  0.00  0.00    -0.252 OA
ATOM      7  N   UNL     1      -2.187   0.036   1.143  0.00  0.00    -0.281 N 
ATOM      8  H   UNL     1      -1.987  -0.072   2.086  0.00  0.00    +0.152 HD
ENDROOT
BRANCH   1   9
ATOM      9  C   UNL     1      -1.441  -2.039   0.076  0.00  0.00    -0.015 A 
ATOM     10  C   UNL     1      -0.400  -2.759  -0.481  0.00  0.00    +0.007 A 
ATOM     11  C   UNL     1      -0.406  -4.140  -0.423  0.00  0.00    +0.020 A 
ATOM     12  C   UNL     1      -1.454  -4.802   0.191  0.00  0.00    +0.041 A 
ATOM     13  C   UNL     1      -2.496  -4.081   0.747  0.00  0.00    +0.020 A 
ATOM     14  C   UNL     1      -2.486  -2.700   0.694  0.00  0.00    +0.007 A 
ATOM     15 CL   UNL     1      -1.463  -6.537   0.262  0.00  0.00    -0.084 Cl
ENDBRANCH   1   9
BRANCH   1  17
ATOM     16  C   UNL     1      -0.019   1.526   0.010  0.00  0.00    +0.007 C 
ATOM     17  C   UNL     1       0.002  -0.004   0.002  0.00  0.00    +0.037 C 
ENDBRANCH   1  17
BRANCH   4  18
ATOM     18  C   UNL     1      -4.210   1.363  -1.565  0.00  0.00    +0.159 C 
BRANCH  18  19
ATOM     19  C   UNL     1      -5.386   0.417  -1.816  0.00  0.00    +0.248 C 
BRANCH  19  20
ATOM     20  O   UNL     1      -6.053   0.147  -0.581  0.00  0.00    -0.490 OA
BRANCH  20  21
ATOM     21  C   UNL     1      -7.128  -0.683  -0.629  0.00  0.00    +0.123 A 
ATOM     22  C   UNL     1      -7.529  -1.231  -1.839  0.00  0.00    +0.046 A 
ATOM     23  C   UNL     1      -8.622  -2.075  -1.885  0.00  0.00    +0.006 A 
ATOM     24  C   UNL     1      -9.316  -2.373  -0.727  0.00  0.00    +0.033 A 
ATOM     25  C   UNL     1      -8.918  -1.828   0.480  0.00  0.00    +0.130 A 
ATOM     26  C   UNL     1      -7.822  -0.989   0.532  0.00  0.00    +0.078 A 
BRANCH  25  27
ATOM     27  N   UNL     1      -9.663  -2.150   1.718  0.00  0.00    +0.057 N 
ATOM     28  O   UNL     1     -10.619  -2.888   1.673  0.00  0.00    -0.126 OA
ATOM     29  O   UNL     1      -9.316  -1.673   2.773  0.00  0.00    -0.126 OA
ENDBRANCH  25  27
ENDBRANCH  20  21
ENDBRANCH  19  20
ENDBRANCH  18  19
ENDBRANCH   4  18
TORSDOF 7
