REMARK  Name = ZINC36598835
REMARK  13 active torsions:
REMARK  status: ('A' for Active; 'I' for Inactive)
REMARK    1  A    between atoms: C_1  and  C_2
REMARK    2  A    between atoms: C_5  and  C_7
REMARK    3  A    between atoms: C_7  and  N_8
REMARK    4  A    between atoms: N_8  and  C_9
REMARK    5  A    between atoms: C_9  and  C_11
REMARK    6  A    between atoms: C_9  and  C_18
REMARK    7  A    between atoms: C_15  and  O_17
REMARK    8  A    between atoms: N_20  and  C_21
REMARK    9  A    between atoms: C_21  and  C_22
REMARK   10  A    between atoms: C_21  and  C_23
REMARK   11  A    between atoms: C_21  and  C_24
REMARK   12  A    between atoms: C_25  and  C_27
REMARK   13  A    between atoms: C_27  and  C_28
REMARK                            x       y       z     vdW  Elec       q    Type
REMARK                         _______ _______ _______ _____ _____    ______ ____
ROOT
ATOM      1  N   UNL     1       1.901  -3.727  -1.404  0.00  0.00    -0.278 N 
ATOM      2  C   UNL     1       0.851  -4.272  -2.049  0.00  0.00    +0.221 C 
ATOM      3  O   UNL     1       0.850  -4.337  -3.260  0.00  0.00    -0.275 OA
ENDROOT
BRANCH   1   4
ATOM      4  C   UNL     1       1.903  -3.649   0.059  0.00  0.00    +0.183 C 
BRANCH   4   9
ATOM      5  C   UNL     1       1.159   1.079   1.651  0.00  0.00    +0.086 C 
ATOM      6  C   UNL     1       0.885  -0.328   1.188  0.00  0.00    +0.102 A 
ATOM      7  C   UNL     1      -0.330  -0.882   1.030  0.00  0.00    +0.045 A 
ATOM      8  C   UNL     1      -0.122  -2.207   0.583  0.00  0.00    +0.046 A 
ATOM      9  C   UNL     1       1.208  -2.384   0.495  0.00  0.00    +0.122 A 
ATOM     10  O   UNL     1       1.813  -1.241   0.857  0.00  0.00    -0.463 OA
ENDBRANCH   4   9
ENDBRANCH   1   4
BRANCH   1  11
ATOM     11  C   UNL     1       3.042  -3.212  -2.166  0.00  0.00    +0.193 C 
BRANCH  11  12
ATOM     12  C   UNL     1       3.906  -4.362  -2.615  0.00  0.00    -0.015 A 
ATOM     13  C   UNL     1       4.235  -5.367  -1.724  0.00  0.00    +0.006 A 
ATOM     14  C   UNL     1       5.028  -6.424  -2.132  0.00  0.00    +0.004 A 
ATOM     15  C   UNL     1       5.494  -6.477  -3.432  0.00  0.00    +0.045 A 
ATOM     16  C   UNL     1       5.166  -5.470  -4.327  0.00  0.00    +0.117 A 
ATOM     17  C   UNL     1       4.365  -4.414  -3.917  0.00  0.00    +0.051 A 
BRANCH  16  18
ATOM     18  O   UNL     1       5.623  -5.519  -5.606  0.00  0.00    -0.507 OA
ATOM     19  H   UNL     1       5.034  -5.983  -6.217  0.00  0.00    +0.292 HD
ENDBRANCH  16  18
ENDBRANCH  11  12
BRANCH  11  20
ATOM     20  C   UNL     1       3.850  -2.285  -1.296  0.00  0.00    +0.238 C 
ATOM     21  O   UNL     1       3.542  -2.121  -0.134  0.00  0.00    -0.273 OA
ATOM     22  N   UNL     1       4.916  -1.638  -1.808  0.00  0.00    -0.309 N 
ATOM     23  H   UNL     1       5.163  -1.770  -2.737  0.00  0.00    +0.149 HD
BRANCH  22  24
ATOM     24  C   UNL     1       5.702  -0.738  -0.961  0.00  0.00    +0.026 C 
ATOM     25  C   UNL     1       6.278  -1.521   0.220  0.00  0.00    +0.031 C 
ATOM     26  C   UNL     1       6.846  -0.137  -1.781  0.00  0.00    +0.031 C 
ATOM     27  C   UNL     1       4.804   0.386  -0.440  0.00  0.00    +0.031 C 
ENDBRANCH  22  24
ENDBRANCH  11  20
ENDBRANCH   1  11
BRANCH   2  28
ATOM     28  C   UNL     1      -0.322  -4.802  -1.265  0.00  0.00    +0.131 C 
BRANCH  28  29
ATOM     29  C   UNL     1      -1.353  -5.354  -2.215  0.00  0.00    -0.035 A 
ATOM     30  C   UNL     1      -2.346  -4.529  -2.712  0.00  0.00    +0.008 A 
ATOM     31  C   UNL     1      -3.293  -5.031  -3.584  0.00  0.00    +0.050 A 
ATOM     32  C   UNL     1      -3.251  -6.363  -3.962  0.00  0.00    +0.166 A 
ATOM     33  C   UNL     1      -2.251  -7.194  -3.462  0.00  0.00    +0.166 A 
ATOM     34  C   UNL     1      -1.302  -6.683  -2.593  0.00  0.00    +0.053 A 
ATOM     35  O   UNL     1      -2.425  -8.445  -3.979  0.00  0.00    -0.453 OA
ATOM     36  C   UNL     1      -3.776  -8.471  -4.477  0.00  0.00    +0.466 C 
ATOM     37  O   UNL     1      -4.051  -7.094  -4.793  0.00  0.00    -0.453 OA
ENDBRANCH  28  29
ENDBRANCH   2  28
TORSDOF 9
