REMARK  Name = ZINC36220542
REMARK  7 active torsions:
REMARK  status: ('A' for Active; 'I' for Inactive)
REMARK    1  A    between atoms: C_4  and  N_7
REMARK    2  A    between atoms: C_8  and  C_10
REMARK    3  A    between atoms: C_12  and  C_26
REMARK    4  A    between atoms: N_17  and  C_18
REMARK    5  A    between atoms: C_18  and  C_19
REMARK    6  A    between atoms: C_29  and  N_32
REMARK    7  A    between atoms: C_33  and  C_35
REMARK                            x       y       z     vdW  Elec       q    Type
REMARK                         _______ _______ _______ _____ _____    ______ ____
ROOT
ATOM      1  C   UNL     1       4.959  -2.696   0.172  0.00  0.00    +0.211 C 
ATOM      2  C   UNL     1       5.585  -2.904  -1.228  0.00  0.00    +0.238 C 
ATOM      3  O   UNL     1       5.121  -4.224  -1.571  0.00  0.00    -0.440 OA
ATOM      4  C   UNL     1       4.896  -4.895  -0.429  0.00  0.00    +0.405 C 
ATOM      5  O   UNL     1       4.817  -6.106  -0.365  0.00  0.00    -0.226 OA
ATOM      6  N   UNL     1       4.768  -4.082   0.642  0.00  0.00    -0.248 N 
ENDROOT
BRANCH   2   7
ATOM      7  C   UNL     1       5.069  -1.880  -2.206  0.00  0.00    -0.005 A 
ATOM      8  C   UNL     1       3.826  -2.047  -2.788  0.00  0.00    +0.009 A 
ATOM      9  C   UNL     1       3.350  -1.111  -3.685  0.00  0.00    +0.024 A 
ATOM     10  C   UNL     1       4.122   0.000  -4.001  0.00  0.00    +0.034 A 
ATOM     11  C   UNL     1       5.369   0.166  -3.414  0.00  0.00    +0.024 A 
ATOM     12  C   UNL     1       5.837  -0.772  -2.514  0.00  0.00    +0.009 A 
BRANCH  10  13
ATOM     13  N   UNL     1       3.643   0.950  -4.909  0.00  0.00    -0.279 N 
ATOM     14  C   UNL     1       4.497   1.575  -5.743  0.00  0.00    +0.284 C 
ATOM     15  O   UNL     1       5.694   1.376  -5.650  0.00  0.00    -0.266 OA
ATOM     16  H   UNL     1       2.696   1.159  -4.938  0.00  0.00    +0.155 HD
BRANCH  14  17
ATOM     17  C   UNL     1       3.984   2.495  -6.763  0.00  0.00    +0.189 A 
ATOM     18  C   UNL     1       4.735   3.186  -7.671  0.00  0.00    +0.054 A 
ATOM     19  C   UNL     1       3.839   3.938  -8.446  0.00  0.00    +0.042 A 
ATOM     20  C   UNL     1       2.596   3.677  -7.984  0.00  0.00    +0.196 A 
ATOM     21  O   UNL     1       2.688   2.804  -6.973  0.00  0.00    -0.458 OA
ENDBRANCH  14  17
ENDBRANCH  10  13
ENDBRANCH   2   7
BRANCH   1  23
ATOM     22  N   UNL     1       3.609  -0.633  -0.032  0.00  0.00    -0.284 N 
ATOM     23  C   UNL     1       3.639  -1.977   0.067  0.00  0.00    +0.242 C 
ATOM     24  O   UNL     1       2.603  -2.608   0.073  0.00  0.00    -0.273 OA
ATOM     25  H   UNL     1       4.438  -0.134  -0.105  0.00  0.00    +0.155 HD
BRANCH  22  29
ATOM     26  C   UNL     1      -0.040   1.376  -0.027  0.00  0.00    +0.000 A 
ATOM     27  C   UNL     1       1.065   1.951   0.574  0.00  0.00    +0.002 A 
ATOM     28  C   UNL     1       2.276   1.287   0.575  0.00  0.00    +0.023 A 
ATOM     29  C   UNL     1       2.384   0.042  -0.030  0.00  0.00    +0.033 A 
ATOM     30  C   UNL     1       1.272  -0.533  -0.632  0.00  0.00    +0.023 A 
ATOM     31  C   UNL     1       0.064   0.136  -0.629  0.00  0.00    +0.002 A 
ENDBRANCH  22  29
ENDBRANCH   1  23
BRANCH   6  32
ATOM     32  C   UNL     1       4.490  -4.496   2.020  0.00  0.00    +0.147 C 
BRANCH  32  33
ATOM     33  C   UNL     1       3.000  -4.529   2.244  0.00  0.00    -0.027 A 
ATOM     34  C   UNL     1       2.343  -3.397   2.690  0.00  0.00    +0.005 A 
ATOM     35  C   UNL     1       0.976  -3.426   2.896  0.00  0.00    +0.003 A 
ATOM     36  C   UNL     1       0.265  -4.587   2.656  0.00  0.00    +0.038 A 
ATOM     37  C   UNL     1       0.922  -5.721   2.209  0.00  0.00    +0.124 A 
ATOM     38  C   UNL     1       2.290  -5.689   1.997  0.00  0.00    +0.043 A 
ATOM     39  F   UNL     1       0.228  -6.856   1.974  0.00  0.00    -0.205 F 
ENDBRANCH  32  33
ENDBRANCH   6  32
TORSDOF 7
