REMARK  Name = ZINC05207081
REMARK  7 active torsions:
REMARK  status: ('A' for Active; 'I' for Inactive)
REMARK    1  A    between atoms: C_1  and  C_2
REMARK    2  A    between atoms: C_2  and  O_3
REMARK    3  A    between atoms: O_3  and  C_4
REMARK    4  A    between atoms: C_9  and  C_10
REMARK    5  A    between atoms: N_12  and  N_13
REMARK    6  A    between atoms: C_14  and  C_15
REMARK    7  A    between atoms: C_17  and  N_21
REMARK                            x       y       z     vdW  Elec       q    Type
REMARK                         _______ _______ _______ _____ _____    ______ ____
ROOT
ATOM      1  C   UNL     1       2.416   3.950  -0.001  0.00  0.00    +0.267 C 
ATOM      2  O   UNL     1       3.482   3.364  -0.014  0.00  0.00    -0.268 OA
ATOM      3  N   UNL     1       2.388   5.297   0.006  0.00  0.00    -0.203 N 
ATOM      4  H   UNL     1       1.538   5.765   0.017  0.00  0.00    +0.178 HD
ENDROOT
BRANCH   1  10
ATOM      5  C   UNL     1       1.179   1.784   0.000  0.00  0.00    +0.133 A 
ATOM      6  C   UNL     1      -0.013   1.076   0.008  0.00  0.00    +0.047 A 
ATOM      7  C   UNL     1      -1.218   1.749   0.017  0.00  0.00    +0.019 A 
ATOM      8  C   UNL     1      -1.247   3.135   0.030  0.00  0.00    +0.019 A 
ATOM      9  C   UNL     1      -0.072   3.855   0.022  0.00  0.00    +0.032 A 
ATOM     10  C   UNL     1       1.155   3.186   0.008  0.00  0.00    +0.081 A 
ATOM     11 BR   UNL     1      -2.907   4.041   0.049  0.00  0.00    -0.050 Br
BRANCH   5  12
ATOM     12  O   UNL     1       2.365   1.124  -0.015  0.00  0.00    -0.491 OA
BRANCH  12  14
ATOM     13  C   UNL     1       3.734  -0.867  -0.038  0.00  0.00    +0.048 C 
ATOM     14  C   UNL     1       2.312  -0.304  -0.022  0.00  0.00    +0.226 C 
ENDBRANCH  12  14
ENDBRANCH   5  12
ENDBRANCH   1  10
BRANCH   3  15
ATOM     15  N   UNL     1       3.587   6.023  -0.002  0.00  0.00    -0.187 NA
ATOM     16  C   UNL     1       3.559   7.321   0.005  0.00  0.00    +0.142 C 
BRANCH  16  17
ATOM     17  C   UNL     1       4.820   8.084  -0.003  0.00  0.00    +0.043 A 
ATOM     18  C   UNL     1       4.795   9.481  -0.002  0.00  0.00    +0.046 A 
ATOM     19  C   UNL     1       5.978  10.189  -0.004  0.00  0.00    +0.127 A 
ATOM     20  C   UNL     1       7.191   9.522  -0.020  0.00  0.00    +0.036 A 
ATOM     21  C   UNL     1       7.229   8.140  -0.027  0.00  0.00    +0.054 A 
ATOM     22  C   UNL     1       6.050   7.413  -0.019  0.00  0.00    +0.188 A 
ATOM     23  O   UNL     1       6.086   6.056  -0.026  0.00  0.00    -0.287 OA
BRANCH  19  24
ATOM     24  N   UNL     1       5.951  11.669   0.003  0.00  0.00    +0.056 N 
ATOM     25  O   UNL     1       6.995  12.297  -0.005  0.00  0.00    -0.126 OA
ATOM     26  O   UNL     1       4.886  12.259   0.016  0.00  0.00    -0.126 OA
ENDBRANCH  19  24
ENDBRANCH  16  17
ENDBRANCH   3  15
TORSDOF 6
