REMARK  Name = ZINC11017991
REMARK  9 active torsions:
REMARK  status: ('A' for Active; 'I' for Inactive)
REMARK    1  A    between atoms: C_4  and  C_7
REMARK    2  A    between atoms: C_7  and  N_8
REMARK    3  A    between atoms: N_8  and  C_9
REMARK    4  A    between atoms: C_9  and  C_10
REMARK    5  A    between atoms: C_10  and  C_11
REMARK    6  A    between atoms: C_14  and  C_16
REMARK    7  A    between atoms: C_16  and  S_17
REMARK    8  A    between atoms: S_17  and  C_18
REMARK    9  A    between atoms: N_22  and  C_23
REMARK                            x       y       z     vdW  Elec       q    Type
REMARK                         _______ _______ _______ _____ _____    ______ ____
ROOT
ATOM      1  C   UNL     1      -3.963   0.737   3.767  0.00  0.00    +0.173 C 
ENDROOT
BRANCH   1   3
ATOM      2  N   UNL     1      -4.521   0.372   6.149  0.00  0.00    -0.296 N 
ATOM      3  C   UNL     1      -3.673   0.888   5.238  0.00  0.00    +0.226 C 
ATOM      4  O   UNL     1      -2.676   1.475   5.602  0.00  0.00    -0.275 OA
BRANCH   2   5
ATOM      5  C   UNL     1      -4.239   0.519   7.579  0.00  0.00    +0.142 C 
BRANCH   5   9
ATOM      6  C   UNL     1      -6.020   4.124   9.019  0.00  0.00    +0.000 A 
ATOM      7  C   UNL     1      -6.735   2.942   9.045  0.00  0.00    +0.000 A 
ATOM      8  C   UNL     1      -6.159   1.775   8.579  0.00  0.00    +0.005 A 
ATOM      9  C   UNL     1      -4.867   1.791   8.087  0.00  0.00    -0.030 A 
ATOM     10  C   UNL     1      -4.150   2.973   8.065  0.00  0.00    +0.005 A 
ATOM     11  C   UNL     1      -4.729   4.140   8.527  0.00  0.00    +0.000 A 
ENDBRANCH   5   9
ENDBRANCH   2   5
BRANCH   2  12
ATOM     12  C   UNL     1      -5.725  -0.337   5.709  0.00  0.00    +0.117 C 
BRANCH  12  13
ATOM     13  C   UNL     1      -5.408  -1.824   5.538  0.00  0.00    +0.114 C 
BRANCH  13  14
ATOM     14  C   UNL     1      -6.647  -2.553   5.085  0.00  0.00    +0.212 C 
ATOM     15  O   UNL     1      -7.682  -1.943   4.916  0.00  0.00    -0.276 OA
ATOM     16  N   UNL     1      -6.605  -3.882   4.869  0.00  0.00    -0.329 N 
ATOM     17  H   UNL     1      -5.778  -4.370   5.004  0.00  0.00    +0.145 HD
ATOM     18  H   UNL     1      -7.403  -4.352   4.577  0.00  0.00    +0.145 HD
ENDBRANCH  13  14
ENDBRANCH  12  13
ENDBRANCH   2  12
ENDBRANCH   1   3
BRANCH   1  19
ATOM     19  S   UNL     1      -2.646   1.533   2.806  0.00  0.00    -0.076 S 
BRANCH  19  20
ATOM     20  C   UNL     1      -3.125   1.273   1.130  0.00  0.00    +0.198 A 
ATOM     21  N   UNL     1      -4.201   0.643   0.724  0.00  0.00    -0.120 NA
ATOM     22  N   UNL     1      -4.207   0.652  -0.676  0.00  0.00    -0.112 NA
ATOM     23  C   UNL     1      -3.137   1.291  -1.083  0.00  0.00    +0.225 A 
ATOM     24  N   UNL     1      -2.440   1.695   0.022  0.00  0.00    -0.257 N 
ATOM     25  N   UNL     1      -2.776   1.518  -2.405  0.00  0.00    -0.299 N 
ATOM     26  C   UNL     1      -1.485   0.856  -2.725  0.00  0.00    +0.108 C 
ATOM     27  C   UNL     1      -1.512   0.757  -4.271  0.00  0.00    +0.020 C 
ATOM     28  C   UNL     1      -2.996   0.446  -4.572  0.00  0.00    +0.020 C 
ATOM     29  C   UNL     1      -3.769   0.937  -3.334  0.00  0.00    +0.108 C 
BRANCH  24  30
ATOM     30  C   UNL     1      -1.233   2.411   0.021  0.00  0.00    +0.070 A 
ATOM     31  C   UNL     1      -1.248   3.799   0.035  0.00  0.00    +0.028 A 
ATOM     32  C   UNL     1      -0.058   4.501   0.027  0.00  0.00    +0.002 A 
ATOM     33  C   UNL     1       1.147   3.822   0.012  0.00  0.00    +0.002 A 
ATOM     34  C   UNL     1       1.166   2.440   0.004  0.00  0.00    +0.022 A 
ATOM     35  C   UNL     1      -0.021   1.732   0.012  0.00  0.00    +0.065 A 
ATOM     36 CL   UNL     1       0.002  -0.004   0.002  0.00  0.00    -0.081 Cl
ENDBRANCH  24  30
ENDBRANCH  19  20
ENDBRANCH   1  19
TORSDOF 9
