REMARK  Name = ZINC06848133
REMARK  14 active torsions:
REMARK  status: ('A' for Active; 'I' for Inactive)
REMARK    1  A    between atoms: C_1  and  C_2
REMARK    2  A    between atoms: C_2  and  C_3
REMARK    3  A    between atoms: C_3  and  C_5
REMARK    4  A    between atoms: C_3  and  N_65
REMARK    5  A    between atoms: N_9  and  C_10
REMARK    6  A    between atoms: C_10  and  C_11
REMARK    7  A    between atoms: C_10  and  C_12
REMARK    8  A    between atoms: C_10  and  C_13
REMARK    9  A    between atoms: C_14  and  C_15
REMARK   10  A    between atoms: C_14  and  N_65
REMARK   11  A    between atoms: C_20  and  C_21
REMARK   12  A    between atoms: C_20  and  N_65
REMARK   13  A    between atoms: C_25  and  C_34
REMARK   14  A    between atoms: C_26  and  C_33
REMARK                            x       y       z     vdW  Elec       q    Type
REMARK                         _______ _______ _______ _____ _____    ______ ____
ROOT
ATOM      1  N   UNL     1      -5.364   4.208  -1.597  0.00  0.00    +0.394 N 
ATOM      2  H   UNL     1      -5.030   4.252  -2.567  0.00  0.00    -0.080 HD
ENDROOT
BRANCH   1   3
ATOM      3  C   UNL     1      -6.697   4.842  -1.519  0.00  0.00    +0.003 C 
BRANCH   3   4
ATOM      4  C   UNL     1      -7.092   5.065  -0.082  0.00  0.00    +0.139 A 
ATOM      5  N   UNL     1      -6.304   5.436   0.898  0.00  0.00    -0.115 NA
ATOM      6  N   UNL     1      -7.014   5.518   1.970  0.00  0.00    -0.023 NA
ATOM      7  N   UNL     1      -8.234   5.208   1.700  0.00  0.00    -0.043 NA
ATOM      8  N   UNL     1      -8.324   4.928   0.444  0.00  0.00    -0.226 N 
BRANCH   8   9
ATOM      9  C   UNL     1      -9.537   4.531  -0.275  0.00  0.00    +0.059 C 
ATOM     10  C   UNL     1      -9.401   3.082  -0.746  0.00  0.00    +0.036 C 
ATOM     11  C   UNL     1     -10.745   4.652   0.657  0.00  0.00    +0.036 C 
ATOM     12  C   UNL     1      -9.735   5.445  -1.486  0.00  0.00    +0.036 C 
ENDBRANCH   8   9
ENDBRANCH   3   4
BRANCH   3  14
ATOM     13  C   UNL     1      -6.348   5.950  -3.731  0.00  0.00    +0.002 C 
ATOM     14  C   UNL     1      -6.647   6.185  -2.249  0.00  0.00    -0.011 C 
ENDBRANCH   3  14
ENDBRANCH   1   3
BRANCH   1  15
ATOM     15  C   UNL     1      -5.454   2.791  -1.184  0.00  0.00    -0.002 C 
BRANCH  15  16
ATOM     16  C   UNL     1      -6.090   2.002  -2.299  0.00  0.00    +0.089 A 
ATOM     17  C   UNL     1      -5.455   1.513  -3.379  0.00  0.00    +0.042 A 
ATOM     18  C   UNL     1      -6.427   0.845  -4.158  0.00  0.00    +0.041 A 
ATOM     19  C   UNL     1      -7.598   0.966  -3.508  0.00  0.00    +0.195 A 
ATOM     20  O   UNL     1      -7.387   1.662  -2.379  0.00  0.00    -0.470 OA
ENDBRANCH  15  16
ENDBRANCH   1  15
BRANCH   1  21
ATOM     21  C   UNL     1      -4.411   4.928  -0.727  0.00  0.00    -0.036 C 
BRANCH  21  22
ATOM     22  C   UNL     1      -3.010   4.616  -1.185  0.00  0.00    +0.001 A 
ATOM     23  C   UNL     1      -2.377   5.452  -2.046  0.00  0.00    +0.017 A 
ATOM     24  C   UNL     1      -1.018   5.117  -2.475  0.00  0.00    -0.001 A 
ATOM     25  C   UNL     1      -0.322   5.932  -3.373  0.00  0.00    +0.013 A 
ATOM     26  C   UNL     1       0.945   5.592  -3.755  0.00  0.00    -0.047 A 
ATOM     27  C   UNL     1       1.547   4.443  -3.259  0.00  0.00    -0.046 A 
ATOM     28  C   UNL     1       0.880   3.626  -2.373  0.00  0.00    +0.030 A 
ATOM     29  C   UNL     1      -0.413   3.949  -1.974  0.00  0.00    +0.049 A 
ATOM     30  N   UNL     1      -1.106   3.146  -1.093  0.00  0.00    -0.322 N 
ATOM     31  H   UNL     1      -0.673   2.319  -0.735  0.00  0.00    +0.169 HD
ATOM     32  C   UNL     1      -2.356   3.459  -0.709  0.00  0.00    +0.251 A 
ATOM     33  O   UNL     1      -2.939   2.726   0.071  0.00  0.00    -0.268 OA
ATOM     34  C   UNL     1       2.945   4.087  -3.694  0.00  0.00    +0.044 C 
ATOM     35  C   UNL     1       1.695   6.470  -4.723  0.00  0.00    +0.044 C 
ENDBRANCH  21  22
ENDBRANCH   1  21
TORSDOF 8
