REMARK  Name = ZINC04161142
REMARK  13 active torsions:
REMARK  status: ('A' for Active; 'I' for Inactive)
REMARK    1  A    between atoms: C_1  and  C_2
REMARK    2  A    between atoms: C_6  and  N_9
REMARK    3  A    between atoms: C_7  and  C_8
REMARK    4  A    between atoms: N_9  and  C_10
REMARK    5  A    between atoms: C_10  and  C_11
REMARK    6  A    between atoms: N_13  and  C_14
REMARK    7  A    between atoms: C_14  and  C_15
REMARK    8  A    between atoms: C_14  and  C_16
REMARK    9  A    between atoms: C_14  and  C_17
REMARK   10  A    between atoms: C_18  and  C_20
REMARK   11  A    between atoms: C_20  and  N_21
REMARK   12  A    between atoms: C_23  and  C_26
REMARK   13  A    between atoms: C_29  and  C_31
REMARK                            x       y       z     vdW  Elec       q    Type
REMARK                         _______ _______ _______ _____ _____    ______ ____
ROOT
ATOM      1  N   UNL     1      -0.698   1.558   1.213  0.00  0.00    -0.261 N 
ATOM      2  C   UNL     1      -1.675   0.814   1.769  0.00  0.00    +0.243 C 
ATOM      3  O   UNL     1      -1.986  -0.248   1.271  0.00  0.00    -0.273 OA
ENDROOT
BRANCH   1   9
ATOM      4  C   UNL     1       2.083   4.097   4.374  0.00  0.00    +0.044 C 
ATOM      5  C   UNL     1       1.006   4.042   3.322  0.00  0.00    -0.046 A 
ATOM      6  C   UNL     1       0.369   5.204   2.924  0.00  0.00    +0.004 A 
ATOM      7  C   UNL     1      -0.620   5.158   1.959  0.00  0.00    +0.002 A 
ATOM      8  C   UNL     1      -0.977   3.951   1.390  0.00  0.00    +0.024 A 
ATOM      9  C   UNL     1      -0.340   2.783   1.788  0.00  0.00    +0.040 A 
ATOM     10  C   UNL     1       0.650   2.832   2.761  0.00  0.00    -0.026 A 
ATOM     11  C   UNL     1       1.339   1.565   3.200  0.00  0.00    +0.046 C 
ENDBRANCH   1   9
BRANCH   1  12
ATOM     12  C   UNL     1      -0.013   1.086   0.008  0.00  0.00    +0.209 C 
BRANCH  12  13
ATOM     13  C   UNL     1      -0.742   1.585  -1.213  0.00  0.00    +0.231 C 
ATOM     14  O   UNL     1      -1.736   2.268  -1.088  0.00  0.00    -0.274 OA
ATOM     15  N   UNL     1      -0.288   1.272  -2.443  0.00  0.00    -0.309 N 
ATOM     16  H   UNL     1       0.507   0.726  -2.543  0.00  0.00    +0.149 HD
BRANCH  15  17
ATOM     17  C   UNL     1      -0.997   1.758  -3.630  0.00  0.00    +0.026 C 
ATOM     18  C   UNL     1      -1.018   3.288  -3.622  0.00  0.00    +0.031 C 
ATOM     19  C   UNL     1      -0.281   1.264  -4.889  0.00  0.00    +0.031 C 
ATOM     20  C   UNL     1      -2.432   1.228  -3.619  0.00  0.00    +0.031 C 
ENDBRANCH  15  17
ENDBRANCH  12  13
ENDBRANCH   1  12
BRANCH   2  21
ATOM     21  C   UNL     1      -2.380   1.300   3.009  0.00  0.00    +0.264 C 
BRANCH  21  22
ATOM     22  N   UNL     1      -3.391   0.319   3.412  0.00  0.00    -0.154 N 
ATOM     23  N   UNL     1      -4.619   0.312   3.023  0.00  0.00    -0.127 NA
ATOM     24  C   UNL     1      -5.217  -0.718   3.592  0.00  0.00    +0.239 A 
ATOM     25  N   UNL     1      -4.292  -1.328   4.349  0.00  0.00    -0.105 NA
ATOM     26  N   UNL     1      -3.192  -0.668   4.214  0.00  0.00    -0.045 NA
BRANCH  24  27
ATOM     27  C   UNL     1      -6.631  -1.119   3.431  0.00  0.00    +0.175 A 
ATOM     28  C   UNL     1      -7.230  -2.185   4.025  0.00  0.00    +0.053 A 
ATOM     29  C   UNL     1      -8.573  -2.187   3.595  0.00  0.00    +0.045 A 
ATOM     30  C   UNL     1      -8.722  -1.139   2.763  0.00  0.00    +0.103 A 
ATOM     31  O   UNL     1      -7.547  -0.496   2.666  0.00  0.00    -0.457 OA
ATOM     32  C   UNL     1      -9.996  -0.752   2.057  0.00  0.00    +0.086 C 
ENDBRANCH  24  27
ENDBRANCH  21  22
ENDBRANCH   2  21
TORSDOF 7
