REMARK  Name = ZINC10770640
REMARK  5 active torsions:
REMARK  status: ('A' for Active; 'I' for Inactive)
REMARK    1  A    between atoms: C_3  and  N_10
REMARK    2  A    between atoms: C_5  and  N_7
REMARK    3  A    between atoms: C_11  and  C_13
REMARK    4  A    between atoms: N_18  and  S_20
REMARK    5  A    between atoms: S_20  and  C_23
REMARK                            x       y       z     vdW  Elec       q    Type
REMARK                         _______ _______ _______ _____ _____    ______ ____
ROOT
ATOM      1  C   UNL     1      -3.748   7.553  -0.152  0.00  0.00    +0.091 C 
ATOM      2  C   UNL     1      -2.983   7.986  -1.405  0.00  0.00    +0.015 C 
ATOM      3  C   UNL     1      -2.971   9.514  -1.495  0.00  0.00    +0.018 C 
ATOM      4  C   UNL     1      -4.410  10.026  -1.606  0.00  0.00    +0.109 C 
ATOM      5  N   UNL     1      -5.190   9.494  -0.480  0.00  0.00    -0.175 NA
ATOM      6  C   UNL     1      -5.196   8.043  -0.248  0.00  0.00    +0.122 C 
ENDROOT
BRANCH   1   8
ATOM      7  N   UNL     1      -2.558   5.394   0.045  0.00  0.00    -0.285 N 
ATOM      8  C   UNL     1      -3.732   6.050  -0.047  0.00  0.00    +0.222 C 
ATOM      9  O   UNL     1      -4.775   5.431  -0.046  0.00  0.00    -0.275 OA
ATOM     10  H   UNL     1      -1.729   5.891   0.121  0.00  0.00    +0.155 HD
BRANCH   7  13
ATOM     11  C   UNL     1      -3.446   1.910  -0.730  0.00  0.00    +0.004 A 
ATOM     12  C   UNL     1      -3.470   3.291  -0.718  0.00  0.00    +0.023 A 
ATOM     13  C   UNL     1      -2.536   3.994   0.031  0.00  0.00    +0.036 A 
ATOM     14  C   UNL     1      -1.583   3.306   0.770  0.00  0.00    +0.056 A 
ATOM     15  C   UNL     1      -1.561   1.925   0.750  0.00  0.00    +0.128 A 
ATOM     16  C   UNL     1      -2.492   1.228   0.003  0.00  0.00    +0.033 A 
BRANCH  15  17
ATOM     17  N   UNL     1      -0.542   1.191   1.534  0.00  0.00    +0.056 N 
ATOM     18  O   UNL     1      -0.525  -0.027   1.521  0.00  0.00    -0.126 OA
ATOM     19  O   UNL     1       0.282   1.805   2.188  0.00  0.00    -0.126 OA
ENDBRANCH  15  17
ENDBRANCH   7  13
ENDBRANCH   1   8
BRANCH   5  20
ATOM     20  S   UNL     1      -6.045  10.511   0.509  0.00  0.00    +0.067 S 
ATOM     21  O   UNL     1      -6.202   9.833   1.749  0.00  0.00    -0.152 OA
ATOM     22  O   UNL     1      -5.428  11.787   0.411  0.00  0.00    -0.152 OA
BRANCH  20  23
ATOM     23  C   UNL     1      -7.657  10.676  -0.182  0.00  0.00    +0.144 A 
ATOM     24  C   UNL     1      -8.764   9.927   0.044  0.00  0.00    +0.038 A 
ATOM     25  C   UNL     1      -9.936  10.247  -0.614  0.00  0.00    +0.030 A 
ATOM     26  C   UNL     1      -9.941  11.295  -1.477  0.00  0.00    +0.080 A 
ATOM     27  S   UNL     1      -8.254  11.869  -1.368  0.00  0.00    -0.057 S 
ATOM     28 CL   UNL     1     -11.248  11.915  -2.436  0.00  0.00    -0.076 Cl
ENDBRANCH  20  23
ENDBRANCH   5  20
TORSDOF 5
