REMARK  Name = ZINC65623534
REMARK  6 active torsions:
REMARK  status: ('A' for Active; 'I' for Inactive)
REMARK    1  A    between atoms: C_1  and  C_2
REMARK    2  A    between atoms: C_7  and  N_8
REMARK    3  A    between atoms: C_11  and  C_13
REMARK    4  A    between atoms: N_15  and  N_16
REMARK    5  A    between atoms: N_19  and  C_20
REMARK    6  A    between atoms: C_20  and  C_21
REMARK                            x       y       z     vdW  Elec       q    Type
REMARK                         _______ _______ _______ _____ _____    ______ ____
ROOT
ATOM      1  N   UNL     1       0.168   0.117   2.335  0.00  0.00    -0.235 N 
ATOM      2  C   UNL     1       0.380  -0.393   3.579  0.00  0.00    +0.049 A 
ATOM      3  C   UNL     1       0.384   0.649   4.437  0.00  0.00    +0.006 A 
ATOM      4  C   UNL     1       0.166   1.801   3.646  0.00  0.00    +0.152 A 
ATOM      5  N   UNL     1       0.052   1.395   2.397  0.00  0.00    -0.161 NA
ATOM      6  C   UNL     1       0.614   0.170   5.850  0.00  0.00    +0.040 C 
ATOM      7  C   UNL     1       0.327  -1.348   5.808  0.00  0.00    +0.011 C 
ATOM      8  C   UNL     1       0.608  -1.687   4.328  0.00  0.00    +0.056 C 
ENDROOT
BRANCH   1  15
ATOM      9  C   UNL     1      -1.984   0.623   0.543  0.00  0.00    +0.046 C 
ATOM     10  C   UNL     1      -0.940  -0.426   0.257  0.00  0.00    -0.025 A 
ATOM     11  C   UNL     1      -1.007  -1.170  -0.905  0.00  0.00    +0.005 A 
ATOM     12  C   UNL     1      -0.049  -2.132  -1.168  0.00  0.00    +0.000 A 
ATOM     13  C   UNL     1       0.979  -2.352  -0.269  0.00  0.00    +0.002 A 
ATOM     14  C   UNL     1       1.052  -1.611   0.894  0.00  0.00    +0.028 A 
ATOM     15  C   UNL     1       0.094  -0.640   1.159  0.00  0.00    +0.069 A 
ENDBRANCH   1  15
BRANCH   4  16
ATOM     16  C   UNL     1       0.086   3.195   4.128  0.00  0.00    +0.281 C 
ATOM     17  O   UNL     1       0.213   3.437   5.312  0.00  0.00    -0.267 OA
ATOM     18  N   UNL     1      -0.128   4.198   3.254  0.00  0.00    -0.228 N 
ATOM     19  H   UNL     1      -0.229   4.005   2.309  0.00  0.00    +0.173 HD
BRANCH  18  20
ATOM     20  N   UNL     1      -0.204   5.520   3.710  0.00  0.00    -0.218 N 
ATOM     21  C   UNL     1      -0.418   6.524   2.837  0.00  0.00    +0.316 C 
ATOM     22  O   UNL     1      -0.483   7.671   3.233  0.00  0.00    -0.251 OA
ATOM     23  N   UNL     1      -0.559   6.255   1.523  0.00  0.00    -0.290 N 
ATOM     24  H   UNL     1      -0.102   5.714   4.655  0.00  0.00    +0.174 HD
ATOM     25  H   UNL     1      -0.506   5.340   1.207  0.00  0.00    +0.151 HD
BRANCH  23  26
ATOM     26  C   UNL     1      -0.791   7.346   0.573  0.00  0.00    +0.219 C 
BRANCH  26  27
ATOM     27  C   UNL     1      -0.914   6.774  -0.840  0.00  0.00    +0.405 C 
ATOM     28  F   UNL     1      -1.987   5.877  -0.888  0.00  0.00    -0.169 F 
ATOM     29  F   UNL     1      -1.136   7.816  -1.747  0.00  0.00    -0.169 F 
ATOM     30  F   UNL     1       0.268   6.106  -1.177  0.00  0.00    -0.169 F 
ENDBRANCH  26  27
ENDBRANCH  23  26
ENDBRANCH  18  20
ENDBRANCH   4  16
TORSDOF 5
