REMARK  Name = ZINC43962369
REMARK  8 active torsions:
REMARK  status: ('A' for Active; 'I' for Inactive)
REMARK    1  A    between atoms: C_1  and  C_2
REMARK    2  A    between atoms: C_4  and  N_29
REMARK    3  A    between atoms: C_7  and  S_8
REMARK    4  A    between atoms: S_8  and  N_11
REMARK    5  A    between atoms: N_11  and  C_12
REMARK    6  A    between atoms: C_12  and  C_13
REMARK    7  A    between atoms: N_21  and  C_22
REMARK    8  A    between atoms: C_30  and  C_32
REMARK                            x       y       z     vdW  Elec       q    Type
REMARK                         _______ _______ _______ _____ _____    ______ ____
ROOT
ATOM      1  C   UNL     1       2.740   1.718   2.736  0.00  0.00    +0.109 C 
ENDROOT
BRANCH   1   2
ATOM      2  C   UNL     1       3.744   2.331   3.715  0.00  0.00    +0.007 C 
ATOM      3  C   UNL     1       2.993   3.142   4.774  0.00  0.00    +0.024 C 
ATOM      4  C   UNL     1       3.999   3.725   5.772  0.00  0.00    +0.109 C 
ATOM      5  N   UNL     1       5.010   4.491   5.030  0.00  0.00    -0.285 N 
ATOM      6  C   UNL     1       5.727   3.834   3.930  0.00  0.00    +0.109 C 
ATOM      7  C   UNL     1       4.702   3.249   2.953  0.00  0.00    +0.024 C 
ATOM      8  C   UNL     1       5.274   5.773   5.354  0.00  0.00    +0.306 C 
ATOM      9  O   UNL     1       4.743   6.277   6.325  0.00  0.00    -0.252 OA
ATOM     10  N   UNL     1       6.127   6.496   4.601  0.00  0.00    -0.269 N 
ATOM     11  H   UNL     1       6.504   6.114   3.794  0.00  0.00    +0.156 HD
BRANCH  10  12
ATOM     12  C   UNL     1       6.468   7.799   4.985  0.00  0.00    +0.035 A 
ATOM     13  C   UNL     1       6.571   8.123   6.331  0.00  0.00    +0.026 A 
ATOM     14  C   UNL     1       6.907   9.408   6.708  0.00  0.00    +0.040 A 
ATOM     15  C   UNL     1       7.142  10.374   5.744  0.00  0.00    +0.124 A 
ATOM     16  C   UNL     1       7.039  10.053   4.401  0.00  0.00    +0.040 A 
ATOM     17  C   UNL     1       6.708   8.768   4.020  0.00  0.00    +0.026 A 
ATOM     18  F   UNL     1       7.471  11.631   6.114  0.00  0.00    -0.205 F 
ENDBRANCH  10  12
ENDBRANCH   1   2
BRANCH   1  19
ATOM     19  N   UNL     1       1.898   0.749   3.443  0.00  0.00    -0.190 NA
ATOM     20  H   UNL     1       2.190   0.382   4.292  0.00  0.00    +0.148 HD
BRANCH  19  21
ATOM     21  S   UNL     1       0.449   0.281   2.793  0.00  0.00    +0.059 S 
ATOM     22  O   UNL     1      -0.238   1.472   2.434  0.00  0.00    -0.153 OA
ATOM     23  O   UNL     1      -0.104  -0.679   3.682  0.00  0.00    -0.153 OA
BRANCH  21  30
ATOM     24  C   UNL     1       2.014  -2.300   2.633  0.00  0.00    +0.046 C 
ATOM     25  C   UNL     1       1.528  -1.746   1.318  0.00  0.00    -0.022 A 
ATOM     26  C   UNL     1       1.802  -2.418   0.143  0.00  0.00    +0.028 A 
ATOM     27  C   UNL     1       1.354  -1.907  -1.068  0.00  0.00    +0.034 A 
ATOM     28  C   UNL     1       0.631  -0.721  -1.093  0.00  0.00    +0.025 A 
ATOM     29  C   UNL     1       0.360  -0.054   0.086  0.00  0.00    +0.030 A 
ATOM     30  C   UNL     1       0.803  -0.569   1.290  0.00  0.00    +0.108 A 
BRANCH  27  31
ATOM     31  N   UNL     1       1.630  -2.584  -2.261  0.00  0.00    -0.286 N 
ATOM     32  C   UNL     1       1.699  -3.930  -2.270  0.00  0.00    +0.214 C 
ATOM     33  O   UNL     1       1.427  -4.559  -1.269  0.00  0.00    -0.276 OA
ATOM     34  C   UNL     1       2.114  -4.655  -3.525  0.00  0.00    +0.109 C 
ATOM     35  H   UNL     1       1.772  -2.086  -3.080  0.00  0.00    +0.155 HD
ENDBRANCH  27  31
ENDBRANCH  21  30
ENDBRANCH  19  21
ENDBRANCH   1  19
TORSDOF 6
