REMARK  Name = ZINC23995460
REMARK  7 active torsions:
REMARK  status: ('A' for Active; 'I' for Inactive)
REMARK    1  A    between atoms: C_1  and  C_2
REMARK    2  A    between atoms: C_2  and  C_3
REMARK    3  A    between atoms: C_7  and  C_25
REMARK    4  A    between atoms: C_8  and  N_9
REMARK    5  A    between atoms: C_10  and  C_12
REMARK    6  A    between atoms: C_12  and  N_13
REMARK    7  A    between atoms: C_25  and  C_26
REMARK                            x       y       z     vdW  Elec       q    Type
REMARK                         _______ _______ _______ _____ _____    ______ ____
ROOT
ATOM      1  N   UNL     1      -2.150   4.399   0.136  0.00  0.00    -0.284 N 
ATOM      2  C   UNL     1      -2.929   5.447  -0.197  0.00  0.00    +0.235 C 
ATOM      3  O   UNL     1      -2.838   6.490   0.416  0.00  0.00    -0.274 OA
ATOM      4  H   UNL     1      -2.154   3.491  -0.485  0.00  0.00    +0.155 HD
ENDROOT
BRANCH   1  10
ATOM      5  C   UNL     1       0.014   4.760   1.145  0.00  0.00    -0.026 A 
ATOM      6  C   UNL     1       0.814   4.831   2.269  0.00  0.00    +0.007 A 
ATOM      7  C   UNL     1       0.272   4.604   3.521  0.00  0.00    +0.020 A 
ATOM      8  C   UNL     1      -1.073   4.305   3.652  0.00  0.00    +0.046 A 
ATOM      9  C   UNL     1      -1.878   4.233   2.530  0.00  0.00    -0.008 A 
ATOM     10  C   UNL     1      -1.337   4.466   1.273  0.00  0.00    +0.041 A 
ATOM     11 CL   UNL     1      -1.749   4.020   5.225  0.00  0.00    -0.083 Cl
BRANCH   5  13
ATOM     12  C   UNL     1       0.395   6.473  -0.607  0.00  0.00    +0.009 C 
ATOM     13  C   UNL     1       0.607   5.008  -0.218  0.00  0.00    +0.033 C 
ENDBRANCH   5  13
BRANCH   9  14
ATOM     14  C   UNL     1      -3.342   3.907   2.673  0.00  0.00    +0.035 C 
ATOM     15  C   UNL     1      -4.152   5.205   2.716  0.00  0.00    +0.009 C 
ENDBRANCH   9  14
ENDBRANCH   1  10
BRANCH   2  16
ATOM     16  C   UNL     1      -3.913   5.324  -1.332  0.00  0.00    +0.214 C 
BRANCH  16  17
ATOM     17  N   UNL     1      -4.633   6.589  -1.494  0.00  0.00    -0.215 N 
ATOM     18  C   UNL     1      -4.225   7.597  -2.293  0.00  0.00    +0.247 C 
ATOM     19  O   UNL     1      -3.231   7.627  -2.988  0.00  0.00    -0.273 OA
ATOM     20  C   UNL     1      -5.268   8.680  -2.141  0.00  0.00    +0.113 C 
ATOM     21  C   UNL     1      -5.939   8.963  -3.481  0.00  0.00    +0.035 C 
ATOM     22  C   UNL     1      -7.010  10.042  -3.300  0.00  0.00    +0.003 C 
ATOM     23  C   UNL     1      -6.362  11.317  -2.756  0.00  0.00    +0.000 C 
ATOM     24  C   UNL     1      -5.714  11.023  -1.402  0.00  0.00    +0.003 C 
ATOM     25  C   UNL     1      -4.638   9.948  -1.575  0.00  0.00    +0.035 C 
ATOM     26  N   UNL     1      -6.233   8.115  -1.190  0.00  0.00    -0.285 N 
ATOM     27  C   UNL     1      -5.780   6.887  -0.872  0.00  0.00    +0.310 C 
ATOM     28  O   UNL     1      -6.348   6.135  -0.105  0.00  0.00    -0.252 OA
ATOM     29  H   UNL     1      -7.113   8.701  -0.886  0.00  0.00    +0.151 HD
ENDBRANCH  16  17
ENDBRANCH   2  16
TORSDOF 5
