REMARK  Name = ZINC23358292
REMARK  13 active torsions:
REMARK  status: ('A' for Active; 'I' for Inactive)
REMARK    1  A    between atoms: C_1  and  C_2
REMARK    2  A    between atoms: C_2  and  C_3
REMARK    3  A    between atoms: C_2  and  C_4
REMARK    4  A    between atoms: C_4  and  N_5
REMARK    5  A    between atoms: C_6  and  N_33
REMARK    6  A    between atoms: C_7  and  N_14
REMARK    7  A    between atoms: N_14  and  C_15
REMARK    8  A    between atoms: N_14  and  C_19
REMARK    9  A    between atoms: C_15  and  C_16
REMARK   10  A    between atoms: C_16  and  C_17
REMARK   11  A    between atoms: C_16  and  C_18
REMARK   12  A    between atoms: C_19  and  C_20
REMARK   13  A    between atoms: C_25  and  C_27
REMARK                            x       y       z     vdW  Elec       q    Type
REMARK                         _______ _______ _______ _____ _____    ______ ____
ROOT
ATOM      1  N   UNL     1       5.293  -5.956  -0.109  0.00  0.00    -0.314 N 
ENDROOT
BRANCH   1   4
ATOM      2  N   UNL     1       3.735  -8.905   1.423  0.00  0.00    -0.280 N 
ATOM      3  C   UNL     1       4.547  -7.807   1.253  0.00  0.00    +0.127 A 
ATOM      4  C   UNL     1       4.470  -7.089   0.091  0.00  0.00    +0.134 A 
ATOM      5  C   UNL     1       3.556  -7.490  -0.900  0.00  0.00    +0.277 A 
ATOM      6  O   UNL     1       3.465  -6.863  -1.942  0.00  0.00    -0.266 OA
ATOM      7  N   UNL     1       2.784  -8.576  -0.693  0.00  0.00    -0.273 N 
ATOM      8  H   UNL     1       2.074  -8.901  -1.467  0.00  0.00    +0.173 HD
ATOM      9  C   UNL     1       2.873  -9.270   0.456  0.00  0.00    +0.331 A 
ATOM     10  O   UNL     1       2.163 -10.243   0.624  0.00  0.00    -0.246 OA
BRANCH   3  11
ATOM     11  N   UNL     1       5.429  -7.435   2.242  0.00  0.00    -0.343 N 
ATOM     12  H   UNL     1       6.075  -6.556   2.101  0.00  0.00    +0.144 HD
ATOM     13  H   UNL     1       5.486  -8.016   3.174  0.00  0.00    +0.144 HD
ENDBRANCH   3  11
BRANCH   2  14
ATOM     14  C   UNL     1       3.809  -9.681   2.663  0.00  0.00    +0.131 C 
BRANCH  14  16
ATOM     15  C   UNL     1       1.392  -9.302   3.169  0.00  0.00    +0.009 C 
ATOM     16  C   UNL     1       2.821  -9.110   3.682  0.00  0.00    +0.003 C 
ATOM     17  C   UNL     1       2.986  -9.839   5.017  0.00  0.00    +0.009 C 
ENDBRANCH  14  16
ENDBRANCH   2  14
ENDBRANCH   1   4
BRANCH   1  18
ATOM     18  C   UNL     1       6.155  -6.133  -1.286  0.00  0.00    +0.109 C 
BRANCH  18  19
ATOM     19  C   UNL     1       7.341  -5.171  -1.198  0.00  0.00    +0.000 C 
ATOM     20  C   UNL     1       8.200  -5.529   0.017  0.00  0.00    +0.009 C 
ATOM     21  C   UNL     1       8.185  -5.284  -2.470  0.00  0.00    +0.009 C 
ENDBRANCH  18  19
ENDBRANCH   1  18
BRANCH   1  22
ATOM     22  C   UNL     1       4.488  -4.734  -0.226  0.00  0.00    +0.203 C 
BRANCH  22  23
ATOM     23  C   UNL     1       4.003  -4.319   1.140  0.00  0.00    +0.252 C 
ATOM     24  O   UNL     1       4.235  -5.018   2.103  0.00  0.00    -0.272 OA
ATOM     25  N   UNL     1       3.313  -3.171   1.290  0.00  0.00    -0.191 N 
ATOM     26  C   UNL     1       2.785  -2.651   2.561  0.00  0.00    +0.141 C 
ATOM     27  C   UNL     1       2.096  -1.333   2.153  0.00  0.00    +0.078 C 
ATOM     28  C   UNL     1       2.318  -1.253   0.660  0.00  0.00    +0.068 C 
ATOM     29  N   UNL     1       2.979  -2.287   0.267  0.00  0.00    -0.181 NA
BRANCH  28  30
ATOM     30  C   UNL     1       1.844  -0.163  -0.214  0.00  0.00    -0.002 A 
ATOM     31  C   UNL     1       2.110  -0.197  -1.585  0.00  0.00    +0.010 A 
ATOM     32  C   UNL     1       1.664   0.826  -2.396  0.00  0.00    +0.001 A 
ATOM     33  C   UNL     1       0.956   1.884  -1.854  0.00  0.00    +0.000 A 
ATOM     34  C   UNL     1       0.690   1.924  -0.497  0.00  0.00    +0.001 A 
ATOM     35  C   UNL     1       1.129   0.908   0.326  0.00  0.00    +0.010 A 
ENDBRANCH  28  30
ENDBRANCH  22  23
ENDBRANCH   1  22
TORSDOF 9
