REMARK  Name = ZINC09092807
REMARK  11 active torsions:
REMARK  status: ('A' for Active; 'I' for Inactive)
REMARK    1  A    between atoms: C_1  and  C_2
REMARK    2  A    between atoms: C_2  and  N_3
REMARK    3  A    between atoms: N_3  and  C_4
REMARK    4  A    between atoms: N_3  and  C_31
REMARK    5  A    between atoms: C_7  and  N_10
REMARK    6  A    between atoms: C_11  and  C_13
REMARK    7  A    between atoms: C_13  and  N_14
REMARK    8  A    between atoms: C_17  and  C_21
REMARK    9  A    between atoms: C_17  and  C_22
REMARK   10  A    between atoms: C_31  and  C_32
REMARK   11  A    between atoms: C_31  and  C_33
REMARK                            x       y       z     vdW  Elec       q    Type
REMARK                         _______ _______ _______ _____ _____    ______ ____
ROOT
ATOM      1  N   UNL     1      -6.196   2.641   0.223  0.00  0.00    -0.215 N 
ATOM      2  C   UNL     1      -6.724   1.913  -0.780  0.00  0.00    +0.251 C 
ATOM      3  O   UNL     1      -6.472   2.004  -1.962  0.00  0.00    -0.272 OA
ATOM      4  C   UNL     1      -7.697   0.954  -0.122  0.00  0.00    +0.135 C 
ATOM      5  N   UNL     1      -7.601   1.291   1.309  0.00  0.00    -0.281 N 
ATOM      6  C   UNL     1      -6.700   2.285   1.410  0.00  0.00    +0.310 C 
ATOM      7  O   UNL     1      -6.381   2.802   2.463  0.00  0.00    -0.252 OA
ATOM      8  C   UNL     1      -7.280  -0.498  -0.363  0.00  0.00    +0.047 C 
ATOM      9  H   UNL     1      -8.090   0.875   2.036  0.00  0.00    +0.152 HD
ENDROOT
BRANCH   4  10
ATOM     10  C   UNL     1      -9.096   1.194  -0.630  0.00  0.00    -0.012 A 
ATOM     11  C   UNL     1      -9.296   1.586  -1.940  0.00  0.00    +0.010 A 
ATOM     12  C   UNL     1     -10.578   1.802  -2.412  0.00  0.00    +0.050 A 
ATOM     13  C   UNL     1     -11.664   1.636  -1.568  0.00  0.00    +0.166 A 
ATOM     14  C   UNL     1     -11.462   1.246  -0.247  0.00  0.00    +0.167 A 
ATOM     15  C   UNL     1     -10.175   1.026   0.218  0.00  0.00    +0.055 A 
ATOM     16  O   UNL     1     -12.675   1.154   0.371  0.00  0.00    -0.453 OA
ATOM     17  C   UNL     1     -13.645   1.093  -0.692  0.00  0.00    +0.466 C 
ATOM     18  O   UNL     1     -13.004   1.788  -1.778  0.00  0.00    -0.453 OA
ENDBRANCH   4  10
BRANCH   1  19
ATOM     19  C   UNL     1      -5.198   3.697   0.037  0.00  0.00    +0.214 C 
BRANCH  19  21
ATOM     20  N   UNL     1      -2.732   3.892  -0.015  0.00  0.00    -0.284 N 
ATOM     21  C   UNL     1      -3.816   3.103   0.127  0.00  0.00    +0.235 C 
ATOM     22  O   UNL     1      -3.678   1.915   0.328  0.00  0.00    -0.274 OA
ATOM     23  H   UNL     1      -2.840   4.853  -0.096  0.00  0.00    +0.155 HD
BRANCH  20  27
ATOM     24  C   UNL     1       1.080   2.204  -0.109  0.00  0.00    +0.030 A 
ATOM     25  C   UNL     1       0.885   3.447   0.479  0.00  0.00    +0.025 A 
ATOM     26  C   UNL     1      -0.378   4.003   0.514  0.00  0.00    +0.025 A 
ATOM     27  C   UNL     1      -1.451   3.325  -0.047  0.00  0.00    +0.034 A 
ATOM     28  C   UNL     1      -1.257   2.082  -0.635  0.00  0.00    +0.025 A 
ATOM     29  C   UNL     1       0.005   1.523  -0.666  0.00  0.00    +0.025 A 
BRANCH  24  30
ATOM     30  N   UNL     1       2.359   1.638  -0.141  0.00  0.00    -0.328 N 
BRANCH  30  31
ATOM     31  C   UNL     1       2.545   0.276  -0.649  0.00  0.00    +0.067 C 
ATOM     32  C   UNL     1       3.380   0.319  -1.930  0.00  0.00    +0.027 C 
ATOM     33  C   UNL     1       3.268  -0.566   0.404  0.00  0.00    +0.027 C 
ENDBRANCH  30  31
BRANCH  30  35
ATOM     34  C   UNL     1       3.716   2.151   1.828  0.00  0.00    +0.024 C 
ATOM     35  C   UNL     1       3.513   2.406   0.333  0.00  0.00    +0.102 C 
ENDBRANCH  30  35
ENDBRANCH  24  30
ENDBRANCH  20  27
ENDBRANCH  19  21
ENDBRANCH   1  19
TORSDOF 7
