REMARK  Name = ZINC58611148
REMARK  7 active torsions:
REMARK  status: ('A' for Active; 'I' for Inactive)
REMARK    1  A    between atoms: C_1  and  C_2
REMARK    2  A    between atoms: C_2  and  C_4
REMARK    3  A    between atoms: C_2  and  S_17
REMARK    4  A    between atoms: N_6  and  C_7
REMARK    5  A    between atoms: C_10  and  S_13
REMARK    6  A    between atoms: S_13  and  N_16
REMARK    7  A    between atoms: S_17  and  C_18
REMARK                            x       y       z     vdW  Elec       q    Type
REMARK                         _______ _______ _______ _____ _____    ______ ____
ROOT
ATOM      1  C   UNL     1      -1.412  -0.524   0.013  0.00  0.00    +0.230 C 
ATOM      2  O   UNL     1      -1.931  -0.892  -1.020  0.00  0.00    -0.274 OA
ATOM      3  N   UNL     1      -2.103  -0.575   1.169  0.00  0.00    -0.285 N 
ATOM      4  H   UNL     1      -1.668  -0.345   2.004  0.00  0.00    +0.155 HD
ENDROOT
BRANCH   3   5
ATOM      5  C   UNL     1      -3.448  -0.960   1.163  0.00  0.00    +0.034 A 
ATOM      6  C   UNL     1      -4.343  -0.374   2.050  0.00  0.00    +0.025 A 
ATOM      7  C   UNL     1      -5.670  -0.757   2.042  0.00  0.00    +0.030 A 
ATOM      8  C   UNL     1      -6.109  -1.721   1.153  0.00  0.00    +0.105 A 
ATOM      9  C   UNL     1      -5.220  -2.306   0.270  0.00  0.00    +0.030 A 
ATOM     10  C   UNL     1      -3.893  -1.924   0.268  0.00  0.00    +0.025 A 
BRANCH   8  11
ATOM     11  S   UNL     1      -7.803  -2.206   1.146  0.00  0.00    +0.056 S 
ATOM     12  O   UNL     1      -7.848  -3.514   0.594  0.00  0.00    -0.153 OA
ATOM     13  O   UNL     1      -8.316  -1.905   2.437  0.00  0.00    -0.153 OA
BRANCH  11  14
ATOM     14  N   UNL     1      -8.591  -1.214   0.080  0.00  0.00    -0.204 NA
ATOM     15  H   UNL     1      -8.101  -0.527  -0.397  0.00  0.00    +0.144 HD
ATOM     16  H   UNL     1      -9.544  -1.322  -0.069  0.00  0.00    +0.144 HD
ENDBRANCH  11  14
ENDBRANCH   8  11
ENDBRANCH   3   5
BRANCH   1  18
ATOM     17  C   UNL     1      -0.008   1.520   0.019  0.00  0.00    +0.029 C 
ATOM     18  C   UNL     1       0.004  -0.010   0.003  0.00  0.00    +0.137 C 
BRANCH  18  19
ATOM     19  S   UNL     1       0.849  -0.593  -1.492  0.00  0.00    -0.075 S 
BRANCH  19  20
ATOM     20  C   UNL     1       2.510  -0.043  -1.286  0.00  0.00    +0.168 A 
ATOM     21  N   UNL     1       3.523  -0.250  -2.179  0.00  0.00    -0.333 N 
ATOM     22  H   UNL     1       3.457  -0.718  -3.026  0.00  0.00    +0.168 HD
ATOM     23  C   UNL     1       4.664   0.335  -1.650  0.00  0.00    +0.070 A 
ATOM     24  C   UNL     1       5.975   0.450  -2.087  0.00  0.00    +0.069 A 
ATOM     25  C   UNL     1       6.904   1.111  -1.307  0.00  0.00    +0.160 A 
ATOM     26  C   UNL     1       6.531   1.663  -0.086  0.00  0.00    +0.161 A 
ATOM     27  C   UNL     1       5.232   1.557   0.361  0.00  0.00    +0.071 A 
ATOM     28  C   UNL     1       4.282   0.890  -0.418  0.00  0.00    +0.093 A 
ATOM     29  N   UNL     1       2.958   0.631  -0.255  0.00  0.00    -0.222 NA
ATOM     30  F   UNL     1       7.450   2.307   0.667  0.00  0.00    -0.202 F 
ATOM     31  F   UNL     1       8.181   1.223  -1.733  0.00  0.00    -0.202 F 
ENDBRANCH  19  20
ENDBRANCH  18  19
ENDBRANCH   1  18
TORSDOF 6
