REMARK  Name = ZINC12498875
REMARK  11 active torsions:
REMARK  status: ('A' for Active; 'I' for Inactive)
REMARK    1  A    between atoms: C_1  and  C_2
REMARK    2  A    between atoms: C_2  and  O_3
REMARK    3  A    between atoms: O_3  and  C_4
REMARK    4  A    between atoms: C_4  and  C_6
REMARK    5  A    between atoms: C_10  and  N_11
REMARK    6  A    between atoms: N_11  and  C_12
REMARK    7  A    between atoms: C_12  and  N_14
REMARK    8  A    between atoms: C_15  and  C_17
REMARK    9  A    between atoms: C_17  and  O_18
REMARK   10  A    between atoms: O_18  and  C_19
REMARK   11  A    between atoms: C_22  and  N_25
REMARK                            x       y       z     vdW  Elec       q    Type
REMARK                         _______ _______ _______ _____ _____    ______ ____
ROOT
ATOM      1  C   UNL     1      -0.021   1.708   0.011  0.00  0.00    +0.141 C 
ATOM      2  S   UNL     1       0.002  -0.004   0.002  0.00  0.00    -0.018 S 
ENDROOT
BRANCH   1   3
ATOM      3  N   UNL     1      -1.197   2.366   0.021  0.00  0.00    -0.265 N 
ATOM      4  C   UNL     1      -2.355   1.676   0.022  0.00  0.00    +0.256 C 
ATOM      5  O   UNL     1      -2.339   0.464   0.016  0.00  0.00    -0.272 OA
ATOM      6  H   UNL     1      -1.210   3.336   0.026  0.00  0.00    +0.157 HD
BRANCH   4   7
ATOM      7  C   UNL     1      -3.671   2.412   0.033  0.00  0.00    +0.324 C 
BRANCH   7   8
ATOM      8  O   UNL     1      -4.744   1.468   0.033  0.00  0.00    -0.483 OA
BRANCH   8   9
ATOM      9  C   UNL     1      -6.007   1.971   0.041  0.00  0.00    +0.121 A 
ATOM     10  C   UNL     1      -6.208   3.343   0.056  0.00  0.00    +0.048 A 
ATOM     11  C   UNL     1      -7.493   3.851   0.059  0.00  0.00    +0.036 A 
ATOM     12  C   UNL     1      -8.577   2.993   0.060  0.00  0.00    +0.126 A 
ATOM     13  C   UNL     1      -8.379   1.625   0.051  0.00  0.00    +0.036 A 
ATOM     14  C   UNL     1      -7.096   1.112   0.042  0.00  0.00    +0.048 A 
BRANCH  12  15
ATOM     15  N   UNL     1      -9.952   3.540   0.070  0.00  0.00    +0.056 N 
ATOM     16  O   UNL     1     -10.908   2.785   0.070  0.00  0.00    -0.126 OA
ATOM     17  O   UNL     1     -10.128   4.745   0.077  0.00  0.00    -0.126 OA
ENDBRANCH  12  15
ENDBRANCH   8   9
ENDBRANCH   7   8
ENDBRANCH   4   7
ENDBRANCH   1   3
BRANCH   1  18
ATOM     18  N   UNL     1       1.137   2.397   0.004  0.00  0.00    -0.290 N 
ATOM     19  H   UNL     1       1.124   3.367   0.009  0.00  0.00    +0.154 HD
BRANCH  18  24
ATOM     20  C   UNL     1       3.630   2.250  -0.026  0.00  0.00    +0.091 A 
ATOM     21  C   UNL     1       4.741   1.312  -0.036  0.00  0.00    -0.021 A 
ATOM     22  C   UNL     1       4.393   0.008  -0.040  0.00  0.00    -0.004 A 
ATOM     23  S   UNL     1       2.622   0.011  -0.024  0.00  0.00    -0.077 S 
ATOM     24  C   UNL     1       2.345   1.721  -0.011  0.00  0.00    +0.086 A 
ATOM     25  C   UNL     1       5.314  -1.173  -0.056  0.00  0.00    +0.043 C 
ATOM     26  C   UNL     1       6.718  -0.686  -0.445  0.00  0.00    +0.005 C 
ATOM     27  C   UNL     1       7.062   0.546   0.396  0.00  0.00    +0.005 C 
ATOM     28  C   UNL     1       6.205   1.734  -0.046  0.00  0.00    +0.037 C 
BRANCH  20  29
ATOM     29  C   UNL     1       3.857   3.696  -0.028  0.00  0.00    +0.342 C 
ATOM     30  O   UNL     1       3.964   4.296   1.024  0.00  0.00    -0.245 OA
BRANCH  29  31
ATOM     31  O   UNL     1       3.946   4.363  -1.197  0.00  0.00    -0.461 OA
BRANCH  31  33
ATOM     32  C   UNL     1       4.245   6.374  -2.538  0.00  0.00    +0.048 C 
ATOM     33  C   UNL     1       4.172   5.795  -1.123  0.00  0.00    +0.229 C 
ENDBRANCH  31  33
ENDBRANCH  29  31
ENDBRANCH  20  29
ENDBRANCH  18  24
ENDBRANCH   1  18
TORSDOF 10
