REMARK  Name = ZINC36500314
REMARK  11 active torsions:
REMARK  status: ('A' for Active; 'I' for Inactive)
REMARK    1  A    between atoms: C_1  and  C_2
REMARK    2  A    between atoms: C_5  and  S_8
REMARK    3  A    between atoms: S_8  and  C_11
REMARK    4  A    between atoms: C_11  and  N_12
REMARK    5  A    between atoms: C_13  and  C_15
REMARK    6  A    between atoms: C_15  and  C_17
REMARK    7  A    between atoms: C_15  and  N_23
REMARK    8  A    between atoms: N_23  and  C_24
REMARK    9  A    between atoms: C_24  and  C_25
REMARK   10  A    between atoms: C_30  and  C_32
REMARK   11  A    between atoms: C_35  and  O_38
REMARK                            x       y       z     vdW  Elec       q    Type
REMARK                         _______ _______ _______ _____ _____    ______ ____
ROOT
ATOM      1  C   UNL     1       4.040  -4.109   3.956  0.00  0.00    +0.193 C 
ENDROOT
BRANCH   1   2
ATOM      2  C   UNL     1       3.660  -2.718   4.394  0.00  0.00    -0.018 A 
ATOM      3  C   UNL     1       2.378  -2.460   4.840  0.00  0.00    +0.006 A 
ATOM      4  C   UNL     1       2.030  -1.184   5.242  0.00  0.00    +0.000 A 
ATOM      5  C   UNL     1       2.964  -0.166   5.197  0.00  0.00    +0.000 A 
ATOM      6  C   UNL     1       4.247  -0.425   4.752  0.00  0.00    +0.000 A 
ATOM      7  C   UNL     1       4.596  -1.702   4.354  0.00  0.00    +0.006 A 
ENDBRANCH   1   2
BRANCH   1   9
ATOM      8  N   UNL     1       5.980  -3.357   2.618  0.00  0.00    -0.294 N 
ATOM      9  C   UNL     1       4.816  -4.036   2.667  0.00  0.00    +0.239 C 
ATOM     10  O   UNL     1       4.395  -4.588   1.672  0.00  0.00    -0.273 OA
ATOM     11  H   UNL     1       6.317  -2.915   3.413  0.00  0.00    +0.150 HD
BRANCH   8  12
ATOM     12  C   UNL     1       6.734  -3.285   1.365  0.00  0.00    +0.278 C 
BRANCH  12  13
ATOM     13  S   UNL     1       6.305  -1.757   0.486  0.00  0.00    +0.013 S 
ATOM     14  O   UNL     1       4.894  -1.591   0.453  0.00  0.00    -0.168 OA
ATOM     15  O   UNL     1       7.076  -1.642  -0.702  0.00  0.00    -0.168 OA
BRANCH  13  20
ATOM     16  C   UNL     1       8.292   2.691   4.046  0.00  0.00    +0.044 C 
ATOM     17  C   UNL     1       7.796   1.580   3.157  0.00  0.00    -0.050 A 
ATOM     18  C   UNL     1       8.627   1.045   2.190  0.00  0.00    +0.005 A 
ATOM     19  C   UNL     1       8.171   0.026   1.375  0.00  0.00    +0.027 A 
ATOM     20  C   UNL     1       6.886  -0.459   1.527  0.00  0.00    +0.090 A 
ATOM     21  C   UNL     1       6.056   0.075   2.494  0.00  0.00    +0.027 A 
ATOM     22  C   UNL     1       6.512   1.092   3.313  0.00  0.00    +0.005 A 
ENDBRANCH  13  20
ENDBRANCH  12  13
ENDBRANCH   8  12
ENDBRANCH   1   9
BRANCH   1  23
ATOM     23  N   UNL     1       2.827  -4.905   3.751  0.00  0.00    -0.275 N 
ATOM     24  C   UNL     1       2.610  -6.007   4.496  0.00  0.00    +0.248 C 
ATOM     25  O   UNL     1       1.774  -6.820   4.150  0.00  0.00    -0.270 OA
BRANCH  24  26
ATOM     26  C   UNL     1       3.387  -6.228   5.731  0.00  0.00    +0.037 A 
ATOM     27  C   UNL     1       3.876  -5.137   6.455  0.00  0.00    +0.016 A 
ATOM     28  C   UNL     1       4.600  -5.347   7.608  0.00  0.00    +0.046 A 
ATOM     29  C   UNL     1       4.844  -6.641   8.051  0.00  0.00    +0.117 A 
ATOM     30  C   UNL     1       4.359  -7.729   7.333  0.00  0.00    +0.046 A 
ATOM     31  C   UNL     1       3.630  -7.527   6.183  0.00  0.00    +0.016 A 
BRANCH  29  32
ATOM     32  O   UNL     1       5.559  -6.844   9.187  0.00  0.00    -0.507 OA
ATOM     33  H   UNL     1       5.020  -6.882   9.989  0.00  0.00    +0.292 HD
ENDBRANCH  29  32
ENDBRANCH  24  26
BRANCH  23  34
ATOM     34  C   UNL     1       1.850  -4.503   2.736  0.00  0.00    +0.183 C 
BRANCH  34  35
ATOM     35  C   UNL     1       1.614  -5.647   1.784  0.00  0.00    +0.122 A 
ATOM     36  C   UNL     1       0.645  -6.573   1.892  0.00  0.00    +0.046 A 
ATOM     37  C   UNL     1       0.791  -7.450   0.793  0.00  0.00    +0.041 A 
ATOM     38  C   UNL     1       1.842  -7.007   0.079  0.00  0.00    +0.195 A 
ATOM     39  O   UNL     1       2.332  -5.911   0.681  0.00  0.00    -0.466 OA
ENDBRANCH  34  35
ENDBRANCH  23  34
ENDBRANCH   1  23
TORSDOF 10
