REMARK  Name = ZINC16847564
REMARK  9 active torsions:
REMARK  status: ('A' for Active; 'I' for Inactive)
REMARK    1  A    between atoms: C_1  and  C_2
REMARK    2  A    between atoms: C_5  and  S_8
REMARK    3  A    between atoms: S_8  and  N_11
REMARK    4  A    between atoms: C_14  and  C_31
REMARK    5  A    between atoms: C_15  and  C_17
REMARK    6  A    between atoms: N_19  and  N_20
REMARK    7  A    between atoms: N_20  and  S_21
REMARK    8  A    between atoms: S_21  and  C_24
REMARK    9  A    between atoms: C_29  and  C_30
REMARK                            x       y       z     vdW  Elec       q    Type
REMARK                         _______ _______ _______ _____ _____    ______ ____
ROOT
ATOM      1  N   UNL     1       0.997  -5.848   0.923  0.00  0.00    -0.194 N 
ATOM      2  C   UNL     1       1.039  -4.596   0.349  0.00  0.00    +0.178 A 
ATOM      3  N   UNL     1       1.553  -4.236  -0.818  0.00  0.00    -0.228 NA
ATOM      4  C   UNL     1       1.510  -2.997  -1.232  0.00  0.00    +0.060 A 
ATOM      5  C   UNL     1       0.915  -2.058  -0.402  0.00  0.00    +0.099 A 
ATOM      6  S   UNL     1       0.430  -3.094   0.971  0.00  0.00    -0.046 S 
ATOM      7  C   UNL     1       2.091  -2.600  -2.565  0.00  0.00    +0.067 C 
ATOM      8  H   UNL     1       1.380  -6.609   0.458  0.00  0.00    +0.176 HD
ENDROOT
BRANCH   5   9
ATOM      9  C   UNL     1       0.729  -0.621  -0.599  0.00  0.00    +0.267 C 
ATOM     10  O   UNL     1       1.134  -0.088  -1.616  0.00  0.00    -0.268 OA
ATOM     11  N   UNL     1       0.110   0.114   0.346  0.00  0.00    -0.227 N 
ATOM     12  H   UNL     1      -0.212  -0.310   1.157  0.00  0.00    +0.171 HD
BRANCH  11  13
ATOM     13  N   UNL     1      -0.067   1.491   0.158  0.00  0.00    -0.108 NA
ATOM     14  H   UNL     1       0.697   2.057  -0.033  0.00  0.00    +0.172 HD
BRANCH  13  15
ATOM     15  S   UNL     1      -1.583   2.151   0.253  0.00  0.00    +0.074 S 
ATOM     16  O   UNL     1      -1.418   3.561   0.178  0.00  0.00    -0.152 OA
ATOM     17  O   UNL     1      -2.398   1.430  -0.660  0.00  0.00    -0.152 OA
BRANCH  15  18
ATOM     18  C   UNL     1      -2.203   1.802   1.865  0.00  0.00    +0.110 A 
ATOM     19  C   UNL     1      -3.299   0.975   2.020  0.00  0.00    +0.029 A 
ATOM     20  C   UNL     1      -3.782   0.697   3.285  0.00  0.00    +0.002 A 
ATOM     21  C   UNL     1      -3.176   1.255   4.395  0.00  0.00    +0.000 A 
ATOM     22  C   UNL     1      -2.083   2.087   4.240  0.00  0.00    +0.005 A 
ATOM     23  C   UNL     1      -1.596   2.361   2.975  0.00  0.00    -0.024 A 
ATOM     24  C   UNL     1      -0.405   3.268   2.805  0.00  0.00    +0.046 C 
ENDBRANCH  15  18
ENDBRANCH  13  15
ENDBRANCH  11  13
ENDBRANCH   5   9
BRANCH   1  25
ATOM     25  S   UNL     1       0.293  -6.055   2.408  0.00  0.00    +0.074 S 
ATOM     26  O   UNL     1       0.383  -7.440   2.711  0.00  0.00    -0.150 OA
ATOM     27  O   UNL     1       0.834  -5.053   3.257  0.00  0.00    -0.150 OA
BRANCH  25  32
ATOM     28  C   UNL     1      -5.577  -4.803   1.788  0.00  0.00    +0.044 C 
ATOM     29  C   UNL     1      -4.111  -5.116   1.943  0.00  0.00    -0.050 A 
ATOM     30  C   UNL     1      -3.655  -6.407   1.750  0.00  0.00    +0.005 A 
ATOM     31  C   UNL     1      -2.311  -6.694   1.893  0.00  0.00    +0.029 A 
ATOM     32  C   UNL     1      -1.421  -5.689   2.227  0.00  0.00    +0.109 A 
ATOM     33  C   UNL     1      -1.877  -4.399   2.424  0.00  0.00    +0.029 A 
ATOM     34  C   UNL     1      -3.221  -4.112   2.277  0.00  0.00    +0.005 A 
ENDBRANCH  25  32
ENDBRANCH   1  25
TORSDOF 6
