REMARK  Name = ZINC39501869
REMARK  11 active torsions:
REMARK  status: ('A' for Active; 'I' for Inactive)
REMARK    1  A    between atoms: C_1  and  C_2
REMARK    2  A    between atoms: C_5  and  S_9
REMARK    3  A    between atoms: C_7  and  C_8
REMARK    4  A    between atoms: S_9  and  N_12
REMARK    5  A    between atoms: N_12  and  C_13
REMARK    6  A    between atoms: C_13  and  C_14
REMARK    7  A    between atoms: C_14  and  O_16
REMARK    8  A    between atoms: O_16  and  C_17
REMARK    9  A    between atoms: C_17  and  C_18
REMARK   10  A    between atoms: N_23  and  C_24
REMARK   11  A    between atoms: C_30  and  C_32
REMARK                            x       y       z     vdW  Elec       q    Type
REMARK                         _______ _______ _______ _____ _____    ______ ____
ROOT
ATOM      1  O   UNL     1       4.709  -5.418   1.980  0.00  0.00    -0.454 OA
ENDROOT
BRANCH   1   2
ATOM      2  C   UNL     1       3.767  -5.528   1.029  0.00  0.00    +0.323 C 
ATOM      3  O   UNL     1       3.927  -6.291   0.106  0.00  0.00    -0.249 OA
BRANCH   2   4
ATOM      4  C   UNL     1       2.512  -4.699   1.113  0.00  0.00    +0.226 C 
BRANCH   4   5
ATOM      5  N   UNL     1       1.651  -4.999  -0.034  0.00  0.00    -0.179 NA
ATOM      6  H   UNL     1       2.011  -5.473  -0.800  0.00  0.00    +0.149 HD
BRANCH   5   7
ATOM      7  S   UNL     1       0.063  -4.530  -0.023  0.00  0.00    +0.059 S 
ATOM      8  O   UNL     1      -0.476  -4.950   1.223  0.00  0.00    -0.153 OA
ATOM      9  O   UNL     1      -0.490  -4.937  -1.267  0.00  0.00    -0.153 OA
BRANCH   7  14
ATOM     10  C   UNL     1      -0.018   1.503   0.010  0.00  0.00    +0.044 C 
ATOM     11  C   UNL     1       0.002  -0.004   0.002  0.00  0.00    -0.047 A 
ATOM     12  C   UNL     1       0.006  -0.689  -1.199  0.00  0.00    +0.005 A 
ATOM     13  C   UNL     1       0.025  -2.071  -1.207  0.00  0.00    +0.029 A 
ATOM     14  C   UNL     1       0.040  -2.768  -0.013  0.00  0.00    +0.106 A 
ATOM     15  C   UNL     1       0.037  -2.084   1.188  0.00  0.00    +0.032 A 
ATOM     16  C   UNL     1       0.023  -0.702   1.195  0.00  0.00    -0.046 A 
ATOM     17  C   UNL     1       0.025   0.045   2.504  0.00  0.00    +0.044 C 
ENDBRANCH   7  14
ENDBRANCH   5   7
ENDBRANCH   4   5
ENDBRANCH   2   4
ENDBRANCH   1   2
BRANCH   1  18
ATOM     18  C   UNL     1       5.873  -6.234   1.837  0.00  0.00    +0.328 C 
BRANCH  18  19
ATOM     19  C   UNL     1       6.811  -5.977   2.988  0.00  0.00    +0.258 C 
ATOM     20  O   UNL     1       6.511  -5.175   3.846  0.00  0.00    -0.272 OA
ATOM     21  N   UNL     1       7.982  -6.639   3.064  0.00  0.00    -0.237 N 
ATOM     22  C   UNL     1       8.821  -6.409   4.094  0.00  0.00    +0.306 C 
ATOM     23  O   UNL     1       8.521  -5.605   4.954  0.00  0.00    -0.252 OA
ATOM     24  N   UNL     1       9.992  -7.071   4.170  0.00  0.00    -0.296 N 
ATOM     25  H   UNL     1       8.222  -7.281   2.377  0.00  0.00    +0.159 HD
ATOM     26  H   UNL     1      10.232  -7.713   3.483  0.00  0.00    +0.151 HD
BRANCH  24  27
ATOM     27  C   UNL     1      10.904  -6.822   5.289  0.00  0.00    +0.077 C 
ATOM     28  C   UNL     1      11.779  -5.607   4.973  0.00  0.00    +0.022 C 
ATOM     29  C   UNL     1      12.591  -5.880   3.705  0.00  0.00    +0.002 C 
ATOM     30  C   UNL     1      13.479  -7.106   3.923  0.00  0.00    +0.000 C 
ATOM     31  C   UNL     1      12.604  -8.320   4.239  0.00  0.00    +0.005 C 
ATOM     32  C   UNL     1      11.792  -8.048   5.507  0.00  0.00    +0.006 C 
ATOM     33  C   UNL     1      10.917  -9.262   5.823  0.00  0.00    +0.009 C 
ENDBRANCH  24  27
ENDBRANCH  18  19
ENDBRANCH   1  18
TORSDOF 8
