REMARK  Name = ZINC01961095
REMARK  13 active torsions:
REMARK  status: ('A' for Active; 'I' for Inactive)
REMARK    1  A    between atoms: C_1  and  C_2
REMARK    2  A    between atoms: C_2  and  O_3
REMARK    3  A    between atoms: O_3  and  C_4
REMARK    4  A    between atoms: C_9  and  N_10
REMARK    5  A    between atoms: C_11  and  C_13
REMARK    6  A    between atoms: C_16  and  O_19
REMARK    7  A    between atoms: O_19  and  C_20
REMARK    8  A    between atoms: C_20  and  C_21
REMARK    9  A    between atoms: N_23  and  C_24
REMARK   10  A    between atoms: C_25  and  C_35
REMARK   11  A    between atoms: C_30  and  C_34
REMARK   12  A    between atoms: C_35  and  O_37
REMARK   13  A    between atoms: O_37  and  C_38
REMARK                            x       y       z     vdW  Elec       q    Type
REMARK                         _______ _______ _______ _____ _____    ______ ____
ROOT
ATOM      1  O   UNL     1      -6.190  -0.567   0.493  0.00  0.00    -0.483 OA
ENDROOT
BRANCH   1   5
ATOM      2  C   UNL     1      -2.447   1.138   0.143  0.00  0.00    +0.037 A 
ATOM      3  C   UNL     1      -2.578  -0.250   0.246  0.00  0.00    +0.016 A 
ATOM      4  C   UNL     1      -3.829  -0.814   0.369  0.00  0.00    +0.046 A 
ATOM      5  C   UNL     1      -4.960  -0.006   0.379  0.00  0.00    +0.121 A 
ATOM      6  C   UNL     1      -4.834   1.374   0.270  0.00  0.00    +0.046 A 
ATOM      7  C   UNL     1      -3.587   1.946   0.152  0.00  0.00    +0.016 A 
BRANCH   2   9
ATOM      8  N   UNL     1      -0.011   0.966   0.007  0.00  0.00    -0.279 N 
ATOM      9  C   UNL     1      -1.109   1.747   0.017  0.00  0.00    +0.248 C 
ATOM     10  O   UNL     1      -0.997   2.954  -0.079  0.00  0.00    -0.270 OA
ATOM     11  H   UNL     1      -0.103   0.000   0.018  0.00  0.00    +0.155 HD
BRANCH   8  17
ATOM     12  C   UNL     1       2.324   0.943   0.645  0.00  0.00    +0.142 A 
ATOM     13  C   UNL     1       3.581   1.523   0.611  0.00  0.00    +0.047 A 
ATOM     14  C   UNL     1       3.781   2.699  -0.087  0.00  0.00    +0.004 A 
ATOM     15  C   UNL     1       2.728   3.301  -0.752  0.00  0.00    +0.002 A 
ATOM     16  C   UNL     1       1.472   2.726  -0.726  0.00  0.00    +0.027 A 
ATOM     17  C   UNL     1       1.262   1.548  -0.024  0.00  0.00    +0.076 A 
BRANCH  12  18
ATOM     18  O   UNL     1       2.126  -0.215   1.330  0.00  0.00    -0.490 OA
BRANCH  18  20
ATOM     19  C   UNL     1       2.846  -2.069   2.704  0.00  0.00    +0.048 C 
ATOM     20  C   UNL     1       3.260  -0.779   1.992  0.00  0.00    +0.226 C 
ENDBRANCH  18  20
ENDBRANCH  12  18
ENDBRANCH   8  17
ENDBRANCH   2   9
ENDBRANCH   1   5
BRANCH   1  21
ATOM     21  C   UNL     1      -6.247  -1.990   0.601  0.00  0.00    +0.324 C 
BRANCH  21  22
ATOM     22  C   UNL     1      -7.685  -2.428   0.719  0.00  0.00    +0.255 C 
ATOM     23  O   UNL     1      -8.573  -1.602   0.712  0.00  0.00    -0.272 OA
ATOM     24  N   UNL     1      -7.983  -3.738   0.833  0.00  0.00    -0.277 N 
ATOM     25  H   UNL     1      -7.273  -4.398   0.839  0.00  0.00    +0.155 HD
BRANCH  24  26
ATOM     26  C   UNL     1      -9.305  -4.140   0.942  0.00  0.00    +0.086 A 
ATOM     27  C   UNL     1      -9.807  -5.429   1.061  0.00  0.00    +0.091 A 
ATOM     28  C   UNL     1     -11.249  -5.581   1.164  0.00  0.00    -0.021 A 
ATOM     29  C   UNL     1     -11.953  -4.429   1.122  0.00  0.00    -0.004 A 
ATOM     30  S   UNL     1     -10.732  -3.158   0.955  0.00  0.00    -0.077 S 
ATOM     31  C   UNL     1     -13.441  -4.276   1.201  0.00  0.00    +0.046 C 
ATOM     32  C   UNL     1     -14.036  -5.595   1.714  0.00  0.00    -0.009 C 
ATOM     33  C   UNL     1     -13.424  -6.754   0.921  0.00  0.00    +0.008 C 
ATOM     34  C   UNL     1     -11.952  -6.925   1.303  0.00  0.00    +0.037 C 
ATOM     35  C   UNL     1     -15.553  -5.584   1.517  0.00  0.00    +0.008 C 
BRANCH  27  36
ATOM     36  C   UNL     1      -8.918  -6.592   1.085  0.00  0.00    +0.342 C 
ATOM     37  O   UNL     1      -8.484  -7.004   2.144  0.00  0.00    -0.245 OA
BRANCH  36  38
ATOM     38  O   UNL     1      -8.579  -7.207  -0.067  0.00  0.00    -0.464 OA
ATOM     39  C   UNL     1      -7.694  -8.353   0.033  0.00  0.00    +0.280 C 
ENDBRANCH  36  38
ENDBRANCH  27  36
ENDBRANCH  24  26
ENDBRANCH  21  22
ENDBRANCH   1  21
TORSDOF 10
