REMARK  Name = ZINC10515859
REMARK  12 active torsions:
REMARK  status: ('A' for Active; 'I' for Inactive)
REMARK    1  A    between atoms: C_1  and  C_2
REMARK    2  A    between atoms: C_2  and  N_3
REMARK    3  A    between atoms: N_3  and  C_4
REMARK    4  A    between atoms: N_3  and  S_6
REMARK    5  A    between atoms: C_4  and  C_5
REMARK    6  A    between atoms: S_6  and  C_9
REMARK    7  A    between atoms: C_11  and  C_29
REMARK    8  A    between atoms: C_12  and  C_28
REMARK    9  A    between atoms: C_13  and  N_15
REMARK   10  A    between atoms: N_15  and  S_16
REMARK   11  A    between atoms: S_16  and  C_19
REMARK   12  A    between atoms: C_22  and  N_25
REMARK                            x       y       z     vdW  Elec       q    Type
REMARK                         _______ _______ _______ _____ _____    ______ ____
ROOT
ATOM      1  C   UNL     1      -2.594   3.466  -0.753  0.00  0.00    +0.108 A 
ATOM      2  C   UNL     1      -3.644   3.001   0.018  0.00  0.00    +0.032 A 
ATOM      3  C   UNL     1      -3.489   1.861   0.786  0.00  0.00    -0.044 A 
ATOM      4  C   UNL     1      -2.287   1.181   0.781  0.00  0.00    -0.025 A 
ATOM      5  C   UNL     1      -1.230   1.649   0.011  0.00  0.00    +0.053 A 
ATOM      6  C   UNL     1      -1.388   2.794  -0.759  0.00  0.00    +0.053 A 
ATOM      7  C   UNL     1      -2.121  -0.064   1.613  0.00  0.00    +0.046 C 
ATOM      8  C   UNL     1      -4.635   1.358   1.625  0.00  0.00    +0.044 C 
ENDROOT
BRANCH   1   9
ATOM      9  S   UNL     1      -2.797   4.919  -1.730  0.00  0.00    +0.061 S 
ATOM     10  O   UNL     1      -3.843   5.670  -1.129  0.00  0.00    -0.153 OA
ATOM     11  O   UNL     1      -1.497   5.454  -1.937  0.00  0.00    -0.153 OA
BRANCH   9  12
ATOM     12  N   UNL     1      -3.352   4.438  -3.214  0.00  0.00    -0.177 NA
BRANCH  12  14
ATOM     13  C   UNL     1      -5.296   5.631  -4.097  0.00  0.00    +0.022 C 
ATOM     14  C   UNL     1      -4.793   4.335  -3.459  0.00  0.00    +0.106 C 
ENDBRANCH  12  14
BRANCH  12  15
ATOM     15  C   UNL     1      -2.403   4.114  -4.282  0.00  0.00    +0.106 C 
ATOM     16  C   UNL     1      -2.145   2.607  -4.296  0.00  0.00    +0.022 C 
ENDBRANCH  12  15
ENDBRANCH   9  12
ENDBRANCH   1   9
BRANCH   5  17
ATOM     17  N   UNL     1      -0.011   0.966   0.007  0.00  0.00    -0.216 N 
ATOM     18  H   UNL     1       0.003  -0.002   0.066  0.00  0.00    +0.174 HD
BRANCH  17  19
ATOM     19  S   UNL     1       1.410   1.808  -0.105  0.00  0.00    +0.072 S 
ATOM     20  O   UNL     1       2.458   0.861   0.049  0.00  0.00    -0.150 OA
ATOM     21  O   UNL     1       1.299   2.641  -1.251  0.00  0.00    -0.150 OA
BRANCH  19  22
ATOM     22  C   UNL     1       1.492   2.881   1.290  0.00  0.00    +0.109 A 
ATOM     23  C   UNL     1       0.972   4.160   1.211  0.00  0.00    +0.031 A 
ATOM     24  C   UNL     1       1.032   4.999   2.307  0.00  0.00    +0.034 A 
ATOM     25  C   UNL     1       1.620   4.564   3.480  0.00  0.00    +0.126 A 
ATOM     26  C   UNL     1       2.144   3.288   3.558  0.00  0.00    +0.034 A 
ATOM     27  C   UNL     1       2.080   2.446   2.463  0.00  0.00    +0.031 A 
BRANCH  25  28
ATOM     28  N   UNL     1       1.688   5.465   4.652  0.00  0.00    +0.056 N 
ATOM     29  O   UNL     1       2.207   5.082   5.686  0.00  0.00    -0.126 OA
ATOM     30  O   UNL     1       1.227   6.590   4.584  0.00  0.00    -0.126 OA
ENDBRANCH  25  28
ENDBRANCH  19  22
ENDBRANCH  17  19
ENDBRANCH   5  17
TORSDOF 8
