REMARK  Name = ZINC44253861
REMARK  10 active torsions:
REMARK  status: ('A' for Active; 'I' for Inactive)
REMARK    1  A    between atoms: C_3  and  O_17
REMARK    2  A    between atoms: C_4  and  C_10
REMARK    3  A    between atoms: C_6  and  N_7
REMARK    4  A    between atoms: C_10  and  C_12
REMARK    5  A    between atoms: C_10  and  N_16
REMARK    6  A    between atoms: C_12  and  C_13
REMARK    7  A    between atoms: O_17  and  S_18
REMARK    8  A    between atoms: S_18  and  C_21
REMARK    9  A    between atoms: C_23  and  C_31
REMARK   10  A    between atoms: C_25  and  C_27
REMARK                            x       y       z     vdW  Elec       q    Type
REMARK                         _______ _______ _______ _____ _____    ______ ____
ROOT
ATOM      1  C   UNL     1       0.824   2.660  -0.567  0.00  0.00    +0.036 A 
ATOM      2  C   UNL     1       2.129   3.015  -0.848  0.00  0.00    +0.051 A 
ATOM      3  C   UNL     1       3.156   2.109  -0.626  0.00  0.00    +0.158 A 
ATOM      4  C   UNL     1       2.869   0.848  -0.123  0.00  0.00    -0.015 A 
ATOM      5  C   UNL     1       1.562   0.498   0.157  0.00  0.00    +0.038 A 
ATOM      6  C   UNL     1       0.540   1.403  -0.065  0.00  0.00    +0.127 A 
ENDROOT
BRANCH   6   7
ATOM      7  N   UNL     1      -0.859   1.026   0.235  0.00  0.00    +0.056 N 
ATOM      8  O   UNL     1      -1.753   1.817   0.042  0.00  0.00    -0.126 OA
ATOM      9  O   UNL     1      -1.108  -0.072   0.674  0.00  0.00    -0.126 OA
ENDBRANCH   6   7
BRANCH   4  10
ATOM     10  C   UNL     1       3.982  -0.139   0.118  0.00  0.00    -0.032 C 
BRANCH  10  11
ATOM     11  N   UNL     1       3.453  -1.506   0.024  0.00  0.00    +0.383 N 
ATOM     12  H   UNL     1       2.731  -1.637   0.718  0.00  0.00    -0.089 HD
ATOM     13  H   UNL     1       3.066  -1.654  -0.896  0.00  0.00    -0.089 HD
ATOM     14  H   UNL     1       4.198  -2.167   0.186  0.00  0.00    -0.089 HD
ENDBRANCH  10  11
BRANCH  10  15
ATOM     15  C   UNL     1       4.569   0.085   1.513  0.00  0.00    +0.084 C 
BRANCH  15  16
ATOM     16  C   UNL     1       5.770  -0.805   1.702  0.00  0.00    +0.209 C 
ATOM     17  O   UNL     1       6.193  -1.458   0.771  0.00  0.00    -0.276 OA
ATOM     18  N   UNL     1       6.375  -0.875   2.904  0.00  0.00    -0.329 N 
ATOM     19  H   UNL     1       5.994  -0.411   3.667  0.00  0.00    +0.145 HD
ATOM     20  H   UNL     1       7.191  -1.390   3.008  0.00  0.00    +0.145 HD
ENDBRANCH  15  16
ENDBRANCH  10  15
ENDBRANCH   4  10
BRANCH   3  21
ATOM     21  O   UNL     1       4.441   2.455  -0.902  0.00  0.00    -0.342 OA
BRANCH  21  22
ATOM     22  S   UNL     1       4.828   2.281  -2.364  0.00  0.00    +0.151 S 
ATOM     23  O   UNL     1       6.234   2.473  -2.437  0.00  0.00    -0.131 OA
ATOM     24  O   UNL     1       4.197   1.090  -2.813  0.00  0.00    -0.131 OA
BRANCH  22  25
ATOM     25  C   UNL     1       4.092   3.608  -3.259  0.00  0.00    +0.129 A 
ATOM     26  C   UNL     1       2.876   3.426  -3.890  0.00  0.00    +0.043 A 
ATOM     27  C   UNL     1       2.298   4.467  -4.592  0.00  0.00    +0.057 A 
ATOM     28  C   UNL     1       2.937   5.691  -4.664  0.00  0.00    +0.024 A 
ATOM     29  C   UNL     1       4.153   5.874  -4.032  0.00  0.00    +0.057 A 
ATOM     30  C   UNL     1       4.729   4.834  -3.326  0.00  0.00    +0.043 A 
BRANCH  29  31
ATOM     31  C   UNL     1       4.850   7.208  -4.110  0.00  0.00    +0.417 C 
ATOM     32  F   UNL     1       4.024   8.128  -4.764  0.00  0.00    -0.166 F 
ATOM     33  F   UNL     1       5.127   7.666  -2.818  0.00  0.00    -0.166 F 
ATOM     34  F   UNL     1       6.046   7.068  -4.822  0.00  0.00    -0.166 F 
ENDBRANCH  29  31
BRANCH  27  35
ATOM     35  C   UNL     1       0.973   4.268  -5.281  0.00  0.00    +0.417 C 
ATOM     36  F   UNL     1      -0.064   4.596  -4.401  0.00  0.00    -0.166 F 
ATOM     37  F   UNL     1       0.905   5.092  -6.409  0.00  0.00    -0.166 F 
ATOM     38  F   UNL     1       0.846   2.931  -5.671  0.00  0.00    -0.166 F 
ENDBRANCH  27  35
ENDBRANCH  22  25
ENDBRANCH  21  22
ENDBRANCH   3  21
TORSDOF 10
