REMARK  Name = ZINC10084259
REMARK  8 active torsions:
REMARK  status: ('A' for Active; 'I' for Inactive)
REMARK    1  A    between atoms: C_4  and  N_27
REMARK    2  A    between atoms: C_6  and  C_7
REMARK    3  A    between atoms: C_8  and  C_9
REMARK    4  A    between atoms: C_9  and  O_11
REMARK    5  A    between atoms: O_11  and  C_12
REMARK    6  A    between atoms: C_12  and  C_13
REMARK    7  A    between atoms: N_15  and  C_16
REMARK    8  A    between atoms: C_17  and  C_24
REMARK                            x       y       z     vdW  Elec       q    Type
REMARK                         _______ _______ _______ _____ _____    ______ ____
ROOT
ATOM      1  C   UNL     1       9.657   1.463  -0.081  0.00  0.00    +0.255 C 
ATOM      2  O   UNL     1       9.511   0.259  -0.087  0.00  0.00    -0.272 OA
ATOM      3  N   UNL     1      10.896   1.992  -0.090  0.00  0.00    -0.277 N 
ATOM      4  H   UNL     1      11.013   2.955  -0.086  0.00  0.00    +0.155 HD
ENDROOT
BRANCH   3   5
ATOM      5  C   UNL     1      12.005   1.159  -0.105  0.00  0.00    +0.084 A 
ATOM      6  C   UNL     1      13.344   1.510  -0.121  0.00  0.00    +0.068 A 
ATOM      7  C   UNL     1      14.327   0.427  -0.131  0.00  0.00    -0.023 A 
ATOM      8  C   UNL     1      13.810  -0.815  -0.133  0.00  0.00    -0.004 A 
ATOM      9  S   UNL     1      12.051  -0.571  -0.116  0.00  0.00    -0.077 S 
ATOM     10  C   UNL     1      14.880  -1.872  -0.146  0.00  0.00    +0.043 C 
ATOM     11  C   UNL     1      16.165  -1.130   0.284  0.00  0.00    +0.010 C 
ATOM     12  C   UNL     1      15.853   0.316  -0.148  0.00  0.00    +0.037 C 
BRANCH   6  13
ATOM     13  C   UNL     1      13.761   2.915  -0.124  0.00  0.00    +0.244 C 
ATOM     14  O   UNL     1      13.948   3.497   0.928  0.00  0.00    -0.270 OA
ATOM     15  N   UNL     1      13.938   3.563  -1.293  0.00  0.00    -0.325 N 
ATOM     16  H   UNL     1      13.789   3.100  -2.132  0.00  0.00    +0.145 HD
ATOM     17  H   UNL     1      14.214   4.493  -1.295  0.00  0.00    +0.145 HD
ENDBRANCH   6  13
ENDBRANCH   3   5
BRANCH   1  18
ATOM     18  C   UNL     1       8.452   2.368  -0.065  0.00  0.00    +0.328 C 
BRANCH  18  19
ATOM     19  O   UNL     1       7.262   1.577  -0.058  0.00  0.00    -0.452 OA
BRANCH  19  20
ATOM     20  C   UNL     1       6.086   2.239  -0.043  0.00  0.00    +0.332 C 
ATOM     21  O   UNL     1       6.073   3.455  -0.036  0.00  0.00    -0.246 OA
BRANCH  20  23
ATOM     22  C   UNL     1       3.652   2.156  -0.021  0.00  0.00    +0.015 C 
ATOM     23  C   UNL     1       4.828   1.494  -0.036  0.00  0.00    +0.092 C 
BRANCH  22  29
ATOM     24  C   UNL     1       2.397   0.008  -0.021  0.00  0.00    +0.009 A 
ATOM     25  C   UNL     1       1.207  -0.687  -0.014  0.00  0.00    +0.023 A 
ATOM     26  C   UNL     1       0.002  -0.004   0.002  0.00  0.00    +0.071 A 
ATOM     27  C   UNL     1      -0.017   1.381   0.010  0.00  0.00    +0.145 A 
ATOM     28  C   UNL     1       1.165   2.090   0.002  0.00  0.00    +0.042 A 
ATOM     29  C   UNL     1       2.386   1.407  -0.013  0.00  0.00    -0.023 A 
ATOM     30 CL   UNL     1      -1.492  -0.888   0.012  0.00  0.00    -0.081 Cl
BRANCH  27  31
ATOM     31  N   UNL     1      -1.310   2.102   0.020  0.00  0.00    +0.058 N 
ATOM     32  O   UNL     1      -1.328   3.320   0.026  0.00  0.00    -0.126 OA
ATOM     33  O   UNL     1      -2.355   1.478   0.021  0.00  0.00    -0.126 OA
ENDBRANCH  27  31
ENDBRANCH  22  29
ENDBRANCH  20  23
ENDBRANCH  19  20
ENDBRANCH  18  19
ENDBRANCH   1  18
TORSDOF 8
