REMARK  Name = ZINC35442664
REMARK  12 active torsions:
REMARK  status: ('A' for Active; 'I' for Inactive)
REMARK    1  A    between atoms: C_1  and  C_2
REMARK    2  A    between atoms: C_4  and  C_31
REMARK    3  A    between atoms: C_6  and  C_28
REMARK    4  A    between atoms: C_9  and  C_11
REMARK    5  A    between atoms: C_11  and  C_12
REMARK    6  A    between atoms: C_15  and  C_17
REMARK    7  A    between atoms: C_17  and  C_18
REMARK    8  A    between atoms: C_28  and  C_29
REMARK    9  A    between atoms: C_28  and  C_30
REMARK   10  A    between atoms: C_31  and  N_32
REMARK   11  A    between atoms: C_36  and  C_38
REMARK   12  A    between atoms: C_38  and  O_39
REMARK                            x       y       z     vdW  Elec       q    Type
REMARK                         _______ _______ _______ _____ _____    ______ ____
ROOT
ATOM      1  C   UNL     1      -0.158   1.566  -0.384  0.00  0.00    +0.039 C 
ATOM      2  C   UNL     1      -0.050   0.067  -0.275  0.00  0.00    -0.073 C 
ATOM      3  C   UNL     1       0.166  -0.606  -1.359  0.00  0.00    -0.026 C 
ATOM      4  C   UNL     1       0.287  -2.101  -1.410  0.00  0.00    -0.002 C 
ATOM      5  C   UNL     1       0.545  -2.658  -0.008  0.00  0.00    -0.003 C 
ATOM      6  C   UNL     1      -0.485  -2.050   0.952  0.00  0.00    +0.012 C 
ATOM      7  C   UNL     1      -0.193  -0.552   1.085  0.00  0.00    +0.024 C 
ENDROOT
BRANCH   5   8
ATOM      8  C   UNL     1       0.402  -4.181  -0.025  0.00  0.00    -0.014 C 
ATOM      9  C   UNL     1       0.800  -4.745   1.340  0.00  0.00    +0.007 C 
ATOM     10  C   UNL     1      -1.051  -4.554  -0.327  0.00  0.00    +0.007 C 
ENDBRANCH   5   8
BRANCH   7  11
ATOM     11  C   UNL     1       1.103  -0.350   1.873  0.00  0.00    +0.105 C 
BRANCH  11  12
ATOM     12  C   UNL     1       1.315   1.121   2.123  0.00  0.00    +0.218 A 
ATOM     13  N   UNL     1       0.892   1.796   3.154  0.00  0.00    -0.112 NA
ATOM     14  N   UNL     1       1.255   3.025   3.037  0.00  0.00    -0.112 NA
ATOM     15  C   UNL     1       1.922   3.175   1.928  0.00  0.00    +0.222 A 
ATOM     16  O   UNL     1       1.979   1.975   1.327  0.00  0.00    -0.424 OA
BRANCH  15  17
ATOM     17  C   UNL     1       2.522   4.459   1.416  0.00  0.00    +0.135 C 
BRANCH  17  18
ATOM     18  C   UNL     1       3.932   4.595   1.931  0.00  0.00    -0.013 A 
ATOM     19  C   UNL     1       4.320   5.262   3.030  0.00  0.00    +0.087 A 
ATOM     20  N   UNL     1       5.677   5.165   3.180  0.00  0.00    -0.360 N 
ATOM     21  H   UNL     1       6.188   5.565   3.900  0.00  0.00    +0.165 HD
ATOM     22  C   UNL     1       6.208   4.414   2.155  0.00  0.00    +0.047 A 
ATOM     23  C   UNL     1       5.138   4.018   1.332  0.00  0.00    +0.003 A 
ATOM     24  C   UNL     1       5.381   3.232   0.204  0.00  0.00    +0.010 A 
ATOM     25  C   UNL     1       6.658   2.847  -0.093  0.00  0.00    +0.001 A 
ATOM     26  C   UNL     1       7.717   3.231   0.719  0.00  0.00    +0.002 A 
ATOM     27  C   UNL     1       7.501   4.015   1.832  0.00  0.00    +0.026 A 
ENDBRANCH  17  18
ENDBRANCH  15  17
ENDBRANCH  11  12
ENDBRANCH   7  11
BRANCH   4  28
ATOM     28  C   UNL     1       1.450  -2.485  -2.327  0.00  0.00    -0.071 C 
BRANCH  28  29
ATOM     29  N   UNL     1       1.151  -2.059  -3.701  0.00  0.00    +0.383 N 
ATOM     30  C   UNL     1      -0.000  -2.828  -4.221  0.00  0.00    -0.078 C 
ATOM     31  C   UNL     1       0.318  -3.052  -5.720  0.00  0.00    -0.020 C 
ATOM     32  C   UNL     1       1.853  -3.274  -5.685  0.00  0.00    -0.015 C 
ATOM     33  C   UNL     1       2.317  -2.319  -4.566  0.00  0.00    -0.043 C 
ATOM     34  H   UNL     1       0.932  -1.075  -3.712  0.00  0.00    -0.081 HD
BRANCH  33  35
ATOM     35  C   UNL     1       2.815  -1.007  -5.175  0.00  0.00    +0.140 C 
BRANCH  35  36
ATOM     36  O   UNL     1       1.815  -0.476  -6.046  0.00  0.00    -0.397 OA
ATOM     37  H   UNL     1       2.063   0.358  -6.469  0.00  0.00    +0.209 HD
ENDBRANCH  35  36
ENDBRANCH  33  35
ENDBRANCH  28  29
ENDBRANCH   4  28
TORSDOF 9
