REMARK  Name = ZINC18264452
REMARK  6 active torsions:
REMARK  status: ('A' for Active; 'I' for Inactive)
REMARK    1  A    between atoms: C_1  and  C_2
REMARK    2  A    between atoms: N_4  and  C_5
REMARK    3  A    between atoms: C_8  and  C_11
REMARK    4  A    between atoms: C_11  and  O_13
REMARK    5  A    between atoms: O_13  and  C_14
REMARK    6  A    between atoms: C_14  and  C_15
REMARK                            x       y       z     vdW  Elec       q    Type
REMARK                         _______ _______ _______ _____ _____    ______ ____
ROOT
ATOM      1  C   UNL     1       1.669  10.093   0.427  0.00  0.00    +0.170 A 
ATOM      2  N   UNL     1       2.316  10.260   1.567  0.00  0.00    -0.214 NA
ATOM      3  C   UNL     1       3.369  11.055   1.669  0.00  0.00    +0.128 A 
ATOM      4  C   UNL     1       3.816  11.763   0.520  0.00  0.00    +0.051 A 
ATOM      5  C   UNL     1       4.941  12.691   0.395  0.00  0.00    -0.025 A 
ATOM      6  C   UNL     1       5.154  13.235  -0.820  0.00  0.00    -0.004 A 
ATOM      7  S   UNL     1       3.888  12.556  -1.859  0.00  0.00    -0.073 S 
ATOM      8  C   UNL     1       3.073  11.539  -0.656  0.00  0.00    +0.114 A 
ATOM      9  N   UNL     1       2.036  10.723  -0.672  0.00  0.00    -0.221 NA
ATOM     10  C   UNL     1       6.230  14.204  -1.205  0.00  0.00    +0.043 C 
ATOM     11  C   UNL     1       6.843  14.783   0.078  0.00  0.00    +0.005 C 
ATOM     12  C   UNL     1       7.149  13.630   1.039  0.00  0.00    +0.005 C 
ATOM     13  C   UNL     1       5.844  13.041   1.575  0.00  0.00    +0.037 C 
ATOM     14  N   UNL     1       4.023  11.199   2.880  0.00  0.00    -0.343 N 
ATOM     15  H   UNL     1       4.632  11.941   3.017  0.00  0.00    +0.144 HD
ATOM     16  H   UNL     1       3.873  10.558   3.592  0.00  0.00    +0.144 HD
ENDROOT
BRANCH   1  17
ATOM     17  C   UNL     1       0.481   9.166   0.383  0.00  0.00    +0.308 C 
BRANCH  17  18
ATOM     18  O   UNL     1       0.926   7.826   0.047  0.00  0.00    -0.453 OA
BRANCH  18  19
ATOM     19  C   UNL     1      -0.021   6.870  -0.034  0.00  0.00    +0.340 C 
ATOM     20  O   UNL     1      -1.185   7.149   0.172  0.00  0.00    -0.245 OA
BRANCH  19  24
ATOM     21  C   UNL     1       1.067   2.882  -1.006  0.00  0.00    +0.033 A 
ATOM     22  C   UNL     1       2.046   3.867  -0.918  0.00  0.00    +0.024 A 
ATOM     23  C   UNL     1       1.697   5.162  -0.608  0.00  0.00    +0.017 A 
ATOM     24  C   UNL     1       0.357   5.485  -0.371  0.00  0.00    +0.059 A 
ATOM     25  C   UNL     1      -0.623   4.492  -0.455  0.00  0.00    +0.017 A 
ATOM     26  C   UNL     1      -0.267   3.200  -0.770  0.00  0.00    +0.024 A 
BRANCH  21  30
ATOM     27  C   UNL     1       2.912  -0.071  -2.421  0.00  0.00    +0.109 C 
ATOM     28  C   UNL     1       2.452   1.341  -2.166  0.00  0.00    +0.214 C 
ATOM     29  O   UNL     1       3.004   2.268  -2.720  0.00  0.00    -0.276 OA
ATOM     30  N   UNL     1       1.424   1.573  -1.326  0.00  0.00    -0.286 N 
ATOM     31  H   UNL     1       0.932   0.829  -0.944  0.00  0.00    +0.155 HD
ENDBRANCH  21  30
ENDBRANCH  19  24
ENDBRANCH  18  19
ENDBRANCH  17  18
ENDBRANCH   1  17
TORSDOF 5
