REMARK  Name = ZINC21984446
REMARK  6 active torsions:
REMARK  status: ('A' for Active; 'I' for Inactive)
REMARK    1  A    between atoms: C_1  and  O_2
REMARK    2  A    between atoms: O_2  and  C_3
REMARK    3  A    between atoms: C_3  and  O_4
REMARK    4  A    between atoms: O_4  and  C_5
REMARK    5  A    between atoms: C_12  and  C_15
REMARK    6  A    between atoms: C_18  and  N_21
REMARK                            x       y       z     vdW  Elec       q    Type
REMARK                         _______ _______ _______ _____ _____    ______ ____
ROOT
ATOM      1  C   UNL     1       6.781   2.939  -1.784  0.00  0.00    +0.125 A 
ATOM      2  C   UNL     1       6.776   3.312  -0.448  0.00  0.00    +0.047 A 
ATOM      3  C   UNL     1       5.734   2.966   0.380  0.00  0.00    +0.027 A 
ATOM      4  C   UNL     1       4.639   2.222  -0.096  0.00  0.00    +0.042 A 
ATOM      5  C   UNL     1       4.672   1.861  -1.446  0.00  0.00    +0.034 A 
ATOM      6  C   UNL     1       5.711   2.205  -2.280  0.00  0.00    +0.062 A 
ATOM      7  S   UNL     1       3.171   0.947  -1.720  0.00  0.00    -0.096 S 
ATOM      8  C   UNL     1       2.490   1.048  -0.016  0.00  0.00    +0.164 C 
ATOM      9  N   UNL     1       3.537   1.822   0.664  0.00  0.00    -0.327 N 
ATOM     10  H   UNL     1       3.436   2.066   1.732  0.00  0.00    +0.147 HD
ENDROOT
BRANCH   8  11
ATOM     11  C   UNL     1       1.175   1.783   0.000  0.00  0.00    -0.017 A 
ATOM     12  C   UNL     1      -0.013   1.076   0.008  0.00  0.00    +0.008 A 
ATOM     13  C   UNL     1      -1.219   1.751   0.017  0.00  0.00    +0.033 A 
ATOM     14  C   UNL     1      -1.238   3.133   0.029  0.00  0.00    +0.126 A 
ATOM     15  C   UNL     1      -0.050   3.840   0.022  0.00  0.00    +0.033 A 
ATOM     16  C   UNL     1       1.156   3.165   0.008  0.00  0.00    +0.008 A 
BRANCH  14  17
ATOM     17  N   UNL     1      -2.529   3.855   0.044  0.00  0.00    +0.056 N 
ATOM     18  O   UNL     1      -2.546   5.073   0.050  0.00  0.00    -0.126 OA
ATOM     19  O   UNL     1      -3.576   3.232   0.050  0.00  0.00    -0.126 OA
ENDBRANCH  14  17
ENDBRANCH   8  11
BRANCH   1  20
ATOM     20  O   UNL     1       7.816   3.288  -2.595  0.00  0.00    -0.466 OA
BRANCH  20  21
ATOM     21  C   UNL     1       8.876   4.044  -2.006  0.00  0.00    +0.394 C 
BRANCH  21  23
ATOM     22  C   UNL     1      10.539   2.320  -1.935  0.00  0.00    +0.198 C 
ATOM     23  O   UNL     1       9.678   3.185  -1.193  0.00  0.00    -0.347 OA
ENDBRANCH  21  23
ENDBRANCH  20  21
ENDBRANCH   1  20
TORSDOF 5
