REMARK  Name = ZINC12594675
REMARK  9 active torsions:
REMARK  status: ('A' for Active; 'I' for Inactive)
REMARK    1  A    between atoms: C_3  and  C_9
REMARK    2  A    between atoms: C_6  and  C_7
REMARK    3  A    between atoms: C_12  and  O_15
REMARK    4  A    between atoms: O_15  and  C_16
REMARK    5  A    between atoms: C_16  and  C_17
REMARK    6  A    between atoms: N_19  and  N_20
REMARK    7  A    between atoms: C_21  and  C_23
REMARK    8  A    between atoms: C_23  and  N_24
REMARK    9  A    between atoms: C_25  and  C_27
REMARK                            x       y       z     vdW  Elec       q    Type
REMARK                         _______ _______ _______ _____ _____    ______ ____
ROOT
ATOM      1  C   UNL     1       9.581  -5.305   5.536  0.00  0.00    +0.267 C 
ATOM      2  O   UNL     1      10.464  -4.480   5.637  0.00  0.00    -0.271 OA
ATOM      3  N   UNL     1       8.410  -4.971   4.958  0.00  0.00    -0.232 N 
ATOM      4  H   UNL     1       7.704  -5.631   4.877  0.00  0.00    +0.173 HD
ENDROOT
BRANCH   3   5
ATOM      5  N   UNL     1       8.214  -3.671   4.473  0.00  0.00    -0.233 N 
ATOM      6  C   UNL     1       7.043  -3.338   3.894  0.00  0.00    +0.246 C 
ATOM      7  O   UNL     1       6.160  -4.163   3.793  0.00  0.00    -0.273 OA
ATOM      8  H   UNL     1       8.920  -3.012   4.554  0.00  0.00    +0.173 HD
BRANCH   6   9
ATOM      9  C   UNL     1       6.831  -1.940   3.373  0.00  0.00    +0.202 C 
BRANCH   9  10
ATOM     10  N   UNL     1       5.489  -1.832   2.796  0.00  0.00    -0.303 N 
ATOM     11  C   UNL     1       5.076  -0.664   2.264  0.00  0.00    +0.245 C 
ATOM     12  O   UNL     1       5.818   0.300   2.264  0.00  0.00    -0.270 OA
ATOM     13  H   UNL     1       4.898  -2.601   2.795  0.00  0.00    +0.150 HD
BRANCH  11  14
ATOM     14  C   UNL     1       3.724  -0.555   1.682  0.00  0.00    +0.040 A 
ATOM     15  C   UNL     1       2.871  -1.662   1.681  0.00  0.00    +0.017 A 
ATOM     16  C   UNL     1       1.609  -1.558   1.138  0.00  0.00    +0.050 A 
ATOM     17  C   UNL     1       1.181  -0.356   0.590  0.00  0.00    +0.166 A 
ATOM     18  C   UNL     1       2.028   0.752   0.588  0.00  0.00    +0.167 A 
ATOM     19  C   UNL     1       3.294   0.654   1.131  0.00  0.00    +0.062 A 
ATOM     20  O   UNL     1       1.376   1.797  -0.001  0.00  0.00    -0.453 OA
ATOM     21  C   UNL     1      -0.017   1.435   0.010  0.00  0.00    +0.466 C 
ATOM     22  O   UNL     1       0.002  -0.004   0.002  0.00  0.00    -0.453 OA
ENDBRANCH  11  14
ENDBRANCH   9  10
ENDBRANCH   6   9
ENDBRANCH   3   5
BRANCH   1  23
ATOM     23  C   UNL     1       9.792  -6.703   6.058  0.00  0.00    +0.326 C 
BRANCH  23  24
ATOM     24  O   UNL     1      11.101  -6.808   6.621  0.00  0.00    -0.483 OA
BRANCH  24  28
ATOM     25  C   UNL     1      12.174 -10.470   8.198  0.00  0.00    -0.018 A 
ATOM     26  C   UNL     1      13.074  -9.405   8.230  0.00  0.00    +0.012 A 
ATOM     27  C   UNL     1      12.713  -8.183   7.702  0.00  0.00    +0.046 A 
ATOM     28  C   UNL     1      11.454  -8.013   7.139  0.00  0.00    +0.121 A 
ATOM     29  C   UNL     1      10.555  -9.070   7.111  0.00  0.00    +0.046 A 
ATOM     30  C   UNL     1      10.912 -10.296   7.632  0.00  0.00    +0.012 A 
BRANCH  25  33
ATOM     31  C   UNL     1      12.013 -14.069   9.258  0.00  0.00    +0.019 A 
ATOM     32  C   UNL     1      11.657 -12.848   8.732  0.00  0.00    +0.010 A 
ATOM     33  C   UNL     1      12.559 -11.784   8.765  0.00  0.00    -0.018 A 
ATOM     34  C   UNL     1      13.824 -11.957   9.327  0.00  0.00    +0.010 A 
ATOM     35  C   UNL     1      14.181 -13.175   9.859  0.00  0.00    +0.019 A 
ATOM     36  C   UNL     1      13.279 -14.243   9.826  0.00  0.00    +0.052 A 
BRANCH  36  37
ATOM     37  C   UNL     1      13.651 -15.513  10.373  0.00  0.00    +0.099 C 
ATOM     38  N   UNL     1      13.946 -16.520  10.807  0.00  0.00    -0.191 NA
ENDBRANCH  36  37
ENDBRANCH  25  33
ENDBRANCH  24  28
ENDBRANCH  23  24
ENDBRANCH   1  23
TORSDOF 9
