REMARK  Name = ZINC35742814
REMARK  18 active torsions:
REMARK  status: ('A' for Active; 'I' for Inactive)
REMARK    1  A    between atoms: C_1  and  C_2
REMARK    2  A    between atoms: C_2  and  O_3
REMARK    3  A    between atoms: O_3  and  C_4
REMARK    4  A    between atoms: C_4  and  C_5
REMARK    5  A    between atoms: C_5  and  O_6
REMARK    6  A    between atoms: O_6  and  C_7
REMARK    7  A    between atoms: C_9  and  C_29
REMARK    8  A    between atoms: N_10  and  C_12
REMARK    9  A    between atoms: C_15  and  N_18
REMARK   10  A    between atoms: N_18  and  C_19
REMARK   11  A    between atoms: C_19  and  C_20
REMARK   12  A    between atoms: C_20  and  C_22
REMARK   13  A    between atoms: C_20  and  O_28
REMARK   14  A    between atoms: C_22  and  O_23
REMARK   15  A    between atoms: O_23  and  C_24
REMARK   16  A    between atoms: C_24  and  C_25
REMARK   17  A    between atoms: C_24  and  C_26
REMARK   18  A    between atoms: C_24  and  C_27
REMARK                            x       y       z     vdW  Elec       q    Type
REMARK                         _______ _______ _______ _____ _____    ______ ____
ROOT
ATOM      1  C   UNL     1       6.514  -2.143  -5.702  0.00  0.00    +0.068 A 
ATOM      2  C   UNL     1       6.899  -3.142  -6.587  0.00  0.00    +0.029 A 
ATOM      3  C   UNL     1       8.109  -3.052  -7.245  0.00  0.00    +0.025 A 
ATOM      4  C   UNL     1       8.942  -1.963  -7.022  0.00  0.00    +0.027 A 
ATOM      5  C   UNL     1       8.557  -0.964  -6.137  0.00  0.00    +0.025 A 
ATOM      6  C   UNL     1       7.344  -1.051  -5.483  0.00  0.00    +0.029 A 
ENDROOT
BRANCH   1  10
ATOM      7  C   UNL     1       3.347  -1.712  -4.171  0.00  0.00    +0.338 A 
ATOM      8  N   UNL     1       3.588  -3.000  -3.926  0.00  0.00    -0.171 NA
ATOM      9  C   UNL     1       4.758  -3.340  -4.439  0.00  0.00    +0.202 A 
ATOM     10  N   UNL     1       5.286  -2.234  -5.034  0.00  0.00    -0.207 N 
ATOM     11  N   UNL     1       4.349  -1.204  -4.848  0.00  0.00    -0.108 NA
BRANCH   9  12
ATOM     12  C   UNL     1       5.378  -4.672  -4.379  0.00  0.00    +0.172 A 
ATOM     13  C   UNL     1       4.740  -5.839  -4.079  0.00  0.00    +0.053 A 
ATOM     14  C   UNL     1       5.710  -6.857  -4.137  0.00  0.00    +0.042 A 
ATOM     15  C   UNL     1       6.879  -6.272  -4.466  0.00  0.00    +0.196 A 
ATOM     16  O   UNL     1       6.674  -4.954  -4.616  0.00  0.00    -0.460 OA
ENDBRANCH   9  12
BRANCH   7  17
ATOM     17  O   UNL     1       2.235  -1.034  -3.785  0.00  0.00    -0.459 OA
BRANCH  17  18
ATOM     18  C   UNL     1       1.250  -1.766  -3.052  0.00  0.00    +0.260 C 
BRANCH  18  19
ATOM     19  C   UNL     1       0.080  -0.843  -2.708  0.00  0.00    +0.201 C 
BRANCH  19  20
ATOM     20  O   UNL     1      -0.573  -0.432  -3.911  0.00  0.00    -0.377 OA
BRANCH  20  22
ATOM     21  C   UNL     1      -2.304   0.811  -5.050  0.00  0.00    +0.034 C 
ATOM     22  C   UNL     1      -1.686   0.438  -3.701  0.00  0.00    +0.156 C 
ENDBRANCH  20  22
ENDBRANCH  19  20
ENDBRANCH  18  19
ENDBRANCH  17  18
ENDBRANCH   7  17
ENDBRANCH   1  10
BRANCH   4  23
ATOM     23  N   UNL     1      10.167  -1.872  -7.689  0.00  0.00    -0.341 N 
ATOM     24  H   UNL     1      10.436  -2.570  -8.307  0.00  0.00    +0.146 HD
BRANCH  23  25
ATOM     25  C   UNL     1      11.046  -0.724  -7.454  0.00  0.00    +0.135 C 
BRANCH  25  26
ATOM     26  C   UNL     1      12.312  -0.869  -8.300  0.00  0.00    +0.157 C 
BRANCH  26  27
ATOM     27  O   UNL     1      12.993  -2.071  -7.935  0.00  0.00    -0.388 OA
ATOM     28  H   UNL     1      13.264  -2.104  -7.008  0.00  0.00    +0.210 HD
ENDBRANCH  26  27
BRANCH  26  29
ATOM     29  C   UNL     1      13.229   0.331  -8.055  0.00  0.00    +0.193 C 
BRANCH  29  30
ATOM     30  O   UNL     1      14.357   0.255  -8.929  0.00  0.00    -0.372 OA
BRANCH  30  31
ATOM     31  C   UNL     1      15.281   1.335  -8.781  0.00  0.00    +0.061 C 
ATOM     32  C   UNL     1      15.821   1.351  -7.349  0.00  0.00    +0.041 C 
ATOM     33  C   UNL     1      16.442   1.151  -9.761  0.00  0.00    +0.041 C 
ATOM     34  C   UNL     1      14.572   2.658  -9.073  0.00  0.00    +0.041 C 
ENDBRANCH  30  31
ENDBRANCH  29  30
ENDBRANCH  26  29
ENDBRANCH  25  26
ENDBRANCH  23  25
ENDBRANCH   4  23
TORSDOF 14
