REMARK  Name = ZINC55631649
REMARK  8 active torsions:
REMARK  status: ('A' for Active; 'I' for Inactive)
REMARK    1  A    between atoms: C_1  and  C_2
REMARK    2  A    between atoms: C_5  and  N_26
REMARK    3  A    between atoms: C_7  and  S_8
REMARK    4  A    between atoms: S_8  and  N_11
REMARK    5  A    between atoms: N_11  and  C_12
REMARK    6  A    between atoms: C_15  and  O_18
REMARK    7  A    between atoms: O_18  and  C_19
REMARK    8  A    between atoms: C_19  and  C_20
REMARK                            x       y       z     vdW  Elec       q    Type
REMARK                         _______ _______ _______ _____ _____    ______ ____
ROOT
ATOM      1  N   UNL     1       1.176   1.029   2.916  0.00  0.00    -0.216 N 
ATOM      2  H   UNL     1       1.882   0.853   3.558  0.00  0.00    +0.174 HD
ENDROOT
BRANCH   1   3
ATOM      3  C   UNL     1       1.215   2.190   2.135  0.00  0.00    +0.048 A 
ATOM      4  C   UNL     1       0.967   2.117   0.770  0.00  0.00    +0.028 A 
ATOM      5  C   UNL     1       1.005   3.263   0.000  0.00  0.00    +0.047 A 
ATOM      6  C   UNL     1       1.291   4.485   0.589  0.00  0.00    +0.121 A 
ATOM      7  C   UNL     1       1.540   4.559   1.951  0.00  0.00    +0.047 A 
ATOM      8  C   UNL     1       1.497   3.415   2.724  0.00  0.00    +0.028 A 
BRANCH   6   9
ATOM      9  O   UNL     1       1.329   5.613  -0.171  0.00  0.00    -0.489 OA
BRANCH   9  10
ATOM     10  C   UNL     1       1.630   6.838   0.501  0.00  0.00    +0.260 C 
BRANCH  10  11
ATOM     11  C   UNL     1       1.627   7.987  -0.509  0.00  0.00    +0.156 C 
ATOM     12  C   UNL     1       2.069   9.294   0.184  0.00  0.00    +0.037 C 
ATOM     13  C   UNL     1       1.127  10.346  -0.464  0.00  0.00    +0.031 C 
ATOM     14  C   UNL     1      -0.160   9.506  -0.661  0.00  0.00    +0.160 C 
ATOM     15  O   UNL     1       0.301   8.189  -1.011  0.00  0.00    -0.373 OA
ENDBRANCH  10  11
ENDBRANCH   9  10
ENDBRANCH   6   9
ENDBRANCH   1   3
BRANCH   1  16
ATOM     16  S   UNL     1      -0.075  -0.042   2.746  0.00  0.00    +0.073 S 
ATOM     17  O   UNL     1      -1.270   0.726   2.744  0.00  0.00    -0.150 OA
ATOM     18  O   UNL     1       0.157  -1.089   3.679  0.00  0.00    -0.150 OA
BRANCH  16  25
ATOM     19  C   UNL     1       2.240  -1.774   1.855  0.00  0.00    +0.046 C 
ATOM     20  C   UNL     1       1.164  -1.536   0.827  0.00  0.00    -0.024 A 
ATOM     21  C   UNL     1       1.272  -2.102  -0.430  0.00  0.00    +0.007 A 
ATOM     22  C   UNL     1       0.286  -1.884  -1.374  0.00  0.00    +0.033 A 
ATOM     23  C   UNL     1      -0.809  -1.100  -1.060  0.00  0.00    +0.128 A 
ATOM     24  C   UNL     1      -0.918  -0.535   0.197  0.00  0.00    +0.061 A 
ATOM     25  C   UNL     1       0.067  -0.757   1.142  0.00  0.00    +0.114 A 
BRANCH  23  26
ATOM     26  N   UNL     1      -1.865  -0.866  -2.070  0.00  0.00    +0.056 N 
ATOM     27  O   UNL     1      -1.770  -1.360  -3.170  0.00  0.00    -0.126 OA
ATOM     28  O   UNL     1      -2.823  -0.181  -1.796  0.00  0.00    -0.126 OA
ENDBRANCH  23  26
ENDBRANCH  16  25
ENDBRANCH   1  16
TORSDOF 7
