REMARK  Name = ZINC42141924
REMARK  7 active torsions:
REMARK  status: ('A' for Active; 'I' for Inactive)
REMARK    1  A    between atoms: C_1  and  C_2
REMARK    2  A    between atoms: C_5  and  N_21
REMARK    3  A    between atoms: C_7  and  N_8
REMARK    4  A    between atoms: C_9  and  C_11
REMARK    5  A    between atoms: C_11  and  C_13
REMARK    6  A    between atoms: C_11  and  S_14
REMARK    7  A    between atoms: S_14  and  C_15
REMARK                            x       y       z     vdW  Elec       q    Type
REMARK                         _______ _______ _______ _____ _____    ______ ____
ROOT
ATOM      1  N   UNL     1       0.075  -0.428   2.335  0.00  0.00    -0.284 N 
ATOM      2  C   UNL     1      -0.038  -0.986   3.557  0.00  0.00    +0.230 C 
ATOM      3  O   UNL     1      -0.075  -2.193   3.672  0.00  0.00    -0.274 OA
ATOM      4  H   UNL     1       0.174   0.532   2.248  0.00  0.00    +0.155 HD
ENDROOT
BRANCH   1  11
ATOM      5  C   UNL     1      -1.132   0.615  -0.021  0.00  0.00    +0.045 C 
ATOM      6  C   UNL     1      -0.531  -0.766   0.022  0.00  0.00    -0.029 A 
ATOM      7  C   UNL     1      -0.551  -1.564  -1.105  0.00  0.00    +0.007 A 
ATOM      8  C   UNL     1       0.000  -2.831  -1.067  0.00  0.00    +0.033 A 
ATOM      9  C   UNL     1       0.573  -3.304   0.099  0.00  0.00    +0.128 A 
ATOM     10  C   UNL     1       0.597  -2.512   1.230  0.00  0.00    +0.056 A 
ATOM     11  C   UNL     1       0.048  -1.236   1.193  0.00  0.00    +0.038 A 
BRANCH   9  12
ATOM     12  N   UNL     1       1.161  -4.662   0.136  0.00  0.00    +0.056 N 
ATOM     13  O   UNL     1       1.141  -5.357  -0.853  0.00  0.00    -0.126 OA
ATOM     14  O   UNL     1       1.662  -5.077   1.155  0.00  0.00    -0.126 OA
ENDBRANCH   9  12
ENDBRANCH   1  11
BRANCH   2  15
ATOM     15  C   UNL     1      -0.117  -0.109   4.781  0.00  0.00    +0.130 C 
ATOM     16  C   UNL     1       1.288   0.358   5.165  0.00  0.00    +0.029 C 
BRANCH  15  17
ATOM     17  S   UNL     1      -0.838  -1.051   6.153  0.00  0.00    -0.145 S 
BRANCH  17  18
ATOM     18  C   UNL     1      -2.566  -1.295   5.659  0.00  0.00    +0.047 C 
ATOM     19  C   UNL     1      -3.284   0.056   5.632  0.00  0.00    +0.014 C 
ATOM     20  C   UNL     1      -4.742  -0.150   5.214  0.00  0.00    +0.001 C 
ATOM     21  C   UNL     1      -5.434  -1.075   6.217  0.00  0.00    +0.000 C 
ATOM     22  C   UNL     1      -4.716  -2.426   6.244  0.00  0.00    +0.001 C 
ATOM     23  C   UNL     1      -3.258  -2.220   6.662  0.00  0.00    +0.014 C 
ENDBRANCH  17  18
ENDBRANCH  15  17
ENDBRANCH   2  15
TORSDOF 5
