REMARK  Name = ZINC39973347
REMARK  14 active torsions:
REMARK  status: ('A' for Active; 'I' for Inactive)
REMARK    1  A    between atoms: C_1  and  C_2
REMARK    2  A    between atoms: C_3  and  C_33
REMARK    3  A    between atoms: C_4  and  N_12
REMARK    4  A    between atoms: C_6  and  C_7
REMARK    5  A    between atoms: N_9  and  C_10
REMARK    6  A    between atoms: N_9  and  C_11
REMARK    7  A    between atoms: C_13  and  C_15
REMARK    8  A    between atoms: C_15  and  S_16
REMARK    9  A    between atoms: S_16  and  C_17
REMARK   10  A    between atoms: C_20  and  C_25
REMARK   11  A    between atoms: N_21  and  C_22
REMARK   12  A    between atoms: C_22  and  C_23
REMARK   13  A    between atoms: C_25  and  O_26
REMARK   14  A    between atoms: O_26  and  C_27
REMARK                            x       y       z     vdW  Elec       q    Type
REMARK                         _______ _______ _______ _____ _____    ______ ____
ROOT
ATOM      1  C   UNL     1       1.750  -5.395  -2.692  0.00  0.00    +0.173 C 
ENDROOT
BRANCH   1   3
ATOM      2  N   UNL     1       1.410  -3.071  -1.917  0.00  0.00    -0.278 N 
ATOM      3  C   UNL     1       1.446  -4.384  -1.616  0.00  0.00    +0.228 C 
ATOM      4  O   UNL     1       1.234  -4.752  -0.480  0.00  0.00    -0.275 OA
ATOM      5  H   UNL     1       1.580  -2.776  -2.825  0.00  0.00    +0.155 HD
BRANCH   2   9
ATOM      6  C   UNL     1       0.645   1.477   0.065  0.00  0.00    +0.046 C 
ATOM      7  C   UNL     1       0.754  -0.025   0.089  0.00  0.00    -0.012 A 
ATOM      8  C   UNL     1       1.051  -0.756  -1.052  0.00  0.00    +0.084 A 
ATOM      9  C   UNL     1       1.131  -2.143  -0.930  0.00  0.00    +0.090 A 
ATOM     10  S   UNL     1       0.808  -2.424   0.694  0.00  0.00    -0.067 S 
ATOM     11  C   UNL     1       0.571  -0.745   1.240  0.00  0.00    +0.080 A 
BRANCH  11  12
ATOM     12  C   UNL     1       0.256  -0.257   2.584  0.00  0.00    +0.253 C 
ATOM     13  O   UNL     1       0.272   0.938   2.817  0.00  0.00    -0.269 OA
ATOM     14  N   UNL     1      -0.051  -1.130   3.564  0.00  0.00    -0.303 N 
ATOM     15  C   UNL     1      -0.401  -0.640   4.899  0.00  0.00    +0.132 C 
ATOM     16  C   UNL     1      -0.034  -2.570   3.293  0.00  0.00    +0.132 C 
ENDBRANCH  11  12
BRANCH   8  17
ATOM     17  C   UNL     1       1.268  -0.109  -2.311  0.00  0.00    +0.102 C 
ATOM     18  N   UNL     1       1.440   0.405  -3.309  0.00  0.00    -0.191 NA
ENDBRANCH   8  17
ENDBRANCH   2   9
ENDBRANCH   1   3
BRANCH   1  19
ATOM     19  S   UNL     1       1.726  -7.063  -1.978  0.00  0.00    -0.077 S 
BRANCH  19  20
ATOM     20  C   UNL     1       2.095  -8.115  -3.342  0.00  0.00    +0.192 A 
ATOM     21  N   UNL     1       2.333  -7.739  -4.577  0.00  0.00    -0.122 NA
ATOM     22  N   UNL     1       2.564  -8.768  -5.311  0.00  0.00    -0.130 NA
ATOM     23  C   UNL     1       2.488  -9.854  -4.594  0.00  0.00    +0.172 A 
ATOM     24  N   UNL     1       2.192  -9.477  -3.313  0.00  0.00    -0.299 N 
BRANCH  24  25
ATOM     25  C   UNL     1       2.014 -10.352  -2.153  0.00  0.00    +0.152 C 
BRANCH  25  26
ATOM     26  C   UNL     1       0.566 -10.759  -2.048  0.00  0.00    -0.013 C 
ATOM     27  C   UNL     1       0.243 -12.027  -2.005  0.00  0.00    +0.005 C 
ENDBRANCH  25  26
ENDBRANCH  24  25
BRANCH  23  28
ATOM     28  C   UNL     1       2.695 -11.264  -5.085  0.00  0.00    +0.305 C 
BRANCH  28  29
ATOM     29  O   UNL     1       4.074 -11.616  -4.958  0.00  0.00    -0.484 OA
BRANCH  29  30
ATOM     30  C   UNL     1       4.432 -12.864  -5.359  0.00  0.00    +0.121 A 
ATOM     31  C   UNL     1       3.477 -13.730  -5.871  0.00  0.00    +0.045 A 
ATOM     32  C   UNL     1       3.843 -14.998  -6.279  0.00  0.00    +0.004 A 
ATOM     33  C   UNL     1       5.161 -15.404  -6.177  0.00  0.00    +0.000 A 
ATOM     34  C   UNL     1       6.115 -14.543  -5.667  0.00  0.00    +0.004 A 
ATOM     35  C   UNL     1       5.755 -13.271  -5.263  0.00  0.00    +0.045 A 
ENDBRANCH  29  30
ENDBRANCH  28  29
ENDBRANCH  23  28
ENDBRANCH  19  20
ENDBRANCH   1  19
TORSDOF 11
