REMARK  Name = ZINC41076554
REMARK  4 active torsions:
REMARK  status: ('A' for Active; 'I' for Inactive)
REMARK    1  A    between atoms: C_4  and  O_7
REMARK    2  A    between atoms: O_7  and  C_8
REMARK    3  A    between atoms: C_8  and  C_9
REMARK    4  A    between atoms: C_15  and  C_20
REMARK                            x       y       z     vdW  Elec       q    Type
REMARK                         _______ _______ _______ _____ _____    ______ ____
ROOT
ATOM      1  C   UNL     1       4.932  -2.615  -0.061  0.00  0.00    +0.256 C 
ATOM      2  O   UNL     1       5.883  -1.863  -0.067  0.00  0.00    -0.272 OA
ATOM      3  N   UNL     1       5.128  -3.949  -0.070  0.00  0.00    -0.260 N 
ATOM      4  C   UNL     1       6.420  -4.461  -0.086  0.00  0.00    +0.188 A 
ATOM      5  N   UNL     1       6.808  -5.708  -0.102  0.00  0.00    -0.140 NA
ATOM      6  N   UNL     1       8.156  -6.042  -0.118  0.00  0.00    -0.184 N 
ATOM      7  C   UNL     1       8.967  -7.168  -0.136  0.00  0.00    +0.186 A 
ATOM      8  N   UNL     1      10.216  -6.761  -0.143  0.00  0.00    -0.126 NA
ATOM      9  N   UNL     1      10.257  -5.474  -0.131  0.00  0.00    -0.120 NA
ATOM     10  C   UNL     1       9.046  -5.000  -0.115  0.00  0.00    +0.220 A 
ATOM     11  S   UNL     1       7.975  -3.583  -0.098  0.00  0.00    -0.011 S 
ATOM     12  H   UNL     1       4.368  -4.551  -0.066  0.00  0.00    +0.157 HD
ENDROOT
BRANCH   7  13
ATOM     13  C   UNL     1       8.508  -8.572  -0.145  0.00  0.00    +0.022 A 
ATOM     14  C   UNL     1       7.183  -8.879   0.171  0.00  0.00    +0.012 A 
ATOM     15  C   UNL     1       6.760 -10.192   0.160  0.00  0.00    +0.002 A 
ATOM     16  C   UNL     1       7.646 -11.205  -0.162  0.00  0.00    +0.020 A 
ATOM     17  C   UNL     1       8.961 -10.908  -0.476  0.00  0.00    +0.042 A 
ATOM     18  C   UNL     1       9.395  -9.597  -0.476  0.00  0.00    +0.031 A 
ATOM     19 CL   UNL     1      10.065 -12.186  -0.879  0.00  0.00    -0.084 Cl
ENDBRANCH   7  13
BRANCH   1  20
ATOM     20  C   UNL     1       3.531  -2.060  -0.044  0.00  0.00    +0.324 C 
BRANCH  20  21
ATOM     21  O   UNL     1       3.586  -0.632  -0.037  0.00  0.00    -0.483 OA
BRANCH  21  25
ATOM     22  C   UNL     1      -0.017   1.378   0.010  0.00  0.00    +0.000 A 
ATOM     23  C   UNL     1       1.170   2.088   0.002  0.00  0.00    +0.004 A 
ATOM     24  C   UNL     1       2.377   1.417  -0.013  0.00  0.00    +0.045 A 
ATOM     25  C   UNL     1       2.399   0.030  -0.021  0.00  0.00    +0.121 A 
ATOM     26  C   UNL     1       1.207  -0.680  -0.013  0.00  0.00    +0.045 A 
ATOM     27  C   UNL     1       0.002  -0.004   0.002  0.00  0.00    +0.004 A 
ENDBRANCH  21  25
ENDBRANCH  20  21
ENDBRANCH   1  20
TORSDOF 4
