REMARK  Name = ZINC66704583
REMARK  7 active torsions:
REMARK  status: ('A' for Active; 'I' for Inactive)
REMARK    1  A    between atoms: C_1  and  C_2
REMARK    2  A    between atoms: C_2  and  C_3
REMARK    3  A    between atoms: C_3  and  C_4
REMARK    4  A    between atoms: C_4  and  N_5
REMARK    5  A    between atoms: C_10  and  C_12
REMARK    6  A    between atoms: C_12  and  N_13
REMARK    7  A    between atoms: C_19  and  N_22
REMARK                            x       y       z     vdW  Elec       q    Type
REMARK                         _______ _______ _______ _____ _____    ______ ____
ROOT
ATOM      1  N   UNL     1      -0.707  -3.901   1.002  0.00  0.00    -0.301 N 
ATOM      2  C   UNL     1      -2.013  -4.057   0.709  0.00  0.00    +0.302 C 
ATOM      3  O   UNL     1      -2.737  -4.674   1.466  0.00  0.00    -0.253 OA
ATOM      4  N   UNL     1      -2.518  -3.529  -0.424  0.00  0.00    -0.286 N 
ATOM      5  C   UNL     1      -3.959  -3.590  -0.701  0.00  0.00    +0.108 C 
ATOM      6  C   UNL     1      -4.465  -2.175  -0.996  0.00  0.00    +0.004 C 
ATOM      7  C   UNL     1      -3.633  -1.565  -2.127  0.00  0.00    -0.066 C 
ATOM      8  C   UNL     1      -2.168  -1.474  -1.692  0.00  0.00    +0.004 C 
ATOM      9  C   UNL     1      -1.637  -2.876  -1.403  0.00  0.00    +0.108 C 
ATOM     10  H   UNL     1      -0.115  -3.473   0.364  0.00  0.00    +0.150 HD
ENDROOT
BRANCH   7  11
ATOM     11  N   UNL     1      -4.137  -0.220  -2.435  0.00  0.00    +0.382 N 
ATOM     12  C   UNL     1      -3.397   0.352  -3.588  0.00  0.00    -0.079 C 
ATOM     13  C   UNL     1      -4.363   1.437  -4.127  0.00  0.00    -0.020 C 
ATOM     14  C   UNL     1      -5.752   0.783  -3.944  0.00  0.00    -0.020 C 
ATOM     15  C   UNL     1      -5.552  -0.290  -2.858  0.00  0.00    -0.079 C 
ATOM     16  H   UNL     1      -4.044   0.380  -1.629  0.00  0.00    -0.081 HD
ENDBRANCH   7  11
BRANCH   1  17
ATOM     17  C   UNL     1      -0.181  -4.378   2.283  0.00  0.00    +0.090 C 
BRANCH  17  23
ATOM     18  N   UNL     1       2.034  -4.457   1.246  0.00  0.00    +0.383 N 
ATOM     19  C   UNL     1       3.459  -4.140   1.399  0.00  0.00    -0.078 C 
ATOM     20  C   UNL     1       3.646  -2.622   1.440  0.00  0.00    -0.019 C 
ATOM     21  C   UNL     1       2.864  -2.048   2.626  0.00  0.00    -0.003 C 
ATOM     22  C   UNL     1       1.391  -2.449   2.494  0.00  0.00    -0.014 C 
ATOM     23  C   UNL     1       1.288  -3.973   2.414  0.00  0.00    -0.051 C 
ATOM     24  H   UNL     1       1.680  -4.011   0.414  0.00  0.00    -0.081 HD
BRANCH  18  25
ATOM     25  C   UNL     1       1.868  -5.912   1.129  0.00  0.00    -0.078 C 
BRANCH  25  26
ATOM     26  C   UNL     1       2.528  -6.398  -0.163  0.00  0.00    -0.019 C 
BRANCH  26  28
ATOM     27  C   UNL     1       3.014  -8.400  -1.577  0.00  0.00    +0.004 C 
ATOM     28  C   UNL     1       2.354  -7.913  -0.285  0.00  0.00    -0.005 C 
ENDBRANCH  26  28
ENDBRANCH  25  26
ENDBRANCH  18  25
ENDBRANCH  17  23
ENDBRANCH   1  17
TORSDOF 6
