REMARK  Name = ZINC08562428
REMARK  9 active torsions:
REMARK  status: ('A' for Active; 'I' for Inactive)
REMARK    1  A    between atoms: C_1  and  C_2
REMARK    2  A    between atoms: C_2  and  C_4
REMARK    3  A    between atoms: C_2  and  O_23
REMARK    4  A    between atoms: N_6  and  C_7
REMARK    5  A    between atoms: C_12  and  C_13
REMARK    6  A    between atoms: N_15  and  C_16
REMARK    7  A    between atoms: N_15  and  C_17
REMARK    8  A    between atoms: O_23  and  C_24
REMARK    9  A    between atoms: C_27  and  N_30
REMARK                            x       y       z     vdW  Elec       q    Type
REMARK                         _______ _______ _______ _____ _____    ______ ____
ROOT
ATOM      1  C   UNL     1       5.230   1.841   0.082  0.00  0.00    +0.258 C 
ATOM      2  O   UNL     1       5.381   0.749  -0.424  0.00  0.00    -0.271 OA
ATOM      3  N   UNL     1       3.992   2.278   0.385  0.00  0.00    -0.282 N 
ATOM      4  H   UNL     1       3.863   3.182   0.711  0.00  0.00    +0.155 HD
ENDROOT
BRANCH   3   5
ATOM      5  C   UNL     1       2.897   1.432   0.228  0.00  0.00    +0.046 A 
ATOM      6  C   UNL     1       3.067   0.054   0.270  0.00  0.00    +0.024 A 
ATOM      7  C   UNL     1       1.981  -0.782   0.114  0.00  0.00    +0.002 A 
ATOM      8  C   UNL     1       0.714  -0.257  -0.085  0.00  0.00    +0.001 A 
ATOM      9  C   UNL     1       0.526   1.107  -0.130  0.00  0.00    +0.015 A 
ATOM     10  C   UNL     1       1.616   1.967   0.027  0.00  0.00    +0.058 A 
BRANCH  10  11
ATOM     11  C   UNL     1       1.421   3.428  -0.020  0.00  0.00    +0.248 C 
ATOM     12  O   UNL     1       1.808   4.123   0.899  0.00  0.00    -0.270 OA
ATOM     13  N   UNL     1       0.813   3.993  -1.082  0.00  0.00    -0.297 N 
ATOM     14  C   UNL     1       0.254   3.149  -2.141  0.00  0.00    +0.132 C 
BRANCH  13  15
ATOM     15  C   UNL     1       0.711   5.451  -1.177  0.00  0.00    +0.076 C 
ATOM     16  C   UNL     1      -0.763   5.857  -1.234  0.00  0.00    +0.022 C 
ATOM     17  C   UNL     1      -0.870   7.380  -1.334  0.00  0.00    +0.002 C 
ATOM     18  C   UNL     1      -0.160   7.859  -2.602  0.00  0.00    +0.000 C 
ATOM     19  C   UNL     1       1.314   7.454  -2.545  0.00  0.00    +0.002 C 
ATOM     20  C   UNL     1       1.421   5.931  -2.445  0.00  0.00    +0.022 C 
ENDBRANCH  13  15
ENDBRANCH  10  11
ENDBRANCH   3   5
BRANCH   1  22
ATOM     21  C   UNL     1       6.566   2.896   1.884  0.00  0.00    +0.062 C 
ATOM     22  C   UNL     1       6.428   2.708   0.372  0.00  0.00    +0.256 C 
BRANCH  22  23
ATOM     23  O   UNL     1       7.605   2.081  -0.140  0.00  0.00    -0.480 OA
BRANCH  23  24
ATOM     24  C   UNL     1       8.655   2.891  -0.438  0.00  0.00    +0.122 A 
ATOM     25  C   UNL     1       8.520   4.268  -0.341  0.00  0.00    +0.048 A 
ATOM     26  C   UNL     1       9.591   5.089  -0.639  0.00  0.00    +0.036 A 
ATOM     27  C   UNL     1      10.793   4.539  -1.044  0.00  0.00    +0.126 A 
ATOM     28  C   UNL     1      10.929   3.167  -1.146  0.00  0.00    +0.036 A 
ATOM     29  C   UNL     1       9.863   2.342  -0.844  0.00  0.00    +0.048 A 
BRANCH  27  30
ATOM     30  N   UNL     1      11.936   5.421  -1.369  0.00  0.00    +0.056 N 
ATOM     31  O   UNL     1      12.996   4.938  -1.726  0.00  0.00    -0.126 OA
ATOM     32  O   UNL     1      11.818   6.630  -1.279  0.00  0.00    -0.126 OA
ENDBRANCH  27  30
ENDBRANCH  23  24
ENDBRANCH  22  23
ENDBRANCH   1  22
TORSDOF 7
