REMARK  Name = ZINC22018049
REMARK  8 active torsions:
REMARK  status: ('A' for Active; 'I' for Inactive)
REMARK    1  A    between atoms: C_4  and  C_7
REMARK    2  A    between atoms: C_7  and  C_21
REMARK    3  A    between atoms: N_8  and  N_9
REMARK    4  A    between atoms: C_10  and  C_12
REMARK    5  A    between atoms: C_15  and  N_18
REMARK    6  A    between atoms: C_21  and  C_22
REMARK    7  A    between atoms: C_22  and  C_24
REMARK    8  A    between atoms: C_22  and  C_35
REMARK                            x       y       z     vdW  Elec       q    Type
REMARK                         _______ _______ _______ _____ _____    ______ ____
ROOT
ATOM      1  C   UNL     1      -0.053   5.355  -0.178  0.00  0.00    +0.067 C 
ATOM      2  N   UNL     1       1.042   5.983   0.123  0.00  0.00    -0.184 NA
ENDROOT
BRANCH   1   6
ATOM      3  C   UNL     1       0.120   1.386  -1.674  0.00  0.00    +0.000 A 
ATOM      4  C   UNL     1       1.106   2.295  -2.016  0.00  0.00    +0.001 A 
ATOM      5  C   UNL     1       1.053   3.588  -1.538  0.00  0.00    +0.010 A 
ATOM      6  C   UNL     1       0.007   3.976  -0.697  0.00  0.00    -0.002 A 
ATOM      7  C   UNL     1      -0.982   3.052  -0.352  0.00  0.00    +0.010 A 
ATOM      8  C   UNL     1      -0.919   1.764  -0.842  0.00  0.00    +0.001 A 
ENDBRANCH   1   6
BRANCH   2   9
ATOM      9  N   UNL     1       2.266   5.303   0.108  0.00  0.00    -0.203 N 
ATOM     10  C   UNL     1       3.415   5.980   0.304  0.00  0.00    +0.263 C 
ATOM     11  O   UNL     1       3.389   7.181   0.494  0.00  0.00    -0.268 OA
ATOM     12  H   UNL     1       2.290   4.217  -0.064  0.00  0.00    +0.178 HD
BRANCH  10  13
ATOM     13  C   UNL     1       4.707   5.263   0.288  0.00  0.00    +0.038 A 
ATOM     14  C   UNL     1       4.741   3.884   0.076  0.00  0.00    +0.015 A 
ATOM     15  C   UNL     1       5.951   3.221   0.058  0.00  0.00    +0.033 A 
ATOM     16  C   UNL     1       7.128   3.919   0.259  0.00  0.00    +0.126 A 
ATOM     17  C   UNL     1       7.102   5.285   0.475  0.00  0.00    +0.033 A 
ATOM     18  C   UNL     1       5.899   5.961   0.490  0.00  0.00    +0.015 A 
BRANCH  16  19
ATOM     19  N   UNL     1       8.422   3.200   0.244  0.00  0.00    +0.056 N 
ATOM     20  O   UNL     1       9.461   3.812   0.421  0.00  0.00    -0.126 OA
ATOM     21  O   UNL     1       8.449   1.998   0.054  0.00  0.00    -0.126 OA
ENDBRANCH  16  19
ENDBRANCH  10  13
ENDBRANCH   2   9
BRANCH   1  22
ATOM     22  C   UNL     1      -1.386   6.034   0.003  0.00  0.00    +0.073 C 
BRANCH  22  23
ATOM     23  C   UNL     1      -2.050   6.227  -1.362  0.00  0.00    +0.117 C 
BRANCH  23  24
ATOM     24  C   UNL     1      -3.433   6.793  -1.172  0.00  0.00    +0.053 C 
ATOM     25  C   UNL     1      -4.588   6.239  -1.560  0.00  0.00    +0.083 C 
ATOM     26  N   UNL     1      -5.693   7.053  -1.237  0.00  0.00    -0.288 NA
ATOM     27  C   UNL     1      -5.136   8.402  -1.250  0.00  0.00    +0.135 C 
ATOM     28  C   UNL     1      -3.790   8.089  -0.518  0.00  0.00    +0.049 C 
ATOM     29  C   UNL     1      -2.923   9.285  -0.708  0.00  0.00    -0.020 C 
ATOM     30  C   UNL     1      -3.539  10.467  -0.496  0.00  0.00    -0.004 C 
ATOM     31  C   UNL     1      -4.959  10.491  -0.091  0.00  0.00    -0.002 C 
ATOM     32  C   UNL     1      -5.780   9.486  -0.461  0.00  0.00    -0.000 C 
ENDBRANCH  23  24
BRANCH  23  33
ATOM     33  C   UNL     1      -1.227   7.179  -2.190  0.00  0.00    +0.360 C 
ATOM     34  O   UNL     1      -0.213   7.655  -1.736  0.00  0.00    -0.246 OA
ATOM     35  O   UNL     1      -1.619   7.499  -3.433  0.00  0.00    -0.246 OA
ENDBRANCH  23  33
ENDBRANCH  22  23
ENDBRANCH   1  22
TORSDOF 8
