REMARK  Name = ZINC35472150
REMARK  10 active torsions:
REMARK  status: ('A' for Active; 'I' for Inactive)
REMARK    1  A    between atoms: C_1  and  C_2
REMARK    2  A    between atoms: C_2  and  C_4
REMARK    3  A    between atoms: C_2  and  N_7
REMARK    4  A    between atoms: C_4  and  C_5
REMARK    5  A    between atoms: C_4  and  C_6
REMARK    6  A    between atoms: C_13  and  C_20
REMARK    7  A    between atoms: N_18  and  C_19
REMARK    8  A    between atoms: C_23  and  C_26
REMARK    9  A    between atoms: C_26  and  C_27
REMARK   10  A    between atoms: C_26  and  C_28
REMARK                            x       y       z     vdW  Elec       q    Type
REMARK                         _______ _______ _______ _____ _____    ______ ____
ROOT
ATOM      1  N   UNL     1       0.711  -0.489   1.189  0.00  0.00    -0.289 N 
ATOM      2  C   UNL     1       1.926  -1.317   1.202  0.00  0.00    +0.159 C 
ATOM      3  C   UNL     1       2.236  -1.530   2.666  0.00  0.00    +0.042 C 
ATOM      4  C   UNL     1       1.277  -0.879   3.356  0.00  0.00    +0.058 C 
ATOM      5  C   UNL     1       0.374  -0.256   2.470  0.00  0.00    +0.247 C 
ATOM      6  O   UNL     1      -0.587   0.404   2.820  0.00  0.00    -0.270 OA
ATOM      7  C   UNL     1       1.342  -0.926   4.869  0.00  0.00    +0.142 C 
ATOM      8  N   UNL     1       2.455  -1.685   5.465  0.00  0.00    -0.288 N 
ATOM      9  C   UNL     1       3.337  -2.284   4.641  0.00  0.00    +0.307 C 
ATOM     10  O   UNL     1       4.259  -2.914   5.124  0.00  0.00    -0.252 OA
ATOM     11  N   UNL     1       3.232  -2.210   3.308  0.00  0.00    -0.260 N 
ATOM     12  C   UNL     1       4.239  -2.895   2.494  0.00  0.00    +0.139 C 
ATOM     13  H   UNL     1       2.550  -1.752   6.428  0.00  0.00    +0.151 HD
ENDROOT
BRANCH   7  14
ATOM     14  C   UNL     1       1.424   0.491   5.375  0.00  0.00    -0.023 A 
ATOM     15  C   UNL     1       2.631   1.164   5.354  0.00  0.00    +0.006 A 
ATOM     16  C   UNL     1       2.706   2.464   5.818  0.00  0.00    +0.004 A 
ATOM     17  C   UNL     1       1.573   3.091   6.303  0.00  0.00    -0.045 A 
ATOM     18  C   UNL     1       0.366   2.418   6.323  0.00  0.00    +0.004 A 
ATOM     19  C   UNL     1       0.290   1.120   5.855  0.00  0.00    +0.006 A 
BRANCH  17  20
ATOM     20  C   UNL     1       1.655   4.508   6.810  0.00  0.00    +0.013 C 
ATOM     21  C   UNL     1       0.722   5.399   5.987  0.00  0.00    +0.012 C 
ATOM     22  C   UNL     1       1.233   4.549   8.280  0.00  0.00    +0.012 C 
ENDBRANCH  17  20
ENDBRANCH   7  14
BRANCH   1  24
ATOM     23  C   UNL     1      -0.019   1.526   0.010  0.00  0.00    +0.028 C 
ATOM     24  C   UNL     1       0.002  -0.004   0.002  0.00  0.00    +0.076 C 
BRANCH  24  25
ATOM     25  C   UNL     1      -1.433  -0.534   0.013  0.00  0.00    +0.003 C 
ATOM     26  C   UNL     1      -2.173  -0.027  -1.227  0.00  0.00    +0.009 C 
ATOM     27  C   UNL     1      -1.413  -2.063   0.004  0.00  0.00    +0.009 C 
ENDBRANCH  24  25
ENDBRANCH   1  24
TORSDOF 4
