REMARK  Name = ZINC38050363
REMARK  7 active torsions:
REMARK  status: ('A' for Active; 'I' for Inactive)
REMARK    1  A    between atoms: C_1  and  C_2
REMARK    2  A    between atoms: C_2  and  O_3
REMARK    3  A    between atoms: O_3  and  C_4
REMARK    4  A    between atoms: C_9  and  S_10
REMARK    5  A    between atoms: S_10  and  N_13
REMARK    6  A    between atoms: N_13  and  C_14
REMARK    7  A    between atoms: C_20  and  N_22
REMARK                            x       y       z     vdW  Elec       q    Type
REMARK                         _______ _______ _______ _____ _____    ______ ____
ROOT
ATOM      1  S   UNL     1       2.155  -1.151  -3.708  0.00  0.00    +0.062 S 
ATOM      2  O   UNL     1       2.881  -0.047  -3.184  0.00  0.00    -0.153 OA
ATOM      3  O   UNL     1       2.729  -2.074  -4.624  0.00  0.00    -0.153 OA
ENDROOT
BRANCH   1   9
ATOM      4  C   UNL     1       0.840  -3.234  -2.524  0.00  0.00    +0.147 A 
ATOM      5  C   UNL     1       0.409  -3.976  -1.433  0.00  0.00    +0.049 A 
ATOM      6  C   UNL     1       0.735  -3.573  -0.153  0.00  0.00    +0.019 A 
ATOM      7  C   UNL     1       1.489  -2.430   0.043  0.00  0.00    +0.020 A 
ATOM      8  C   UNL     1       1.919  -1.688  -1.043  0.00  0.00    +0.047 A 
ATOM      9  C   UNL     1       1.601  -2.091  -2.325  0.00  0.00    +0.148 A 
ATOM     10 BR   UNL     1       1.933  -1.881   1.797  0.00  0.00    -0.050 Br
BRANCH   4  11
ATOM     11  O   UNL     1       0.521  -3.629  -3.784  0.00  0.00    -0.490 OA
BRANCH  11  13
ATOM     12  C   UNL     1      -0.522  -5.099  -5.395  0.00  0.00    +0.048 C 
ATOM     13  C   UNL     1      -0.266  -4.815  -3.913  0.00  0.00    +0.226 C 
ENDBRANCH  11  13
ENDBRANCH   4  11
ENDBRANCH   1   9
BRANCH   1  14
ATOM     14  N   UNL     1       0.811  -0.525  -4.446  0.00  0.00    -0.188 NA
ATOM     15  H   UNL     1       0.575  -0.807  -5.344  0.00  0.00    +0.148 HD
BRANCH  14  16
ATOM     16  C   UNL     1      -0.022   0.453  -3.743  0.00  0.00    +0.062 C 
ATOM     17  C   UNL     1       0.402   1.867  -4.145  0.00  0.00    +0.019 C 
ATOM     18  C   UNL     1       0.229   2.041  -5.655  0.00  0.00    +0.001 C 
ATOM     19  C   UNL     1      -1.239   1.824  -6.028  0.00  0.00    -0.001 C 
ATOM     20  C   UNL     1      -1.663   0.410  -5.626  0.00  0.00    -0.015 C 
ATOM     21  C   UNL     1      -1.490   0.235  -4.116  0.00  0.00    -0.056 C 
BRANCH  21  22
ATOM     22  N   UNL     1      -1.897  -1.122  -3.729  0.00  0.00    +0.381 N 
ATOM     23  H   UNL     1      -1.782  -1.237  -2.734  0.00  0.00    -0.090 HD
ATOM     24  H   UNL     1      -2.865  -1.266  -3.976  0.00  0.00    -0.090 HD
ATOM     25  H   UNL     1      -1.323  -1.796  -4.214  0.00  0.00    -0.090 HD
ENDBRANCH  21  22
ENDBRANCH  14  16
ENDBRANCH   1  14
TORSDOF 6
