REMARK  Name = ZINC64152498
REMARK  8 active torsions:
REMARK  status: ('A' for Active; 'I' for Inactive)
REMARK    1  A    between atoms: C_1  and  C_2
REMARK    2  A    between atoms: N_11  and  C_12
REMARK    3  A    between atoms: C_12  and  C_13
REMARK    4  A    between atoms: C_13  and  C_14
REMARK    5  A    between atoms: C_23  and  C_25
REMARK    6  A    between atoms: N_27  and  C_28
REMARK    7  A    between atoms: C_28  and  C_29
REMARK    8  A    between atoms: C_29  and  C_30
REMARK                            x       y       z     vdW  Elec       q    Type
REMARK                         _______ _______ _______ _____ _____    ______ ____
ROOT
ATOM      1  C   UNL     1      -1.411  -0.330   4.470  0.00  0.00    +0.217 C 
ATOM      2  O   UNL     1      -1.053   0.618   5.136  0.00  0.00    -0.276 OA
ATOM      3  N   UNL     1      -2.051  -1.362   5.055  0.00  0.00    -0.301 N 
ATOM      4  C   UNL     1      -2.483  -2.517   4.257  0.00  0.00    +0.108 C 
ATOM      5  C   UNL     1      -3.995  -2.700   4.431  0.00  0.00    +0.026 C 
ATOM      6  C   UNL     1      -4.320  -2.724   5.928  0.00  0.00    -0.015 C 
ATOM      7  C   UNL     1      -3.833  -1.504   6.717  0.00  0.00    +0.026 C 
ATOM      8  C   UNL     1      -2.318  -1.347   6.499  0.00  0.00    +0.108 C 
ATOM      9  C   UNL     1      -4.306  -4.079   6.636  0.00  0.00    +0.021 C 
ATOM     10  C   UNL     1      -5.635  -3.372   6.360  0.00  0.00    +0.082 C 
ENDROOT
BRANCH  10  11
ATOM     11  C   UNL     1      -6.516  -3.943   5.280  0.00  0.00    +0.217 C 
ATOM     12  O   UNL     1      -6.461  -5.126   5.014  0.00  0.00    -0.275 OA
ATOM     13  N   UNL     1      -7.367  -3.141   4.609  0.00  0.00    -0.315 N 
ATOM     14  H   UNL     1      -7.411  -2.196   4.821  0.00  0.00    +0.149 HD
BRANCH  13  15
ATOM     15  C   UNL     1      -8.224  -3.697   3.559  0.00  0.00    +0.108 C 
BRANCH  15  16
ATOM     16  C   UNL     1      -9.086  -2.584   2.961  0.00  0.00    +0.052 C 
BRANCH  16  17
ATOM     17  C   UNL     1      -9.967  -3.156   1.881  0.00  0.00    -0.040 C 
ATOM     18  C   UNL     1     -11.247  -3.574   2.013  0.00  0.00    -0.001 A 
ATOM     19  C   UNL     1     -12.165  -3.621   3.157  0.00  0.00    +0.010 A 
ATOM     20  C   UNL     1     -13.415  -4.105   2.976  0.00  0.00    +0.001 A 
ATOM     21  C   UNL     1     -13.854  -4.562   1.726  0.00  0.00    +0.002 A 
ATOM     22  C   UNL     1     -13.069  -4.551   0.628  0.00  0.00    +0.026 A 
ATOM     23  C   UNL     1     -11.735  -4.062   0.703  0.00  0.00    +0.043 A 
ATOM     24  N   UNL     1     -10.794  -3.950  -0.202  0.00  0.00    -0.380 N 
ATOM     25  C   UNL     1      -9.603  -3.372   0.430  0.00  0.00    +0.144 C 
ATOM     26  H   UNL     1     -10.873  -4.204  -1.135  0.00  0.00    +0.160 HD
ENDBRANCH  16  17
ENDBRANCH  15  16
ENDBRANCH  13  15
ENDBRANCH  10  11
BRANCH   1  27
ATOM     27  C   UNL     1      -1.141  -0.354   2.987  0.00  0.00    +0.115 C 
BRANCH  27  28
ATOM     28  C   UNL     1      -0.408   0.927   2.582  0.00  0.00    +0.116 C 
BRANCH  28  38
ATOM     29  C   UNL     1      -1.251   2.923   0.277  0.00  0.00    +0.049 C 
ATOM     30  C   UNL     1      -1.027   1.421   0.088  0.00  0.00    +0.155 C 
ATOM     31  N   UNL     1      -0.330   1.168  -1.179  0.00  0.00    -0.325 N 
ATOM     32  C   UNL     1       0.885   0.541  -0.868  0.00  0.00    +0.050 A 
ATOM     33  C   UNL     1       1.908   0.094  -1.697  0.00  0.00    +0.025 A 
ATOM     34  C   UNL     1       3.029  -0.503  -1.154  0.00  0.00    +0.002 A 
ATOM     35  C   UNL     1       3.139  -0.660   0.215  0.00  0.00    +0.002 A 
ATOM     36  C   UNL     1       2.127  -0.218   1.047  0.00  0.00    +0.025 A 
ATOM     37  C   UNL     1       0.996   0.384   0.510  0.00  0.00    +0.052 A 
ATOM     38  N   UNL     1      -0.145   0.903   1.141  0.00  0.00    -0.310 N 
ATOM     39  H   UNL     1      -0.650   1.393  -2.066  0.00  0.00    +0.148 HD
ENDBRANCH  28  38
ENDBRANCH  27  28
ENDBRANCH   1  27
TORSDOF 7
