REMARK  Name = ZINC11182191
REMARK  11 active torsions:
REMARK  status: ('A' for Active; 'I' for Inactive)
REMARK    1  A    between atoms: C_1  and  C_2
REMARK    2  A    between atoms: C_2  and  N_3
REMARK    3  A    between atoms: N_3  and  C_4
REMARK    4  A    between atoms: N_3  and  S_6
REMARK    5  A    between atoms: C_4  and  C_5
REMARK    6  A    between atoms: S_6  and  C_9
REMARK    7  A    between atoms: C_15  and  S_18
REMARK    8  A    between atoms: S_18  and  C_19
REMARK    9  A    between atoms: C_19  and  C_21
REMARK   10  A    between atoms: C_19  and  C_22
REMARK   11  A    between atoms: N_27  and  C_28
REMARK                            x       y       z     vdW  Elec       q    Type
REMARK                         _______ _______ _______ _____ _____    ______ ____
ROOT
ATOM      1  C   UNL     1       7.056   0.588  -2.225  0.00  0.00    +0.122 A 
ATOM      2  C   UNL     1       7.852   1.741  -2.092  0.00  0.00    +0.033 A 
ATOM      3  C   UNL     1       7.318   2.876  -1.567  0.00  0.00    +0.050 A 
ATOM      4  C   UNL     1       5.971   2.874  -1.152  0.00  0.00    +0.162 A 
ATOM      5  N   UNL     1       5.187   3.786  -0.607  0.00  0.00    -0.129 NA
ATOM      6  N   UNL     1       4.016   3.289  -0.410  0.00  0.00    -0.122 NA
ATOM      7  C   UNL     1       3.978   2.039  -0.813  0.00  0.00    +0.197 A 
ATOM      8  N   UNL     1       5.216   1.729  -1.292  0.00  0.00    -0.276 N 
ATOM      9  C   UNL     1       5.767   0.599  -1.829  0.00  0.00    +0.123 A 
ENDROOT
BRANCH   1  10
ATOM     10  S   UNL     1       7.748  -0.878  -2.915  0.00  0.00    +0.062 S 
ATOM     11  O   UNL     1       9.152  -0.798  -2.714  0.00  0.00    -0.153 OA
ATOM     12  O   UNL     1       6.969  -1.962  -2.428  0.00  0.00    -0.153 OA
BRANCH  10  13
ATOM     13  N   UNL     1       7.500  -0.814  -4.551  0.00  0.00    -0.177 NA
BRANCH  13  15
ATOM     14  C   UNL     1       9.437  -1.270  -5.972  0.00  0.00    +0.022 C 
ATOM     15  C   UNL     1       8.502  -0.192  -5.420  0.00  0.00    +0.106 C 
ENDBRANCH  13  15
BRANCH  13  16
ATOM     16  C   UNL     1       6.278  -1.379  -5.129  0.00  0.00    +0.106 C 
ATOM     17  C   UNL     1       5.234  -0.272  -5.296  0.00  0.00    +0.022 C 
ENDBRANCH  13  16
ENDBRANCH  10  13
ENDBRANCH   1  10
BRANCH   7  18
ATOM     18  S   UNL     1       2.586   0.961  -0.740  0.00  0.00    -0.073 S 
BRANCH  18  19
ATOM     19  C   UNL     1       1.280   1.979   0.001  0.00  0.00    +0.137 C 
ATOM     20  C   UNL     1       1.668   2.341   1.436  0.00  0.00    +0.029 C 
BRANCH  19  21
ATOM     21  C   UNL     1      -0.014   1.208   0.009  0.00  0.00    +0.233 C 
ATOM     22  O   UNL     1       0.002  -0.004   0.002  0.00  0.00    -0.274 OA
ATOM     23  N   UNL     1      -1.191   1.866   0.018  0.00  0.00    -0.239 N 
ATOM     24  C   UNL     1      -2.349   1.176   0.020  0.00  0.00    +0.306 C 
ATOM     25  O   UNL     1      -2.332  -0.039   0.013  0.00  0.00    -0.252 OA
ATOM     26  N   UNL     1      -3.525   1.834   0.029  0.00  0.00    -0.296 N 
ATOM     27  H   UNL     1      -1.204   2.836   0.023  0.00  0.00    +0.159 HD
ATOM     28  H   UNL     1      -3.538   2.804   0.034  0.00  0.00    +0.151 HD
BRANCH  26  29
ATOM     29  C   UNL     1      -4.783   1.085   0.031  0.00  0.00    +0.074 C 
ATOM     30  C   UNL     1      -5.216   0.775  -1.417  0.00  0.00    +0.022 C 
ATOM     31  C   UNL     1      -6.759   0.912  -1.390  0.00  0.00    +0.002 C 
ATOM     32  C   UNL     1      -6.978   2.116  -0.441  0.00  0.00    +0.002 C 
ATOM     33  C   UNL     1      -5.904   1.937   0.652  0.00  0.00    +0.022 C 
ENDBRANCH  26  29
ENDBRANCH  19  21
ENDBRANCH  18  19
ENDBRANCH   7  18
TORSDOF 8
