REMARK  Name = ZINC30976513
REMARK  9 active torsions:
REMARK  status: ('A' for Active; 'I' for Inactive)
REMARK    1  A    between atoms: C_1  and  C_2
REMARK    2  A    between atoms: C_5  and  C_8
REMARK    3  A    between atoms: C_10  and  C_13
REMARK    4  A    between atoms: C_13  and  N_14
REMARK    5  A    between atoms: C_17  and  C_20
REMARK    6  A    between atoms: N_22  and  C_23
REMARK    7  A    between atoms: C_23  and  C_24
REMARK    8  A    between atoms: C_27  and  C_30
REMARK    9  A    between atoms: C_30  and  N_31
REMARK                            x       y       z     vdW  Elec       q    Type
REMARK                         _______ _______ _______ _____ _____    ______ ____
ROOT
ATOM      1  N   UNL     1      10.419  -0.051  -7.409  0.00  0.00    +0.386 N 
ATOM      2  C   UNL     1       9.588  -1.047  -8.097  0.00  0.00    -0.077 C 
ATOM      3  C   UNL     1       8.129  -0.585  -8.095  0.00  0.00    -0.006 C 
ATOM      4  C   UNL     1       7.656  -0.409  -6.649  0.00  0.00    +0.071 C 
ATOM      5  C   UNL     1       8.568   0.596  -5.941  0.00  0.00    -0.006 C 
ATOM      6  C   UNL     1      10.014   0.100  -6.005  0.00  0.00    -0.077 C 
ATOM      7  H   UNL     1      10.265   0.916  -7.908  0.00  0.00    -0.081 HD
ENDROOT
BRANCH   4   8
ATOM      8  C   UNL     1       6.239   0.103  -6.641  0.00  0.00    +0.216 C 
ATOM      9  O   UNL     1       5.663   0.308  -7.688  0.00  0.00    -0.276 OA
ATOM     10  N   UNL     1       5.613   0.334  -5.470  0.00  0.00    -0.311 N 
ATOM     11  H   UNL     1       6.136   0.147  -4.520  0.00  0.00    +0.149 HD
BRANCH  10  12
ATOM     12  C   UNL     1       4.235   0.832  -5.462  0.00  0.00    +0.139 C 
BRANCH  12  13
ATOM     13  C   UNL     1       3.771   1.004  -4.038  0.00  0.00    -0.030 A 
ATOM     14  C   UNL     1       3.966   2.209  -3.389  0.00  0.00    +0.005 A 
ATOM     15  C   UNL     1       3.540   2.368  -2.084  0.00  0.00    +0.005 A 
ATOM     16  C   UNL     1       2.919   1.321  -1.428  0.00  0.00    -0.030 A 
ATOM     17  C   UNL     1       2.729   0.115  -2.075  0.00  0.00    +0.005 A 
ATOM     18  C   UNL     1       3.151  -0.042  -3.382  0.00  0.00    +0.005 A 
BRANCH  16  19
ATOM     19  C   UNL     1       2.454   1.494  -0.004  0.00  0.00    +0.142 C 
BRANCH  19  20
ATOM     20  N   UNL     1       1.077   1.993   0.003  0.00  0.00    -0.297 N 
ATOM     21  C   UNL     1       0.711   3.415   0.003  0.00  0.00    +0.108 C 
ATOM     22  C   UNL     1      -0.768   3.460   0.446  0.00  0.00    +0.028 C 
ATOM     23  C   UNL     1      -1.266   2.058   0.019  0.00  0.00    +0.097 C 
ATOM     24  C   UNL     1      -0.014   1.209   0.009  0.00  0.00    +0.216 C 
ATOM     25  O   UNL     1       0.002  -0.004   0.002  0.00  0.00    -0.276 OA
ENDBRANCH  19  20
ENDBRANCH  16  19
ENDBRANCH  12  13
ENDBRANCH  10  12
ENDBRANCH   4   8
BRANCH   1  26
ATOM     26  C   UNL     1      11.844  -0.394  -7.512  0.00  0.00    +0.022 C 
BRANCH  26  29
ATOM     27  C   UNL     1      13.787   2.109  -5.815  0.00  0.00    +0.202 A 
ATOM     28  N   UNL     1      13.079   0.958  -5.786  0.00  0.00    -0.193 NA
ATOM     29  C   UNL     1      12.675   0.761  -7.016  0.00  0.00    +0.211 A 
ATOM     30  O   UNL     1      13.144   1.775  -7.751  0.00  0.00    -0.340 OA
ATOM     31  N   UNL     1      13.772   2.540  -7.050  0.00  0.00    -0.056 NA
BRANCH  27  36
ATOM     32  C   UNL     1      16.380   4.643  -1.340  0.00  0.00    +0.044 C 
ATOM     33  C   UNL     1      15.702   3.980  -2.511  0.00  0.00    -0.050 A 
ATOM     34  C   UNL     1      15.775   4.556  -3.766  0.00  0.00    +0.004 A 
ATOM     35  C   UNL     1      15.155   3.953  -4.842  0.00  0.00    +0.012 A 
ATOM     36  C   UNL     1      14.456   2.762  -4.662  0.00  0.00    +0.022 A 
ATOM     37  C   UNL     1      14.382   2.188  -3.395  0.00  0.00    +0.012 A 
ATOM     38  C   UNL     1      15.009   2.797  -2.327  0.00  0.00    +0.004 A 
ENDBRANCH  27  36
ENDBRANCH  26  29
ENDBRANCH   1  26
TORSDOF 8
