REMARK  Name = ZINC13464300
REMARK  6 active torsions:
REMARK  status: ('A' for Active; 'I' for Inactive)
REMARK    1  A    between atoms: C_1  and  C_2
REMARK    2  A    between atoms: C_2  and  C_24
REMARK    3  A    between atoms: C_7  and  C_23
REMARK    4  A    between atoms: C_9  and  N_11
REMARK    5  A    between atoms: C_12  and  C_14
REMARK    6  A    between atoms: C_17  and  N_20
REMARK                            x       y       z     vdW  Elec       q    Type
REMARK                         _______ _______ _______ _____ _____    ______ ____
ROOT
ATOM      1  N   UNL     1      -3.983   2.109   0.145  0.00  0.00    -0.307 N 
ATOM      2  C   UNL     1      -3.066   2.094  -0.842  0.00  0.00    +0.244 C 
ATOM      3  O   UNL     1      -3.184   1.317  -1.769  0.00  0.00    -0.270 OA
ATOM      4  H   UNL     1      -3.889   2.729   0.885  0.00  0.00    +0.149 HD
ENDROOT
BRANCH   1  12
ATOM      5  C   UNL     1      -5.238  -1.028   1.304  0.00  0.00    +0.013 C 
ATOM      6  C   UNL     1      -5.306   0.491   1.468  0.00  0.00    -0.013 C 
ATOM      7  C   UNL     1      -6.729   0.927   1.943  0.00  0.00    -0.003 C 
ATOM      8  C   UNL     1      -6.580   2.441   2.287  0.00  0.00    +0.005 C 
ATOM      9  C   UNL     1      -6.396   3.136   0.919  0.00  0.00    +0.009 C 
ATOM     10  C   UNL     1      -6.449   1.978  -0.123  0.00  0.00    -0.013 C 
ATOM     11  C   UNL     1      -7.479   1.015   0.567  0.00  0.00    +0.012 C 
ATOM     12  C   UNL     1      -5.123   1.189   0.101  0.00  0.00    +0.085 C 
ATOM     13  C   UNL     1      -6.747   2.389  -1.566  0.00  0.00    +0.013 C 
ATOM     14  C   UNL     1      -4.242   0.970   2.458  0.00  0.00    +0.013 C 
ENDBRANCH   1  12
BRANCH   2  15
ATOM     15  C   UNL     1      -1.916   3.022  -0.796  0.00  0.00    +0.037 A 
ATOM     16  C   UNL     1      -0.964   3.009  -1.817  0.00  0.00    +0.015 A 
ATOM     17  C   UNL     1       0.103   3.881  -1.772  0.00  0.00    +0.033 A 
ATOM     18  C   UNL     1       0.235   4.764  -0.715  0.00  0.00    +0.126 A 
ATOM     19  C   UNL     1      -0.703   4.779   0.303  0.00  0.00    +0.033 A 
ATOM     20  C   UNL     1      -1.775   3.912   0.270  0.00  0.00    +0.015 A 
BRANCH  18  21
ATOM     21  N   UNL     1       1.382   5.698  -0.673  0.00  0.00    +0.056 N 
ATOM     22  O   UNL     1       2.208   5.688  -1.568  0.00  0.00    -0.126 OA
ATOM     23  O   UNL     1       1.500   6.477   0.256  0.00  0.00    -0.126 OA
ENDBRANCH  18  21
ENDBRANCH   2  15
TORSDOF 3
