REMARK  Name = ZINC45861277
REMARK  11 active torsions:
REMARK  status: ('A' for Active; 'I' for Inactive)
REMARK    1  A    between atoms: C_1  and  C_2
REMARK    2  A    between atoms: C_2  and  C_3
REMARK    3  A    between atoms: C_3  and  C_4
REMARK    4  A    between atoms: C_4  and  C_5
REMARK    5  A    between atoms: C_5  and  N_6
REMARK    6  A    between atoms: C_15  and  C_17
REMARK    7  A    between atoms: N_19  and  N_20
REMARK    8  A    between atoms: C_21  and  C_23
REMARK    9  A    between atoms: C_23  and  C_25
REMARK   10  A    between atoms: C_23  and  N_26
REMARK   11  A    between atoms: C_27  and  C_29
REMARK                            x       y       z     vdW  Elec       q    Type
REMARK                         _______ _______ _______ _____ _____    ______ ____
ROOT
ATOM      1  C   UNL     1      -2.806  -6.562  -2.616  0.00  0.00    +0.281 C 
ATOM      2  O   UNL     1      -2.790  -7.771  -2.741  0.00  0.00    -0.267 OA
ATOM      3  N   UNL     1      -2.822  -5.771  -3.707  0.00  0.00    -0.229 N 
ATOM      4  H   UNL     1      -2.835  -4.806  -3.607  0.00  0.00    +0.173 HD
ENDROOT
BRANCH   1  14
ATOM      5  N   UNL     1      -2.828  -4.058   0.007  0.00  0.00    -0.228 N 
ATOM      6  C   UNL     1      -2.813  -4.703   1.192  0.00  0.00    +0.275 A 
ATOM      7  O   UNL     1      -2.817  -4.082   2.239  0.00  0.00    -0.266 OA
ATOM      8  C   UNL     1      -2.794  -6.172   1.189  0.00  0.00    +0.050 A 
ATOM      9  C   UNL     1      -2.777  -6.930   2.356  0.00  0.00    +0.014 A 
ATOM     10  C   UNL     1      -2.758  -8.306   2.268  0.00  0.00    +0.001 A 
ATOM     11  C   UNL     1      -2.755  -8.937   1.031  0.00  0.00    +0.001 A 
ATOM     12  C   UNL     1      -2.772  -8.204  -0.137  0.00  0.00    +0.011 A 
ATOM     13  C   UNL     1      -2.791  -6.815  -0.070  0.00  0.00    +0.020 A 
ATOM     14  C   UNL     1      -2.808  -5.960  -1.268  0.00  0.00    +0.155 A 
ATOM     15  N   UNL     1      -2.831  -4.657  -1.123  0.00  0.00    -0.163 NA
BRANCH   5  16
ATOM     16  C   UNL     1      -2.848  -2.593   0.015  0.00  0.00    +0.147 C 
BRANCH  16  17
ATOM     17  C   UNL     1      -1.413  -2.063   0.004  0.00  0.00    +0.023 C 
BRANCH  17  18
ATOM     18  C   UNL     1      -1.433  -0.534   0.013  0.00  0.00    +0.002 C 
BRANCH  18  20
ATOM     19  C   UNL     1      -0.019   1.526   0.010  0.00  0.00    +0.004 C 
ATOM     20  C   UNL     1       0.002  -0.004   0.002  0.00  0.00    -0.003 C 
ENDBRANCH  18  20
ENDBRANCH  17  18
ENDBRANCH  16  17
ENDBRANCH   5  16
ENDBRANCH   1  14
BRANCH   3  21
ATOM     21  N   UNL     1      -2.821  -6.342  -4.986  0.00  0.00    -0.233 N 
ATOM     22  C   UNL     1      -2.837  -5.551  -6.077  0.00  0.00    +0.249 C 
ATOM     23  O   UNL     1      -2.853  -4.345  -5.952  0.00  0.00    -0.272 OA
ATOM     24  H   UNL     1      -2.808  -7.307  -5.086  0.00  0.00    +0.173 HD
BRANCH  22  25
ATOM     25  C   UNL     1      -2.834  -6.166  -7.453  0.00  0.00    +0.158 C 
ATOM     26  C   UNL     1      -1.574  -7.015  -7.631  0.00  0.00    +0.038 C 
BRANCH  25  27
ATOM     27  N   UNL     1      -2.854  -5.104  -8.462  0.00  0.00    -0.300 N 
ATOM     28  C   UNL     1      -3.349  -5.351  -9.691  0.00  0.00    +0.251 C 
ATOM     29  O   UNL     1      -3.781  -6.456  -9.962  0.00  0.00    -0.270 OA
ATOM     30  H   UNL     1      -2.510  -4.223  -8.246  0.00  0.00    +0.150 HD
BRANCH  28  31
ATOM     31  C   UNL     1      -3.369  -4.289 -10.701  0.00  0.00    +0.074 A 
ATOM     32  C   UNL     1      -3.835  -4.332 -12.006  0.00  0.00    +0.021 A 
ATOM     33  C   UNL     1      -3.719  -3.163 -12.720  0.00  0.00    +0.008 A 
ATOM     34  C   UNL     1      -3.173  -2.076 -12.121  0.00  0.00    +0.046 A 
ATOM     35  S   UNL     1      -2.807  -2.602 -10.568  0.00  0.00    -0.092 S 
ENDBRANCH  28  31
ENDBRANCH  25  27
ENDBRANCH  22  25
ENDBRANCH   3  21
TORSDOF 9
