REMARK  Name = ZINC56119971
REMARK  6 active torsions:
REMARK  status: ('A' for Active; 'I' for Inactive)
REMARK    1  A    between atoms: C_3  and  C_15
REMARK    2  A    between atoms: C_5  and  N_7
REMARK    3  A    between atoms: C_15  and  N_16
REMARK    4  A    between atoms: C_17  and  C_19
REMARK    5  A    between atoms: C_20  and  C_21
REMARK    6  A    between atoms: C_24  and  N_27
REMARK                            x       y       z     vdW  Elec       q    Type
REMARK                         _______ _______ _______ _____ _____    ______ ____
ROOT
ATOM      1  C   UNL     1       3.649   2.187  -0.407  0.00  0.00    +0.140 C 
ENDROOT
BRANCH   1   4
ATOM      2  C   UNL     1       0.005   1.379   0.170  0.00  0.00    +0.002 A 
ATOM      3  C   UNL     1       1.179   2.086  -0.016  0.00  0.00    +0.005 A 
ATOM      4  C   UNL     1       2.372   1.413  -0.204  0.00  0.00    -0.029 A 
ATOM      5  C   UNL     1       2.395   0.032  -0.206  0.00  0.00    +0.028 A 
ATOM      6  C   UNL     1       1.218  -0.680  -0.019  0.00  0.00    +0.035 A 
ATOM      7  C   UNL     1       0.021  -0.002   0.169  0.00  0.00    +0.023 A 
BRANCH   6   8
ATOM      8  N   UNL     1       1.237  -2.080  -0.021  0.00  0.00    -0.269 N 
ATOM      9  C   UNL     1       2.311  -2.739   0.458  0.00  0.00    +0.306 C 
ATOM     10  O   UNL     1       3.220  -2.123   0.980  0.00  0.00    -0.252 OA
ATOM     11  N   UNL     1       2.376  -4.082   0.358  0.00  0.00    -0.285 N 
ATOM     12  C   UNL     1       1.356  -4.947  -0.252  0.00  0.00    +0.109 C 
ATOM     13  C   UNL     1       1.848  -6.403  -0.114  0.00  0.00    +0.020 C 
ATOM     14  C   UNL     1       2.849  -6.321   1.068  0.00  0.00    +0.020 C 
ATOM     15  C   UNL     1       3.486  -4.926   0.838  0.00  0.00    +0.109 C 
ATOM     16  H   UNL     1       0.478  -2.575  -0.367  0.00  0.00    +0.156 HD
ENDBRANCH   6   8
ENDBRANCH   1   4
BRANCH   1  17
ATOM     17  N   UNL     1       4.278   2.440   0.892  0.00  0.00    -0.308 N 
ATOM     18  C   UNL     1       5.440   3.121   0.956  0.00  0.00    +0.237 C 
ATOM     19  O   UNL     1       5.965   3.526  -0.064  0.00  0.00    -0.271 OA
ATOM     20  H   UNL     1       3.859   2.118   1.705  0.00  0.00    +0.149 HD
BRANCH  18  21
ATOM     21  C   UNL     1       6.069   3.374   2.254  0.00  0.00    +0.068 C 
ATOM     22  C   UNL     1       7.230   4.055   2.319  0.00  0.00    +0.013 C 
BRANCH  22  23
ATOM     23  C   UNL     1       7.863   4.309   3.624  0.00  0.00    -0.025 A 
ATOM     24  C   UNL     1       7.265   3.841   4.798  0.00  0.00    +0.010 A 
ATOM     25  C   UNL     1       7.864   4.082   6.016  0.00  0.00    +0.033 A 
ATOM     26  C   UNL     1       9.053   4.787   6.079  0.00  0.00    +0.126 A 
ATOM     27  C   UNL     1       9.651   5.254   4.921  0.00  0.00    +0.033 A 
ATOM     28  C   UNL     1       9.068   5.016   3.695  0.00  0.00    +0.010 A 
BRANCH  26  29
ATOM     29  N   UNL     1       9.689   5.042   7.391  0.00  0.00    +0.056 N 
ATOM     30  O   UNL     1       9.170   4.636   8.404  0.00  0.00    -0.126 OA
ATOM     31  O   UNL     1      10.728   5.658   7.449  0.00  0.00    -0.126 OA
ENDBRANCH  26  29
ENDBRANCH  22  23
ENDBRANCH  18  21
ENDBRANCH   1  17
TORSDOF 6
