REMARK  Name = ZINC39915851
REMARK  9 active torsions:
REMARK  status: ('A' for Active; 'I' for Inactive)
REMARK    1  A    between atoms: C_4  and  C_7
REMARK    2  A    between atoms: C_7  and  N_8
REMARK    3  A    between atoms: C_16  and  S_17
REMARK    4  A    between atoms: S_17  and  C_18
REMARK    5  A    between atoms: C_20  and  O_33
REMARK    6  A    between atoms: C_22  and  O_32
REMARK    7  A    between atoms: C_24  and  O_31
REMARK    8  A    between atoms: C_26  and  C_29
REMARK    9  A    between atoms: C_29  and  O_30
REMARK                            x       y       z     vdW  Elec       q    Type
REMARK                         _______ _______ _______ _____ _____    ______ ____
ROOT
ATOM      1  N   UNL     1       4.481  -0.899   1.430  0.00  0.00    -0.314 N 
ATOM      2  C   UNL     1       5.285  -0.114   2.240  0.00  0.00    +0.070 A 
ATOM      3  C   UNL     1       5.942   1.094   2.062  0.00  0.00    +0.028 A 
ATOM      4  C   UNL     1       6.685   1.630   3.093  0.00  0.00    +0.002 A 
ATOM      5  C   UNL     1       6.781   0.968   4.309  0.00  0.00    +0.002 A 
ATOM      6  C   UNL     1       6.136  -0.232   4.503  0.00  0.00    +0.030 A 
ATOM      7  C   UNL     1       5.378  -0.788   3.469  0.00  0.00    +0.090 A 
ATOM      8  N   UNL     1       4.646  -1.927   3.357  0.00  0.00    -0.222 NA
ATOM      9  C   UNL     1       4.112  -1.992   2.162  0.00  0.00    +0.173 A 
ENDROOT
BRANCH   1  10
ATOM     10  C   UNL     1       4.093  -0.608   0.048  0.00  0.00    +0.159 C 
BRANCH  10  14
ATOM     11  C   UNL     1       0.472   1.657   0.028  0.00  0.00    +0.000 A 
ATOM     12  C   UNL     1       1.692   2.306   0.068  0.00  0.00    +0.000 A 
ATOM     13  C   UNL     1       2.864   1.573   0.074  0.00  0.00    +0.005 A 
ATOM     14  C   UNL     1       2.816   0.192   0.042  0.00  0.00    -0.028 A 
ATOM     15  C   UNL     1       1.595  -0.457   0.003  0.00  0.00    +0.005 A 
ATOM     16  C   UNL     1       0.423   0.276  -0.005  0.00  0.00    +0.000 A 
ENDBRANCH  10  14
ENDBRANCH   1  10
BRANCH   9  17
ATOM     17  S   UNL     1       3.078  -3.296   1.584  0.00  0.00    -0.054 S 
BRANCH  17  18
ATOM     18  C   UNL     1       2.965  -4.426   2.998  0.00  0.00    +0.214 C 
ATOM     19  C   UNL     1       1.985  -5.556   2.672  0.00  0.00    +0.185 C 
ATOM     20  C   UNL     1       1.941  -6.539   3.846  0.00  0.00    +0.177 C 
ATOM     21  C   UNL     1       3.357  -7.057   4.117  0.00  0.00    +0.176 C 
ATOM     22  C   UNL     1       4.284  -5.869   4.388  0.00  0.00    +0.176 C 
ATOM     23  O   UNL     1       4.255  -4.979   3.270  0.00  0.00    -0.355 OA
BRANCH  21  24
ATOM     24  O   UNL     1       3.339  -7.920   5.256  0.00  0.00    -0.386 OA
ATOM     25  H   UNL     1       2.767  -8.693   5.155  0.00  0.00    +0.210 HD
ENDBRANCH  21  24
BRANCH  20  26
ATOM     26  O   UNL     1       1.444  -5.872   5.008  0.00  0.00    -0.386 OA
ATOM     27  H   UNL     1       0.552  -5.513   4.904  0.00  0.00    +0.210 HD
ENDBRANCH  20  26
BRANCH  19  28
ATOM     28  O   UNL     1       2.418  -6.238   1.493  0.00  0.00    -0.386 OA
ATOM     29  H   UNL     1       2.474  -5.674   0.710  0.00  0.00    +0.210 HD
ENDBRANCH  19  28
BRANCH  22  30
ATOM     30  C   UNL     1       3.812  -5.129   5.641  0.00  0.00    +0.190 C 
BRANCH  30  31
ATOM     31  O   UNL     1       4.761  -4.117   5.982  0.00  0.00    -0.392 OA
ATOM     32  H   UNL     1       4.526  -3.606   6.769  0.00  0.00    +0.210 HD
ENDBRANCH  30  31
ENDBRANCH  22  30
ENDBRANCH  17  18
ENDBRANCH   9  17
TORSDOF 9
