REMARK  Name = ZINC19901372
REMARK  13 active torsions:
REMARK  status: ('A' for Active; 'I' for Inactive)
REMARK    1  A    between atoms: C_1  and  O_2
REMARK    2  A    between atoms: O_2  and  C_3
REMARK    3  A    between atoms: C_5  and  C_38
REMARK    4  A    between atoms: C_8  and  O_9
REMARK    5  A    between atoms: O_9  and  C_10
REMARK    6  A    between atoms: C_10  and  C_11
REMARK    7  A    between atoms: C_11  and  C_13
REMARK    8  A    between atoms: C_11  and  O_37
REMARK    9  A    between atoms: C_13  and  N_14
REMARK   10  A    between atoms: N_17  and  C_20
REMARK   11  A    between atoms: C_20  and  C_21
REMARK   12  A    between atoms: C_21  and  N_22
REMARK   13  A    between atoms: C_38  and  C_39
REMARK                            x       y       z     vdW  Elec       q    Type
REMARK                         _______ _______ _______ _____ _____    ______ ____
ROOT
ATOM      1  N   UNL     1      -5.896   0.322  -8.980  0.00  0.00    -0.303 NA
ATOM      2  C   UNL     1      -5.553  -1.083  -9.240  0.00  0.00    +0.066 C 
ATOM      3  C   UNL     1      -6.549  -1.672 -10.242  0.00  0.00    -0.063 C 
ATOM      4  N   UNL     1      -6.514  -0.885 -11.483  0.00  0.00    +0.382 N 
ATOM      5  C   UNL     1      -6.858   0.520 -11.222  0.00  0.00    -0.063 C 
ATOM      6  C   UNL     1      -5.861   1.108 -10.221  0.00  0.00    +0.066 C 
ATOM      7  H   UNL     1      -5.487  -0.917 -11.877  0.00  0.00    -0.082 HD
ENDROOT
BRANCH   1   8
ATOM      8  C   UNL     1      -5.007   0.901  -7.964  0.00  0.00    +0.119 C 
BRANCH   8   9
ATOM      9  C   UNL     1      -5.253   0.214  -6.619  0.00  0.00    +0.166 C 
BRANCH   9  10
ATOM     10  O   UNL     1      -6.613   0.407  -6.227  0.00  0.00    -0.387 OA
ATOM     11  H   UNL     1      -7.428   0.038  -6.868  0.00  0.00    +0.210 HD
ENDBRANCH   9  10
BRANCH   9  12
ATOM     12  C   UNL     1      -4.327   0.818  -5.561  0.00  0.00    +0.261 C 
BRANCH  12  13
ATOM     13  O   UNL     1      -4.473   0.099  -4.335  0.00  0.00    -0.486 OA
BRANCH  13  19
ATOM     14  C   UNL     1      -3.805  -0.143  -2.059  0.00  0.00    +0.162 A 
ATOM     15  C   UNL     1      -3.031   0.281  -0.991  0.00  0.00    +0.053 A 
ATOM     16  C   UNL     1      -2.170   1.352  -1.144  0.00  0.00    -0.040 A 
ATOM     17  C   UNL     1      -2.083   2.005  -2.360  0.00  0.00    +0.008 A 
ATOM     18  C   UNL     1      -2.849   1.584  -3.430  0.00  0.00    +0.050 A 
ATOM     19  C   UNL     1      -3.714   0.511  -3.284  0.00  0.00    +0.162 A 
BRANCH  14  21
ATOM     20  C   UNL     1      -4.694  -1.819  -0.625  0.00  0.00    +0.277 C 
ATOM     21  O   UNL     1      -4.653  -1.196  -1.911  0.00  0.00    -0.491 OA
ENDBRANCH  14  21
BRANCH  16  22
ATOM     22  C   UNL     1      -1.328   1.812   0.018  0.00  0.00    +0.061 C 
BRANCH  22  23
ATOM     23  C   UNL     1      -0.013   1.076   0.008  0.00  0.00    -0.030 C 
ATOM     24  C   UNL     1       1.113   1.746   0.001  0.00  0.00    +0.004 C 
ENDBRANCH  22  23
ENDBRANCH  16  22
ENDBRANCH  13  19
ENDBRANCH  12  13
ENDBRANCH   9  12
ENDBRANCH   8   9
ENDBRANCH   1   8
BRANCH   4  25
ATOM     25  C   UNL     1      -7.403  -1.465 -12.499  0.00  0.00    -0.059 C 
BRANCH  25  26
ATOM     26  C   UNL     1      -6.868  -2.833 -12.924  0.00  0.00    +0.098 C 
BRANCH  26  27
ATOM     27  N   UNL     1      -7.754  -3.411 -13.937  0.00  0.00    -0.236 N 
ATOM     28  C   UNL     1      -8.780  -4.185 -13.535  0.00  0.00    +0.254 C 
ATOM     29  O   UNL     1      -8.954  -4.391 -12.349  0.00  0.00    -0.270 OA
ATOM     30  C   UNL     1      -9.695  -4.779 -14.522  0.00  0.00    +0.046 A 
ATOM     31  C   UNL     1     -10.766  -5.579 -14.152  0.00  0.00    +0.014 A 
ATOM     32  C   UNL     1     -11.600  -6.122 -15.122  0.00  0.00    +0.001 A 
ATOM     33  C   UNL     1     -11.395  -5.890 -16.452  0.00  0.00    +0.008 A 
ATOM     34  C   UNL     1     -10.321  -5.085 -16.869  0.00  0.00    -0.016 A 
ATOM     35  C   UNL     1      -9.467  -4.529 -15.894  0.00  0.00    +0.006 A 
ATOM     36  C   UNL     1      -8.378  -3.716 -16.281  0.00  0.00    +0.046 A 
ATOM     37  C   UNL     1      -8.163  -3.476 -17.631  0.00  0.00    +0.014 A 
ATOM     38  C   UNL     1      -9.011  -4.030 -18.582  0.00  0.00    +0.001 A 
ATOM     39  C   UNL     1     -10.068  -4.818 -18.226  0.00  0.00    +0.008 A 
ATOM     40  C   UNL     1      -7.510  -3.154 -15.236  0.00  0.00    +0.254 C 
ATOM     41  O   UNL     1      -6.567  -2.451 -15.546  0.00  0.00    -0.270 OA
ENDBRANCH  26  27
ENDBRANCH  25  26
ENDBRANCH   4  25
TORSDOF 12
