REMARK  Name = ZINC15047589
REMARK  7 active torsions:
REMARK  status: ('A' for Active; 'I' for Inactive)
REMARK    1  A    between atoms: C_1  and  C_2
REMARK    2  A    between atoms: C_2  and  C_4
REMARK    3  A    between atoms: C_2  and  N_17
REMARK    4  A    between atoms: N_6  and  C_7
REMARK    5  A    between atoms: C_10  and  S_13
REMARK    6  A    between atoms: S_13  and  N_16
REMARK    7  A    between atoms: C_21  and  C_22
REMARK                            x       y       z     vdW  Elec       q    Type
REMARK                         _______ _______ _______ _____ _____    ______ ____
ROOT
ATOM      1  C   UNL     1       4.905   7.999  -0.756  0.00  0.00    +0.038 C 
ATOM      2  C   UNL     1       4.093   7.529   0.452  0.00  0.00    +0.166 C 
ENDROOT
BRANCH   2   3
ATOM      3  N   UNL     1       3.806   6.098   0.320  0.00  0.00    -0.244 N 
ATOM      4  C   UNL     1       2.548   5.693   0.271  0.00  0.00    +0.259 C 
ATOM      5  O   UNL     1       1.621   6.478   0.331  0.00  0.00    -0.269 OA
ATOM      6  C   UNL     1       2.327   4.237   0.144  0.00  0.00    +0.077 C 
ATOM      7  C   UNL     1       1.165   3.541   0.075  0.00  0.00    +0.028 C 
ATOM      8  S   UNL     1       4.013   3.645   0.098  0.00  0.00    -0.061 S 
ATOM      9  C   UNL     1       4.832   5.225   0.246  0.00  0.00    +0.121 C 
ATOM     10  S   UNL     1       6.511   5.553   0.283  0.00  0.00    -0.027 S 
BRANCH   7  11
ATOM     11  C   UNL     1       1.185   2.072   0.086  0.00  0.00    -0.024 A 
ATOM     12  C   UNL     1       2.375   1.387   0.361  0.00  0.00    +0.009 A 
ATOM     13  C   UNL     1       2.386   0.009   0.370  0.00  0.00    +0.020 A 
ATOM     14  C   UNL     1       1.224  -0.698   0.107  0.00  0.00    +0.041 A 
ATOM     15  C   UNL     1       0.043  -0.028  -0.166  0.00  0.00    +0.020 A 
ATOM     16  C   UNL     1       0.016   1.350  -0.178  0.00  0.00    +0.009 A 
ATOM     17 CL   UNL     1       1.249  -2.434   0.120  0.00  0.00    -0.084 Cl
ENDBRANCH   7  11
ENDBRANCH   2   3
BRANCH   2  18
ATOM     18  C   UNL     1       4.882   7.769   1.713  0.00  0.00    +0.238 C 
ATOM     19  O   UNL     1       5.176   6.837   2.431  0.00  0.00    -0.273 OA
ATOM     20  N   UNL     1       5.260   9.019   2.043  0.00  0.00    -0.284 N 
ATOM     21  H   UNL     1       4.984   9.770   1.495  0.00  0.00    +0.155 HD
BRANCH  20  22
ATOM     22  C   UNL     1       6.052   9.235   3.177  0.00  0.00    +0.034 A 
ATOM     23  C   UNL     1       5.874   8.450   4.309  0.00  0.00    +0.025 A 
ATOM     24  C   UNL     1       6.659   8.662   5.425  0.00  0.00    +0.030 A 
ATOM     25  C   UNL     1       7.615   9.661   5.420  0.00  0.00    +0.105 A 
ATOM     26  C   UNL     1       7.791  10.447   4.296  0.00  0.00    +0.030 A 
ATOM     27  C   UNL     1       7.012  10.237   3.175  0.00  0.00    +0.025 A 
BRANCH  25  28
ATOM     28  S   UNL     1       8.611   9.932   6.848  0.00  0.00    +0.056 S 
ATOM     29  O   UNL     1       8.625   8.710   7.571  0.00  0.00    -0.153 OA
ATOM     30  O   UNL     1       9.801  10.565   6.398  0.00  0.00    -0.153 OA
BRANCH  28  31
ATOM     31  N   UNL     1       7.818  11.034   7.795  0.00  0.00    -0.204 NA
ATOM     32  H   UNL     1       7.926  11.012   8.759  0.00  0.00    +0.144 HD
ATOM     33  H   UNL     1       7.246  11.703   7.387  0.00  0.00    +0.144 HD
ENDBRANCH  28  31
ENDBRANCH  25  28
ENDBRANCH  20  22
ENDBRANCH   2  18
TORSDOF 6
