REMARK  Name = ZINC39011706
REMARK  13 active torsions:
REMARK  status: ('A' for Active; 'I' for Inactive)
REMARK    1  A    between atoms: C_1  and  C_2
REMARK    2  A    between atoms: C_2  and  C_3
REMARK    3  A    between atoms: C_3  and  C_4
REMARK    4  A    between atoms: C_6  and  C_18
REMARK    5  A    between atoms: C_8  and  C_16
REMARK    6  A    between atoms: C_9  and  N_15
REMARK    7  A    between atoms: C_21  and  O_27
REMARK    8  A    between atoms: C_22  and  O_24
REMARK    9  A    between atoms: O_24  and  C_25
REMARK   10  A    between atoms: C_25  and  C_26
REMARK   11  A    between atoms: O_27  and  C_28
REMARK   12  A    between atoms: C_28  and  C_29
REMARK   13  A    between atoms: C_29  and  N_30
REMARK                            x       y       z     vdW  Elec       q    Type
REMARK                         _______ _______ _______ _____ _____    ______ ____
ROOT
ATOM      1  C   UNL     1      -2.518  -2.455  -1.929  0.00  0.00    -0.031 A 
ATOM      2  C   UNL     1      -2.926  -3.679  -1.434  0.00  0.00    +0.008 A 
ATOM      3  C   UNL     1      -4.143  -3.796  -0.787  0.00  0.00    +0.050 A 
ATOM      4  C   UNL     1      -4.956  -2.684  -0.634  0.00  0.00    +0.162 A 
ATOM      5  C   UNL     1      -4.545  -1.452  -1.133  0.00  0.00    +0.162 A 
ATOM      6  C   UNL     1      -3.322  -1.341  -1.776  0.00  0.00    +0.054 A 
ENDROOT
BRANCH   1   9
ATOM      7  C   UNL     1       0.817  -2.062  -1.023  0.00  0.00    +0.069 C 
ATOM      8  C   UNL     1      -0.074  -2.736  -1.710  0.00  0.00    +0.030 C 
ATOM      9  C   UNL     1      -1.192  -2.334  -2.634  0.00  0.00    +0.098 C 
ATOM     10  C   UNL     1      -1.123  -3.301  -3.801  0.00  0.00    +0.097 C 
ATOM     11  C   UNL     1      -0.313  -4.380  -3.781  0.00  0.00    +0.195 C 
ATOM     12  O   UNL     1       0.532  -4.733  -2.795  0.00  0.00    -0.448 OA
ATOM     13  C   UNL     1       0.281  -4.207  -1.490  0.00  0.00    +0.343 C 
ATOM     14  N   UNL     1       1.504  -4.108  -0.687  0.00  0.00    -0.138 NA
ATOM     15  N   UNL     1       1.717  -2.909  -0.462  0.00  0.00    -0.155 NA
BRANCH  11  16
ATOM     16  N   UNL     1      -0.356  -5.202  -4.878  0.00  0.00    -0.329 N 
ATOM     17  H   UNL     1      -0.948  -4.994  -5.618  0.00  0.00    +0.145 HD
ATOM     18  H   UNL     1       0.207  -5.992  -4.915  0.00  0.00    +0.145 HD
ENDBRANCH  11  16
BRANCH  10  19
ATOM     19  C   UNL     1      -1.940  -3.063  -4.953  0.00  0.00    +0.101 C 
ATOM     20  N   UNL     1      -2.588  -2.875  -5.867  0.00  0.00    -0.191 NA
ENDBRANCH  10  19
BRANCH   7  21
ATOM     21  C   UNL     1       0.841  -0.562  -0.882  0.00  0.00    +0.057 C 
BRANCH  21  23
ATOM     22  C   UNL     1       0.154   1.363   0.555  0.00  0.00    +0.004 C 
ATOM     23  C   UNL     1       0.129  -0.160   0.411  0.00  0.00    +0.003 C 
ENDBRANCH  21  23
ENDBRANCH   7  21
ENDBRANCH   1   9
BRANCH   5  24
ATOM     24  O   UNL     1      -5.339  -0.358  -0.986  0.00  0.00    -0.489 OA
BRANCH  24  25
ATOM     25  C   UNL     1      -4.853   0.874  -1.523  0.00  0.00    +0.226 C 
ATOM     26  C   UNL     1      -5.875   1.982  -1.263  0.00  0.00    +0.048 C 
ENDBRANCH  24  25
ENDBRANCH   5  24
BRANCH   4  27
ATOM     27  O   UNL     1      -6.153  -2.797   0.001  0.00  0.00    -0.487 OA
BRANCH  27  28
ATOM     28  C   UNL     1      -6.510  -4.093   0.487  0.00  0.00    +0.244 C 
BRANCH  28  29
ATOM     29  C   UNL     1      -7.878  -4.024   1.167  0.00  0.00    +0.125 C 
BRANCH  29  30
ATOM     30  N   UNL     1      -8.904  -3.688   0.170  0.00  0.00    -0.295 NA
ATOM     31  C   UNL     1     -10.116  -3.166   0.817  0.00  0.00    +0.112 C 
ATOM     32  C   UNL     1     -11.133  -2.774  -0.258  0.00  0.00    +0.175 C 
ATOM     33  O   UNL     1     -11.406  -3.908  -1.085  0.00  0.00    -0.377 OA
ATOM     34  C   UNL     1     -10.248  -4.441  -1.732  0.00  0.00    +0.175 C 
ATOM     35  C   UNL     1      -9.222  -4.851  -0.671  0.00  0.00    +0.112 C 
ENDBRANCH  29  30
ENDBRANCH  28  29
ENDBRANCH  27  28
ENDBRANCH   4  27
TORSDOF 11
