REMARK  Name = ZINC03505126
REMARK  7 active torsions:
REMARK  status: ('A' for Active; 'I' for Inactive)
REMARK    1  A    between atoms: C_6  and  C_7
REMARK    2  A    between atoms: C_7  and  N_8
REMARK    3  A    between atoms: C_9  and  C_11
REMARK    4  A    between atoms: C_11  and  O_12
REMARK    5  A    between atoms: O_12  and  C_13
REMARK    6  A    between atoms: C_13  and  C_15
REMARK    7  A    between atoms: C_19  and  N_21
REMARK                            x       y       z     vdW  Elec       q    Type
REMARK                         _______ _______ _______ _____ _____    ______ ____
ROOT
ATOM      1  N   UNL     1       6.051  -1.072   1.229  0.00  0.00    -0.308 N 
ATOM      2  C   UNL     1       7.355  -1.234   1.530  0.00  0.00    +0.251 C 
ATOM      3  O   UNL     1       7.745  -1.036   2.661  0.00  0.00    -0.272 OA
ATOM      4  H   UNL     1       5.739  -1.231   0.324  0.00  0.00    +0.149 HD
ENDROOT
BRANCH   1   5
ATOM      5  C   UNL     1       5.106  -0.655   2.267  0.00  0.00    +0.139 C 
BRANCH   5  11
ATOM      6  C   UNL     1       2.886  -1.646   1.677  0.00  0.00    +0.009 A 
ATOM      7  C   UNL     1       1.617  -1.552   1.135  0.00  0.00    +0.050 A 
ATOM      8  C   UNL     1       1.183  -0.356   0.589  0.00  0.00    +0.166 A 
ATOM      9  C   UNL     1       2.029   0.752   0.587  0.00  0.00    +0.167 A 
ATOM     10  C   UNL     1       3.298   0.650   1.131  0.00  0.00    +0.054 A 
ATOM     11  C   UNL     1       3.724  -0.547   1.675  0.00  0.00    -0.027 A 
ATOM     12  O   UNL     1       1.376   1.797  -0.001  0.00  0.00    -0.453 OA
ATOM     13  C   UNL     1      -0.018   1.436   0.010  0.00  0.00    +0.466 C 
ATOM     14  O   UNL     1       0.002  -0.004   0.002  0.00  0.00    -0.453 OA
ENDBRANCH   5  11
ENDBRANCH   1   5
BRANCH   2  15
ATOM     15  C   UNL     1       8.327  -1.663   0.462  0.00  0.00    +0.328 C 
BRANCH  15  16
ATOM     16  O   UNL     1       9.658  -1.767   1.032  0.00  0.00    -0.452 OA
BRANCH  16  17
ATOM     17  C   UNL     1      10.652  -2.143   0.203  0.00  0.00    +0.340 C 
ATOM     18  O   UNL     1      10.412  -2.378  -0.964  0.00  0.00    -0.245 OA
BRANCH  17  19
ATOM     19  C   UNL     1      12.031  -2.269   0.714  0.00  0.00    +0.061 A 
ATOM     20  C   UNL     1      12.311  -1.994   2.054  0.00  0.00    +0.016 A 
ATOM     21  C   UNL     1      13.600  -2.120   2.526  0.00  0.00    +0.023 A 
ATOM     22  C   UNL     1      14.619  -2.507   1.671  0.00  0.00    +0.071 A 
ATOM     23  C   UNL     1      14.350  -2.775   0.340  0.00  0.00    +0.145 A 
ATOM     24  C   UNL     1      13.063  -2.659  -0.143  0.00  0.00    +0.049 A 
ATOM     25 CL   UNL     1      16.241  -2.656   2.272  0.00  0.00    -0.081 Cl
BRANCH  23  26
ATOM     26  N   UNL     1      15.444  -3.188  -0.567  0.00  0.00    +0.058 N 
ATOM     27  O   UNL     1      15.208  -3.425  -1.738  0.00  0.00    -0.126 OA
ATOM     28  O   UNL     1      16.581  -3.291  -0.142  0.00  0.00    -0.126 OA
ENDBRANCH  23  26
ENDBRANCH  17  19
ENDBRANCH  16  17
ENDBRANCH  15  16
ENDBRANCH   2  15
TORSDOF 7
