REMARK  Name = ZINC40387115
REMARK  7 active torsions:
REMARK  status: ('A' for Active; 'I' for Inactive)
REMARK    1  A    between atoms: C_1  and  C_2
REMARK    2  A    between atoms: C_7  and  N_12
REMARK    3  A    between atoms: C_9  and  C_11
REMARK    4  A    between atoms: N_18  and  S_19
REMARK    5  A    between atoms: S_19  and  C_22
REMARK    6  A    between atoms: C_25  and  O_28
REMARK    7  A    between atoms: O_28  and  C_29
REMARK                            x       y       z     vdW  Elec       q    Type
REMARK                         _______ _______ _______ _____ _____    ______ ____
ROOT
ATOM      1  N   UNL     1       1.473  -2.527   2.423  0.00  0.00    -0.268 NA
ATOM      2  C   UNL     1       2.868  -2.058   2.434  0.00  0.00    +0.193 C 
ATOM      3  N   UNL     1       3.522  -2.546   3.659  0.00  0.00    -0.303 N 
ATOM      4  C   UNL     1       3.371  -3.893   3.960  0.00  0.00    +0.202 C 
ATOM      5  N   UNL     1       2.109  -4.425   3.734  0.00  0.00    -0.303 N 
ATOM      6  C   UNL     1       1.411  -3.995   2.511  0.00  0.00    +0.193 C 
ATOM      7  N   UNL     1       4.354  -4.613   4.424  0.00  0.00    -0.097 NA
ATOM      8  H   UNL     1       4.035  -1.953   4.231  0.00  0.00    +0.150 HD
ATOM      9  H   UNL     1       1.704  -5.051   4.355  0.00  0.00    +0.150 HD
ENDROOT
BRANCH   1  15
ATOM     10  C   UNL     1      -0.019   1.526   0.010  0.00  0.00    +0.008 C 
ATOM     11  C   UNL     1       0.002  -0.004   0.002  0.00  0.00    -0.010 C 
ATOM     12  C   UNL     1       0.718  -0.497  -1.257  0.00  0.00    +0.003 C 
ATOM     13  C   UNL     1       0.739  -2.027  -1.265  0.00  0.00    +0.002 C 
ATOM     14  C   UNL     1       1.479  -2.534  -0.026  0.00  0.00    +0.019 C 
ATOM     15  C   UNL     1       0.763  -2.041   1.233  0.00  0.00    +0.063 C 
ATOM     16  C   UNL     1       0.742  -0.511   1.242  0.00  0.00    +0.006 C 
ATOM     17  C   UNL     1       0.026  -0.018   2.500  0.00  0.00    +0.009 C 
ENDBRANCH   1  15
BRANCH   7  18
ATOM     18  S   UNL     1       4.116  -6.216   4.766  0.00  0.00    +0.102 S 
ATOM     19  O   UNL     1       3.200  -6.269   5.851  0.00  0.00    -0.146 OA
ATOM     20  O   UNL     1       3.865  -6.862   3.525  0.00  0.00    -0.146 OA
BRANCH  18  21
ATOM     21  C   UNL     1       5.645  -6.853   5.365  0.00  0.00    +0.113 A 
ATOM     22  C   UNL     1       6.567  -7.383   4.481  0.00  0.00    +0.032 A 
ATOM     23  C   UNL     1       7.766  -7.884   4.949  0.00  0.00    +0.047 A 
ATOM     24  C   UNL     1       8.046  -7.854   6.307  0.00  0.00    +0.120 A 
ATOM     25  C   UNL     1       7.121  -7.322   7.192  0.00  0.00    +0.047 A 
ATOM     26  C   UNL     1       5.925  -6.817   6.719  0.00  0.00    +0.032 A 
BRANCH  24  27
ATOM     27  O   UNL     1       9.226  -8.346   6.769  0.00  0.00    -0.495 OA
ATOM     28  C   UNL     1       9.446  -8.283   8.180  0.00  0.00    +0.277 C 
ENDBRANCH  24  27
ENDBRANCH  18  21
ENDBRANCH   7  18
TORSDOF 4
