REMARK  Name = ZINC34367271
REMARK  6 active torsions:
REMARK  status: ('A' for Active; 'I' for Inactive)
REMARK    1  A    between atoms: C_1  and  N_2
REMARK    2  A    between atoms: N_7  and  C_10
REMARK    3  A    between atoms: N_11  and  C_24
REMARK    4  A    between atoms: N_14  and  N_15
REMARK    5  A    between atoms: C_16  and  C_17
REMARK    6  A    between atoms: C_24  and  C_25
REMARK                            x       y       z     vdW  Elec       q    Type
REMARK                         _______ _______ _______ _____ _____    ______ ____
ROOT
ATOM      1  C   UNL     1      -0.008   1.059   0.956  0.00  0.00    +0.155 C 
ATOM      2  N   UNL     1      -0.003  -0.230   0.260  0.00  0.00    -0.280 N 
ATOM      3  C   UNL     1      -1.199  -0.808  -0.135  0.00  0.00    +0.170 A 
ATOM      4  C   UNL     1      -1.166  -2.033  -0.794  0.00  0.00    +0.153 A 
ATOM      5  C   UNL     1       0.076  -2.647  -1.040  0.00  0.00    +0.282 A 
ATOM      6  O   UNL     1       0.129  -3.719  -1.617  0.00  0.00    -0.265 OA
ATOM      7  N   UNL     1       1.207  -2.035  -0.632  0.00  0.00    -0.262 N 
ATOM      8  C   UNL     1       1.164  -0.850  -0.001  0.00  0.00    +0.333 A 
ATOM      9  O   UNL     1       2.204  -0.326   0.348  0.00  0.00    -0.246 OA
ATOM     10  C   UNL     1       2.502  -2.671  -0.886  0.00  0.00    +0.157 C 
ATOM     11  N   UNL     1      -2.485  -2.367  -1.065  0.00  0.00    -0.301 N 
ATOM     12  C   UNL     1      -3.253  -1.358  -0.573  0.00  0.00    +0.218 A 
ATOM     13  N   UNL     1      -2.477  -0.444  -0.026  0.00  0.00    -0.195 NA
ATOM     14  N   UNL     1      -4.627  -1.301  -0.637  0.00  0.00    -0.206 N 
ATOM     15  H   UNL     1      -5.123  -2.019  -1.059  0.00  0.00    +0.177 HD
ENDROOT
BRANCH  14  16
ATOM     16  N   UNL     1      -5.308  -0.204  -0.092  0.00  0.00    -0.188 NA
ATOM     17  C   UNL     1      -6.606  -0.195  -0.065  0.00  0.00    +0.138 C 
BRANCH  17  18
ATOM     18  C   UNL     1      -7.353  -1.466  -0.069  0.00  0.00    -0.005 A 
ATOM     19  C   UNL     1      -6.683  -2.674   0.137  0.00  0.00    +0.011 A 
ATOM     20  C   UNL     1      -7.388  -3.860   0.133  0.00  0.00    +0.020 A 
ATOM     21  C   UNL     1      -8.757  -3.854  -0.075  0.00  0.00    +0.041 A 
ATOM     22  C   UNL     1      -9.428  -2.659  -0.280  0.00  0.00    +0.020 A 
ATOM     23  C   UNL     1      -8.736  -1.466  -0.272  0.00  0.00    +0.011 A 
ATOM     24 CL   UNL     1      -9.637  -5.350  -0.078  0.00  0.00    -0.084 Cl
ENDBRANCH  17  18
ENDBRANCH  14  16
BRANCH  11  25
ATOM     25  C   UNL     1      -2.958  -3.572  -1.750  0.00  0.00    +0.160 C 
BRANCH  25  26
ATOM     26  C   UNL     1      -3.207  -4.660  -0.738  0.00  0.00    -0.028 A 
ATOM     27  C   UNL     1      -2.188  -5.529  -0.394  0.00  0.00    +0.005 A 
ATOM     28  C   UNL     1      -2.416  -6.528   0.535  0.00  0.00    +0.000 A 
ATOM     29  C   UNL     1      -3.661  -6.657   1.120  0.00  0.00    +0.000 A 
ATOM     30  C   UNL     1      -4.680  -5.787   0.777  0.00  0.00    +0.000 A 
ATOM     31  C   UNL     1      -4.451  -4.786  -0.149  0.00  0.00    +0.005 A 
ENDBRANCH  25  26
ENDBRANCH  11  25
TORSDOF 4
