REMARK  Name = ZINC15226348
REMARK  8 active torsions:
REMARK  status: ('A' for Active; 'I' for Inactive)
REMARK    1  A    between atoms: C_1  and  C_2
REMARK    2  A    between atoms: C_5  and  C_30
REMARK    3  A    between atoms: C_6  and  N_8
REMARK    4  A    between atoms: C_9  and  C_11
REMARK    5  A    between atoms: C_11  and  C_28
REMARK    6  A    between atoms: C_12  and  C_13
REMARK    7  A    between atoms: C_16  and  N_22
REMARK    8  A    between atoms: C_17  and  N_19
REMARK                            x       y       z     vdW  Elec       q    Type
REMARK                         _______ _______ _______ _____ _____    ______ ____
ROOT
ATOM      1  C   UNL     1       2.498  -0.285   0.154  0.00  0.00    +0.114 C 
ATOM      2  C   UNL     1       2.495   1.063  -0.135  0.00  0.00    +0.032 C 
ENDROOT
BRANCH   2   3
ATOM      3  C   UNL     1       1.303   1.683  -0.716  0.00  0.00    -0.021 A 
ATOM      4  C   UNL     1       0.645   1.070  -1.794  0.00  0.00    +0.010 A 
ATOM      5  C   UNL     1      -0.463   1.655  -2.335  0.00  0.00    +0.026 A 
ATOM      6  C   UNL     1      -0.947   2.853  -1.813  0.00  0.00    +0.060 A 
ATOM      7  C   UNL     1      -0.297   3.466  -0.743  0.00  0.00    +0.148 A 
ATOM      8  C   UNL     1       0.815   2.892  -0.198  0.00  0.00    +0.042 A 
BRANCH   6   9
ATOM      9  N   UNL     1      -2.078   3.442  -2.364  0.00  0.00    -0.324 N 
ATOM     10  C   UNL     1      -3.259   2.583  -2.186  0.00  0.00    +0.133 C 
ATOM     11  C   UNL     1      -4.490   3.294  -2.752  0.00  0.00    +0.178 C 
ATOM     12  O   UNL     1      -4.258   3.617  -4.126  0.00  0.00    -0.377 OA
ATOM     13  C   UNL     1      -3.116   4.452  -4.336  0.00  0.00    +0.178 C 
ATOM     14  C   UNL     1      -1.871   3.753  -3.785  0.00  0.00    +0.133 C 
ENDBRANCH   6   9
BRANCH   7  15
ATOM     15  N   UNL     1      -0.814   4.741  -0.197  0.00  0.00    +0.058 N 
ATOM     16  O   UNL     1      -0.247   5.277   0.739  0.00  0.00    -0.126 OA
ATOM     17  O   UNL     1      -1.806   5.254  -0.682  0.00  0.00    -0.126 OA
ENDBRANCH   7  15
ENDBRANCH   2   3
BRANCH   1  19
ATOM     18  N   UNL     1       1.258  -2.384   0.287  0.00  0.00    -0.281 N 
ATOM     19  C   UNL     1       1.240  -1.045   0.135  0.00  0.00    +0.259 C 
ATOM     20  O   UNL     1       0.181  -0.465  -0.017  0.00  0.00    -0.269 OA
ATOM     21  H   UNL     1       2.105  -2.857   0.318  0.00  0.00    +0.155 HD
BRANCH  18  27
ATOM     22  C   UNL     1      -3.533  -2.442   1.387  0.00  0.00    +0.044 C 
ATOM     23  C   UNL     1      -2.280  -3.145   0.930  0.00  0.00    -0.049 A 
ATOM     24  C   UNL     1      -2.318  -4.493   0.622  0.00  0.00    +0.004 A 
ATOM     25  C   UNL     1      -1.171  -5.142   0.203  0.00  0.00    +0.005 A 
ATOM     26  C   UNL     1       0.016  -4.445   0.091  0.00  0.00    -0.029 A 
ATOM     27  C   UNL     1       0.058  -3.092   0.399  0.00  0.00    +0.037 A 
ATOM     28  C   UNL     1      -1.095  -2.444   0.825  0.00  0.00    +0.027 A 
ATOM     29  C   UNL     1       1.266  -5.154  -0.366  0.00  0.00    +0.045 C 
ENDBRANCH  18  27
ENDBRANCH   1  19
BRANCH   1  30
ATOM     30  C   UNL     1       3.728  -0.945   0.474  0.00  0.00    +0.104 C 
ATOM     31  N   UNL     1       4.704  -1.469   0.727  0.00  0.00    -0.191 NA
ENDBRANCH   1  30
TORSDOF 6
