REMARK  Name = ZINC39388754
REMARK  8 active torsions:
REMARK  status: ('A' for Active; 'I' for Inactive)
REMARK    1  A    between atoms: C_1  and  C_2
REMARK    2  A    between atoms: C_2  and  O_3
REMARK    3  A    between atoms: O_3  and  C_4
REMARK    4  A    between atoms: C_6  and  C_20
REMARK    5  A    between atoms: C_9  and  O_10
REMARK    6  A    between atoms: O_10  and  C_11
REMARK    7  A    between atoms: C_11  and  C_12
REMARK    8  A    between atoms: N_21  and  C_22
REMARK                            x       y       z     vdW  Elec       q    Type
REMARK                         _______ _______ _______ _____ _____    ______ ____
ROOT
ATOM      1  C   UNL     1      -1.498  -1.849   0.006  0.00  0.00    +0.163 A 
ATOM      2  C   UNL     1      -0.391  -2.676  -0.003  0.00  0.00    +0.058 A 
ATOM      3  C   UNL     1      -0.559  -4.063  -0.008  0.00  0.00    -0.006 A 
ATOM      4  C   UNL     1      -1.846  -4.608  -0.004  0.00  0.00    +0.013 A 
ATOM      5  C   UNL     1      -2.946  -3.777   0.005  0.00  0.00    +0.050 A 
ATOM      6  C   UNL     1      -2.779  -2.399   0.016  0.00  0.00    +0.162 A 
ENDROOT
BRANCH   3   7
ATOM      7  C   UNL     1       0.618  -4.950  -0.019  0.00  0.00    +0.089 C 
ATOM      8  N   UNL     1       0.461  -6.235  -0.024  0.00  0.00    -0.350 N 
ATOM      9  H   UNL     1      -0.432  -6.614  -0.021  0.00  0.00    +0.163 HD
BRANCH   8  10
ATOM     10  C   UNL     1       1.631  -7.116  -0.034  0.00  0.00    +0.340 C 
ATOM     11  N   UNL     1       1.593  -8.043   1.112  0.00  0.00    -0.225 NA
ATOM     12  C   UNL     1       1.546  -9.225   0.590  0.00  0.00    +0.212 C 
ATOM     13  N   UNL     1       1.549  -9.168  -0.767  0.00  0.00    -0.268 N 
ATOM     14  N   UNL     1       1.598  -8.008  -1.204  0.00  0.00    -0.161 NA
ATOM     15  H   UNL     1       1.518  -9.953  -1.336  0.00  0.00    +0.190 HD
ENDBRANCH   8  10
ENDBRANCH   3   7
BRANCH   1  16
ATOM     16  O   UNL     1      -1.339  -0.499   0.012  0.00  0.00    -0.489 OA
BRANCH  16  18
ATOM     17  C   UNL     1      -0.019   1.526   0.010  0.00  0.00    +0.048 C 
ATOM     18  C   UNL     1       0.002  -0.004   0.002  0.00  0.00    +0.226 C 
ENDBRANCH  16  18
ENDBRANCH   1  16
BRANCH   6  19
ATOM     19  O   UNL     1      -3.866  -1.585   0.030  0.00  0.00    -0.484 OA
BRANCH  19  20
ATOM     20  C   UNL     1      -5.149  -2.215   0.039  0.00  0.00    +0.266 C 
BRANCH  20  21
ATOM     21  C   UNL     1      -6.226  -1.162   0.054  0.00  0.00    +0.008 A 
ATOM     22  C   UNL     1      -5.883   0.177   0.052  0.00  0.00    +0.010 A 
ATOM     23  C   UNL     1      -6.871   1.144   0.066  0.00  0.00    +0.020 A 
ATOM     24  C   UNL     1      -8.204   0.772   0.082  0.00  0.00    +0.042 A 
ATOM     25  C   UNL     1      -8.547  -0.568   0.084  0.00  0.00    +0.040 A 
ATOM     26  C   UNL     1      -7.558  -1.535   0.065  0.00  0.00    +0.049 A 
ATOM     27 CL   UNL     1      -7.989  -3.217   0.061  0.00  0.00    -0.083 Cl
ATOM     28 CL   UNL     1      -9.444   1.986   0.101  0.00  0.00    -0.083 Cl
ENDBRANCH  20  21
ENDBRANCH  19  20
ENDBRANCH   6  19
TORSDOF 7
