REMARK  Name = ZINC03396702
REMARK  5 active torsions:
REMARK  status: ('A' for Active; 'I' for Inactive)
REMARK    1  A    between atoms: C_1  and  C_2
REMARK    2  A    between atoms: C_9  and  C_11
REMARK    3  A    between atoms: N_13  and  N_14
REMARK    4  A    between atoms: C_15  and  C_16
REMARK    5  A    between atoms: C_21  and  N_22
REMARK                            x       y       z     vdW  Elec       q    Type
REMARK                         _______ _______ _______ _____ _____    ______ ____
ROOT
ATOM      1  C   UNL     1       1.850  -5.238   2.870  0.00  0.00    +0.270 C 
ATOM      2  O   UNL     1       2.789  -4.971   3.598  0.00  0.00    -0.268 OA
ATOM      3  N   UNL     1       1.483  -6.522   2.687  0.00  0.00    -0.203 N 
ATOM      4  H   UNL     1       0.735  -6.734   2.107  0.00  0.00    +0.178 HD
ENDROOT
BRANCH   1  12
ATOM      5  C   UNL     1      -0.193   1.567   0.265  0.00  0.00    +0.008 C 
ATOM      6  C   UNL     1      -0.147   0.039   0.223  0.00  0.00    -0.009 C 
ATOM      7  C   UNL     1      -1.576  -0.513   0.208  0.00  0.00    +0.009 C 
ATOM      8  C   UNL     1      -1.522  -2.014  -0.106  0.00  0.00    +0.043 C 
ATOM      9  C   UNL     1      -0.486  -2.647   0.776  0.00  0.00    -0.006 A 
ATOM     10  C   UNL     1       0.479  -2.003   1.493  0.00  0.00    -0.036 A 
ATOM     11  C   UNL     1       1.332  -2.797   2.244  0.00  0.00    +0.024 A 
ATOM     12  C   UNL     1       1.120  -4.163   2.193  0.00  0.00    +0.076 A 
ATOM     13  S   UNL     1      -0.274  -4.274   1.086  0.00  0.00    -0.088 S 
ATOM     14  C   UNL     1       0.596  -0.481   1.454  0.00  0.00    +0.039 C 
ENDBRANCH   1  12
BRANCH   3  15
ATOM     15  N   UNL     1       2.181  -7.549   3.335  0.00  0.00    -0.187 NA
ATOM     16  C   UNL     1       1.827  -8.785   3.159  0.00  0.00    +0.140 C 
BRANCH  16  17
ATOM     17  C   UNL     1       2.562  -9.867   3.840  0.00  0.00    +0.025 A 
ATOM     18  C   UNL     1       3.712  -9.577   4.578  0.00  0.00    +0.012 A 
ATOM     19  C   UNL     1       4.394 -10.594   5.213  0.00  0.00    +0.001 A 
ATOM     20  C   UNL     1       3.942 -11.898   5.121  0.00  0.00    +0.002 A 
ATOM     21  C   UNL     1       2.803 -12.193   4.392  0.00  0.00    +0.033 A 
ATOM     22  C   UNL     1       2.108 -11.185   3.756  0.00  0.00    +0.135 A 
BRANCH  22  23
ATOM     23  N   UNL     1       0.886 -11.501   2.982  0.00  0.00    +0.057 N 
ATOM     24  O   UNL     1       0.433 -12.622   2.999  0.00  0.00    -0.126 OA
ATOM     25  O   UNL     1       0.343 -10.639   2.332  0.00  0.00    -0.126 OA
ENDBRANCH  22  23
ENDBRANCH  16  17
ENDBRANCH   3  15
TORSDOF 4
