REMARK  Name = ZINC13192914
REMARK  10 active torsions:
REMARK  status: ('A' for Active; 'I' for Inactive)
REMARK    1  A    between atoms: C_1  and  C_2
REMARK    2  A    between atoms: C_2  and  C_3
REMARK    3  A    between atoms: C_3  and  C_4
REMARK    4  A    between atoms: C_4  and  N_5
REMARK    5  A    between atoms: C_6  and  C_8
REMARK    6  A    between atoms: C_8  and  N_64
REMARK    7  A    between atoms: N_11  and  C_14
REMARK    8  A    between atoms: C_17  and  S_22
REMARK    9  A    between atoms: C_19  and  C_20
REMARK   10  A    between atoms: S_22  and  N_25
REMARK                            x       y       z     vdW  Elec       q    Type
REMARK                         _______ _______ _______ _____ _____    ______ ____
ROOT
ATOM      1  C   UNL     1       4.750  -1.677  -2.780  0.00  0.00    +0.044 A 
ATOM      2  C   UNL     1       4.055  -2.601  -2.010  0.00  0.00    +0.026 A 
ATOM      3  C   UNL     1       3.651  -2.272  -0.732  0.00  0.00    +0.030 A 
ATOM      4  C   UNL     1       3.925  -1.017  -0.211  0.00  0.00    +0.106 A 
ATOM      5  C   UNL     1       4.612  -0.087  -0.959  0.00  0.00    +0.045 A 
ATOM      6  C   UNL     1       5.033  -0.407  -2.253  0.00  0.00    +0.086 A 
ENDROOT
BRANCH   1   9
ATOM      7  C   UNL     1       6.559  -3.446  -5.467  0.00  0.00    -0.059 C 
ATOM      8  C   UNL     1       6.067  -3.165  -4.046  0.00  0.00    +0.086 C 
ATOM      9  N   UNL     1       5.162  -2.007  -4.064  0.00  0.00    -0.333 N 
ATOM     10  C   UNL     1       4.008  -2.258  -4.939  0.00  0.00    +0.086 C 
ATOM     11  C   UNL     1       4.500  -2.540  -6.360  0.00  0.00    -0.059 C 
ATOM     12  N   UNL     1       5.391  -3.719  -6.331  0.00  0.00    +0.387 N 
ATOM     13  H   UNL     1       4.873  -4.519  -5.949  0.00  0.00    -0.081 HD
BRANCH  12  14
ATOM     14  C   UNL     1       5.841  -4.047  -7.700  0.00  0.00    +0.019 C 
BRANCH  14  16
ATOM     15  N   UNL     1       7.158  -5.837  -8.787  0.00  0.00    -0.317 N 
ATOM     16  C   UNL     1       6.557  -5.373  -7.673  0.00  0.00    +0.196 C 
ATOM     17  O   UNL     1       6.592  -6.022  -6.649  0.00  0.00    -0.278 OA
ATOM     18  H   UNL     1       7.130  -5.318  -9.605  0.00  0.00    +0.149 HD
BRANCH  15  19
ATOM     19  C   UNL     1       7.854  -7.126  -8.760  0.00  0.00    +0.104 C 
BRANCH  19  20
ATOM     20  C   UNL     1       8.443  -7.416 -10.142  0.00  0.00    +0.018 C 
BRANCH  20  22
ATOM     21  C   UNL     1       9.759  -9.053 -11.496  0.00  0.00    +0.004 C 
ATOM     22  C   UNL     1       9.170  -8.762 -10.114  0.00  0.00    -0.002 C 
ENDBRANCH  20  22
ENDBRANCH  19  20
ENDBRANCH  15  19
ENDBRANCH  14  16
ENDBRANCH  12  14
ENDBRANCH   1   9
BRANCH   6  23
ATOM     23  C   UNL     1       5.768   0.583  -3.058  0.00  0.00    +0.388 C 
ATOM     24  O   UNL     1       6.133   0.302  -4.183  0.00  0.00    -0.241 OA
ATOM     25  O   UNL     1       6.037   1.801  -2.548  0.00  0.00    -0.241 OA
ENDBRANCH   6  23
BRANCH   4  26
ATOM     26  S   UNL     1       3.396  -0.613   1.421  0.00  0.00    +0.061 S 
ATOM     27  O   UNL     1       4.252   0.424   1.879  0.00  0.00    -0.153 OA
ATOM     28  O   UNL     1       3.248  -1.843   2.116  0.00  0.00    -0.153 OA
BRANCH  26  29
ATOM     29  N   UNL     1       1.881   0.046   1.295  0.00  0.00    -0.177 NA
ATOM     30  C   UNL     1       0.687  -0.807   1.359  0.00  0.00    +0.109 C 
ATOM     31  C   UNL     1      -0.178  -0.537   0.123  0.00  0.00    +0.017 C 
ATOM     32  C   UNL     1      -0.480   0.961   0.034  0.00  0.00    +0.003 C 
ATOM     33  C   UNL     1       0.830   1.738  -0.114  0.00  0.00    +0.017 C 
ATOM     34  C   UNL     1       1.707   1.494   1.119  0.00  0.00    +0.109 C 
ENDBRANCH  26  29
ENDBRANCH   4  26
TORSDOF 9
