REMARK  Name = ZINC40034127
REMARK  9 active torsions:
REMARK  status: ('A' for Active; 'I' for Inactive)
REMARK    1  A    between atoms: C_1  and  C_2
REMARK    2  A    between atoms: C_2  and  O_3
REMARK    3  A    between atoms: O_3  and  C_4
REMARK    4  A    between atoms: C_4  and  C_6
REMARK    5  A    between atoms: C_12  and  C_14
REMARK    6  A    between atoms: C_14  and  S_15
REMARK    7  A    between atoms: S_15  and  C_16
REMARK    8  A    between atoms: C_20  and  C_28
REMARK    9  A    between atoms: N_21  and  C_22
REMARK                            x       y       z     vdW  Elec       q    Type
REMARK                         _______ _______ _______ _____ _____    ______ ____
ROOT
ATOM      1  C   UNL     1       5.440  -8.373  -4.125  0.00  0.00    +0.241 C 
ATOM      2  N   UNL     1       4.777  -8.962  -2.950  0.00  0.00    -0.237 N 
ATOM      3  N   UNL     1       3.809  -9.846  -3.440  0.00  0.00    -0.169 NA
ATOM      4  C   UNL     1       3.803  -9.866  -4.747  0.00  0.00    +0.151 C 
ATOM      5  N   UNL     1       4.767  -8.998  -5.276  0.00  0.00    -0.254 N 
ATOM      6  H   UNL     1       4.973  -8.774  -2.019  0.00  0.00    +0.171 HD
ENDROOT
BRANCH   4   7
ATOM      7  C   UNL     1       2.941 -10.656  -5.523  0.00  0.00    +0.022 C 
ATOM      8  C   UNL     1       2.032 -11.611  -5.065  0.00  0.00    +0.006 A 
ATOM      9  C   UNL     1       1.700 -12.069  -3.772  0.00  0.00    +0.010 A 
ATOM     10  C   UNL     1       0.755 -13.032  -3.620  0.00  0.00    +0.001 A 
ATOM     11  C   UNL     1       0.095 -13.588  -4.718  0.00  0.00    +0.002 A 
ATOM     12  C   UNL     1       0.364 -13.197  -5.988  0.00  0.00    +0.026 A 
ATOM     13  C   UNL     1       1.340 -12.194  -6.226  0.00  0.00    +0.043 A 
ATOM     14  N   UNL     1       1.776 -11.649  -7.345  0.00  0.00    -0.380 N 
ATOM     15  C   UNL     1       2.797 -10.646  -7.029  0.00  0.00    +0.152 C 
ATOM     16  H   UNL     1       1.466 -11.874  -8.236  0.00  0.00    +0.160 HD
ENDBRANCH   4   7
BRANCH   5  17
ATOM     17  C   UNL     1       5.037  -8.769  -6.627  0.00  0.00    +0.038 A 
ATOM     18  C   UNL     1       4.302  -7.826  -7.334  0.00  0.00    +0.023 A 
ATOM     19  C   UNL     1       4.572  -7.602  -8.670  0.00  0.00    +0.002 A 
ATOM     20  C   UNL     1       5.573  -8.315  -9.303  0.00  0.00    +0.000 A 
ATOM     21  C   UNL     1       6.307  -9.254  -8.603  0.00  0.00    +0.002 A 
ATOM     22  C   UNL     1       6.046  -9.479  -7.265  0.00  0.00    +0.023 A 
ENDBRANCH   5  17
BRANCH   1  23
ATOM     23  S   UNL     1       5.203  -6.575  -4.152  0.00  0.00    -0.108 S 
BRANCH  23  24
ATOM     24  C   UNL     1       3.401  -6.369  -4.126  0.00  0.00    +0.168 C 
BRANCH  24  31
ATOM     25  C   UNL     1      -0.711  -3.720  -3.032  0.00  0.00    +0.101 C 
ATOM     26  C   UNL     1       0.496  -2.780  -2.971  0.00  0.00    +0.033 C 
ATOM     27  C   UNL     1       1.429  -3.077  -4.149  0.00  0.00    +0.108 C 
ATOM     28  N   UNL     1       1.774  -4.505  -4.130  0.00  0.00    -0.301 N 
ATOM     29  C   UNL     1       0.688  -5.494  -4.096  0.00  0.00    +0.108 C 
ATOM     30  C   UNL     1      -0.236  -5.170  -2.918  0.00  0.00    +0.033 C 
ATOM     31  C   UNL     1       3.063  -4.900  -4.145  0.00  0.00    +0.226 C 
ATOM     32  O   UNL     1       3.950  -4.074  -4.174  0.00  0.00    -0.275 OA
BRANCH  25  33
ATOM     33  C   UNL     1      -1.648  -3.408  -1.893  0.00  0.00    +0.310 C 
ATOM     34  O   UNL     1      -1.910  -4.258  -1.076  0.00  0.00    -0.251 OA
BRANCH  33  35
ATOM     35  O   UNL     1      -2.192  -2.185  -1.788  0.00  0.00    -0.465 OA
BRANCH  35  37
ATOM     36  C   UNL     1      -3.590  -0.520  -0.731  0.00  0.00    +0.048 C 
ATOM     37  C   UNL     1      -3.072  -1.959  -0.684  0.00  0.00    +0.229 C 
ENDBRANCH  35  37
ENDBRANCH  33  35
ENDBRANCH  25  33
ENDBRANCH  24  31
ENDBRANCH  23  24
ENDBRANCH   1  23
TORSDOF 8
