REMARK  Name = ZINC24512803
REMARK  4 active torsions:
REMARK  status: ('A' for Active; 'I' for Inactive)
REMARK    1  A    between atoms: C_1  and  C_2
REMARK    2  A    between atoms: C_5  and  C_7
REMARK    3  A    between atoms: N_13  and  C_14
REMARK    4  A    between atoms: C_19  and  N_20
REMARK                            x       y       z     vdW  Elec       q    Type
REMARK                         _______ _______ _______ _____ _____    ______ ____
ROOT
ATOM      1  C   UNL     1       3.734  -0.188  -0.129  0.00  0.00    +0.087 C 
ATOM      2  N   UNL     1       4.041  -1.484  -0.090  0.00  0.00    -0.150 NA
ATOM      3  N   UNL     1       5.109  -2.147  -0.096  0.00  0.00    -0.127 NA
ATOM      4  C   UNL     1       6.393  -1.678  -0.136  0.00  0.00    +0.180 C 
ATOM      5  S   UNL     1       6.517   0.056  -0.191  0.00  0.00    -0.082 S 
ATOM      6  C   UNL     1       4.858   0.849  -0.183  0.00  0.00    +0.135 C 
ATOM      7  N   UNL     1       7.470  -2.489  -0.133  0.00  0.00    -0.291 N 
ATOM      8  H   UNL     1       8.480  -2.063  -0.228  0.00  0.00    +0.154 HD
ENDROOT
BRANCH   1  13
ATOM      9  C   UNL     1      -1.127   2.396  -0.118  0.00  0.00    +0.051 C 
ATOM     10  C   UNL     1       0.058   1.464  -0.108  0.00  0.00    -0.013 A 
ATOM     11  C   UNL     1       0.061   0.072  -0.065  0.00  0.00    +0.011 A 
ATOM     12  C   UNL     1       1.232  -0.580  -0.068  0.00  0.00    +0.018 A 
ATOM     13  C   UNL     1       2.414   0.215  -0.116  0.00  0.00    +0.036 A 
ATOM     14  S   UNL     1       1.743   1.868  -0.153  0.00  0.00    -0.092 S 
ENDBRANCH   1  13
BRANCH   7  15
ATOM     15  C   UNL     1       7.304  -3.869  -0.008  0.00  0.00    +0.063 A 
ATOM     16  C   UNL     1       6.208  -4.494  -0.593  0.00  0.00    +0.025 A 
ATOM     17  C   UNL     1       6.049  -5.860  -0.471  0.00  0.00    +0.002 A 
ATOM     18  C   UNL     1       6.973  -6.605   0.239  0.00  0.00    +0.002 A 
ATOM     19  C   UNL     1       8.062  -5.986   0.826  0.00  0.00    +0.034 A 
ATOM     20  C   UNL     1       8.230  -4.621   0.705  0.00  0.00    +0.147 A 
BRANCH  20  21
ATOM     21  N   UNL     1       9.395  -3.959   1.334  0.00  0.00    +0.058 N 
ATOM     22  O   UNL     1      10.338  -4.684   1.901  0.00  0.00    -0.126 OA
ATOM     23  O   UNL     1       9.490  -2.646   1.327  0.00  0.00    -0.126 OA
ENDBRANCH  20  21
ENDBRANCH   7  15
TORSDOF 3
