REMARK  Name = ZINC09126393
REMARK  7 active torsions:
REMARK  status: ('A' for Active; 'I' for Inactive)
REMARK    1  A    between atoms: C_4  and  C_7
REMARK    2  A    between atoms: C_7  and  N_8
REMARK    3  A    between atoms: C_9  and  C_30
REMARK    4  A    between atoms: C_12  and  S_13
REMARK    5  A    between atoms: S_13  and  C_14
REMARK    6  A    between atoms: C_14  and  C_15
REMARK    7  A    between atoms: N_17  and  N_18
REMARK                            x       y       z     vdW  Elec       q    Type
REMARK                         _______ _______ _______ _____ _____    ______ ____
ROOT
ATOM      1  S   UNL     1      -3.713   3.358   2.132  0.00  0.00    -0.077 S 
ENDROOT
BRANCH   1   6
ATOM      2  N   UNL     1      -2.559   0.861   1.632  0.00  0.00    -0.298 N 
ATOM      3  C   UNL     1      -2.684  -0.411   2.144  0.00  0.00    +0.165 A 
ATOM      4  N   UNL     1      -3.576  -0.353   3.106  0.00  0.00    -0.128 NA
ATOM      5  N   UNL     1      -4.018   0.848   3.223  0.00  0.00    -0.122 NA
ATOM      6  C   UNL     1      -3.430   1.632   2.346  0.00  0.00    +0.193 A 
BRANCH   3   7
ATOM      7  C   UNL     1      -1.950  -1.613   1.698  0.00  0.00    +0.022 A 
ATOM      8  C   UNL     1      -1.601  -1.785   0.353  0.00  0.00    +0.031 A 
ATOM      9  C   UNL     1      -0.912  -2.921  -0.019  0.00  0.00    +0.111 A 
ATOM     10  N   UNL     1      -0.592  -3.841   0.871  0.00  0.00    -0.263 NA
ATOM     11  C   UNL     1      -0.906  -3.720   2.147  0.00  0.00    +0.111 A 
ATOM     12  C   UNL     1      -1.590  -2.615   2.607  0.00  0.00    +0.031 A 
ENDBRANCH   3   7
BRANCH   2  13
ATOM     13  C   UNL     1      -1.680   1.294   0.543  0.00  0.00    +0.161 C 
BRANCH  13  17
ATOM     14  C   UNL     1       2.183   2.224   2.110  0.00  0.00    +0.000 A 
ATOM     15  C   UNL     1       1.902   0.940   1.682  0.00  0.00    +0.000 A 
ATOM     16  C   UNL     1       0.650   0.638   1.179  0.00  0.00    +0.005 A 
ATOM     17  C   UNL     1      -0.318   1.622   1.098  0.00  0.00    -0.028 A 
ATOM     18  C   UNL     1      -0.038   2.904   1.531  0.00  0.00    +0.005 A 
ATOM     19  C   UNL     1       1.213   3.206   2.034  0.00  0.00    +0.000 A 
ENDBRANCH  13  17
ENDBRANCH   2  13
ENDBRANCH   1   6
BRANCH   1  20
ATOM     20  C   UNL     1      -4.964   3.632   3.411  0.00  0.00    +0.174 C 
BRANCH  20  21
ATOM     21  C   UNL     1      -5.371   5.083   3.414  0.00  0.00    +0.240 C 
ATOM     22  O   UNL     1      -4.864   5.856   2.628  0.00  0.00    -0.273 OA
ATOM     23  N   UNL     1      -6.297   5.522   4.289  0.00  0.00    -0.223 N 
ATOM     24  H   UNL     1      -6.702   4.904   4.917  0.00  0.00    +0.174 HD
BRANCH  23  25
ATOM     25  N   UNL     1      -6.674   6.871   4.292  0.00  0.00    -0.137 N 
ATOM     26  C   UNL     1      -7.841   7.333   3.795  0.00  0.00    +0.263 C 
ATOM     27  O   UNL     1      -8.727   6.685   3.282  0.00  0.00    -0.271 OA
ATOM     28  C   UNL     1      -7.809   8.829   4.014  0.00  0.00    +0.114 C 
ATOM     29  C   UNL     1      -8.954   9.257   4.925  0.00  0.00    +0.035 C 
ATOM     30  C   UNL     1      -8.888  10.768   5.157  0.00  0.00    +0.003 C 
ATOM     31  C   UNL     1      -8.984  11.494   3.813  0.00  0.00    +0.000 C 
ATOM     32  C   UNL     1      -7.815  11.073   2.920  0.00  0.00    +0.003 C 
ATOM     33  C   UNL     1      -7.877   9.562   2.679  0.00  0.00    +0.035 C 
ATOM     34  N   UNL     1      -6.515   9.066   4.667  0.00  0.00    -0.284 N 
ATOM     35  C   UNL     1      -5.925   7.862   4.792  0.00  0.00    +0.326 C 
ATOM     36  O   UNL     1      -4.834   7.693   5.300  0.00  0.00    -0.251 OA
ATOM     37  H   UNL     1      -6.158   9.920   4.955  0.00  0.00    +0.151 HD
ENDBRANCH  23  25
ENDBRANCH  20  21
ENDBRANCH   1  20
TORSDOF 7
