REMARK  Name = ZINC36352094
REMARK  9 active torsions:
REMARK  status: ('A' for Active; 'I' for Inactive)
REMARK    1  A    between atoms: C_1  and  C_2
REMARK    2  A    between atoms: C_2  and  O_3
REMARK    3  A    between atoms: O_3  and  C_4
REMARK    4  A    between atoms: N_9  and  C_12
REMARK    5  A    between atoms: C_12  and  C_14
REMARK    6  A    between atoms: C_12  and  C_32
REMARK    7  A    between atoms: C_22  and  O_24
REMARK    8  A    between atoms: O_24  and  C_25
REMARK    9  A    between atoms: C_25  and  C_26
REMARK                            x       y       z     vdW  Elec       q    Type
REMARK                         _______ _______ _______ _____ _____    ______ ____
ROOT
ATOM      1  C   UNL     1       4.866  -5.075   4.945  0.00  0.00    +0.006 A 
ATOM      2  C   UNL     1       4.028  -6.075   4.631  0.00  0.00    +0.089 A 
ATOM      3  N   UNL     1       4.307  -7.176   5.397  0.00  0.00    -0.360 N 
ATOM      4  H   UNL     1       3.834  -8.022   5.350  0.00  0.00    +0.165 HD
ATOM      5  C   UNL     1       5.358  -6.903   6.243  0.00  0.00    +0.050 A 
ATOM      6  C   UNL     1       5.759  -5.578   5.994  0.00  0.00    +0.005 A 
ATOM      7  C   UNL     1       6.821  -5.023   6.709  0.00  0.00    +0.014 A 
ATOM      8  C   UNL     1       7.472  -5.770   7.649  0.00  0.00    +0.046 A 
ATOM      9  C   UNL     1       7.083  -7.084   7.899  0.00  0.00    +0.123 A 
ATOM     10  C   UNL     1       6.028  -7.648   7.207  0.00  0.00    +0.071 A 
ENDROOT
BRANCH   1  11
ATOM     11  C   UNL     1       4.889  -3.699   4.332  0.00  0.00    +0.203 C 
BRANCH  11  17
ATOM     12  C   UNL     1       0.184  -1.065   3.732  0.00  0.00    +0.403 C 
ATOM     13  O   UNL     1       0.180  -0.053   3.060  0.00  0.00    -0.226 OA
ATOM     14  N   UNL     1       1.135  -2.000   3.538  0.00  0.00    -0.265 N 
ATOM     15  C   UNL     1       1.154  -3.234   4.337  0.00  0.00    +0.126 C 
ATOM     16  C   UNL     1       2.558  -3.414   4.922  0.00  0.00    +0.104 C 
ATOM     17  N   UNL     1       3.548  -3.360   3.838  0.00  0.00    -0.283 NA
ATOM     18  C   UNL     1       3.546  -2.048   3.179  0.00  0.00    +0.104 C 
ATOM     19  C   UNL     1       2.178  -1.815   2.518  0.00  0.00    +0.126 C 
BRANCH  12  20
ATOM     20  O   UNL     1      -0.763  -1.252   4.671  0.00  0.00    -0.451 OA
BRANCH  20  22
ATOM     21  C   UNL     1      -2.724  -0.608   5.928  0.00  0.00    +0.048 C 
ATOM     22  C   UNL     1      -1.740  -0.220   4.823  0.00  0.00    +0.230 C 
ENDBRANCH  20  22
ENDBRANCH  12  20
ENDBRANCH  11  17
BRANCH  11  23
ATOM     23  C   UNL     1       5.867  -3.676   3.186  0.00  0.00    +0.377 C 
ATOM     24  O   UNL     1       7.056  -3.508   3.401  0.00  0.00    -0.244 OA
ATOM     25  O   UNL     1       5.471  -3.826   2.043  0.00  0.00    -0.244 OA
ENDBRANCH  11  23
ENDBRANCH   1  11
BRANCH   9  26
ATOM     26  O   UNL     1       7.742  -7.814   8.838  0.00  0.00    -0.487 OA
BRANCH  26  27
ATOM     27  C   UNL     1       8.817  -7.171   9.524  0.00  0.00    +0.264 C 
BRANCH  27  28
ATOM     28  C   UNL     1       9.423  -8.128  10.519  0.00  0.00    -0.010 A 
ATOM     29  C   UNL     1       8.932  -8.185  11.810  0.00  0.00    +0.007 A 
ATOM     30  C   UNL     1       9.488  -9.063  12.722  0.00  0.00    +0.000 A 
ATOM     31  C   UNL     1      10.533  -9.883  12.343  0.00  0.00    +0.000 A 
ATOM     32  C   UNL     1      11.023  -9.827  11.051  0.00  0.00    +0.000 A 
ATOM     33  C   UNL     1      10.465  -8.952  10.138  0.00  0.00    +0.007 A 
ENDBRANCH  27  28
ENDBRANCH  26  27
ENDBRANCH   9  26
TORSDOF 8
