REMARK  Name = ZINC40156589
REMARK  17 active torsions:
REMARK  status: ('A' for Active; 'I' for Inactive)
REMARK    1  A    between atoms: C_1  and  C_2
REMARK    2  A    between atoms: C_7  and  O_8
REMARK    3  A    between atoms: O_8  and  C_9
REMARK    4  A    between atoms: C_9  and  C_10
REMARK    5  A    between atoms: C_10  and  C_12
REMARK    6  A    between atoms: C_10  and  O_40
REMARK    7  A    between atoms: C_12  and  N_13
REMARK    8  A    between atoms: N_13  and  C_14
REMARK    9  A    between atoms: N_13  and  C_27
REMARK   10  A    between atoms: C_14  and  C_15
REMARK   11  A    between atoms: C_15  and  C_17
REMARK   12  A    between atoms: C_15  and  O_26
REMARK   13  A    between atoms: C_20  and  N_23
REMARK   14  A    between atoms: C_27  and  C_28
REMARK   15  A    between atoms: C_28  and  C_30
REMARK   16  A    between atoms: C_28  and  O_39
REMARK   17  A    between atoms: C_33  and  N_36
REMARK                            x       y       z     vdW  Elec       q    Type
REMARK                         _______ _______ _______ _____ _____    ______ ____
ROOT
ATOM      1  N   UNL     1       0.867   0.005   8.094  0.00  0.00    +0.385 N 
ATOM      2  H   UNL     1       1.516   0.774   8.164  0.00  0.00    -0.081 HD
ENDROOT
BRANCH   1   3
ATOM      3  C   UNL     1      -0.459   0.438   8.556  0.00  0.00    -0.042 C 
BRANCH   3   4
ATOM      4  C   UNL     1      -1.311  -0.789   8.883  0.00  0.00    +0.128 C 
BRANCH   4   5
ATOM      5  C   UNL     1      -2.675  -0.345   9.345  0.00  0.00    -0.021 A 
ATOM      6  C   UNL     1      -3.665  -0.076   8.418  0.00  0.00    +0.008 A 
ATOM      7  C   UNL     1      -4.916   0.331   8.842  0.00  0.00    +0.033 A 
ATOM      8  C   UNL     1      -5.177   0.469  10.193  0.00  0.00    +0.126 A 
ATOM      9  C   UNL     1      -4.188   0.199  11.119  0.00  0.00    +0.033 A 
ATOM     10  C   UNL     1      -2.938  -0.212  10.696  0.00  0.00    +0.008 A 
BRANCH   8  11
ATOM     11  N   UNL     1      -6.517   0.907  10.646  0.00  0.00    +0.056 N 
ATOM     12  O   UNL     1      -7.382   1.143   9.836  0.00  0.00    -0.126 OA
ATOM     13  O   UNL     1      -6.745   1.027  11.828  0.00  0.00    -0.126 OA
ENDBRANCH   8  11
ENDBRANCH   4   5
BRANCH   4  14
ATOM     14  O   UNL     1      -1.445  -1.602   7.715  0.00  0.00    -0.389 OA
ATOM     15  H   UNL     1      -1.956  -1.189   7.005  0.00  0.00    +0.210 HD
ENDBRANCH   4  14
ENDBRANCH   3   4
ENDBRANCH   1   3
BRANCH   1  16
ATOM     16  C   UNL     1       1.336  -1.109   8.929  0.00  0.00    -0.042 C 
BRANCH  16  17
ATOM     17  C   UNL     1       1.530  -0.623  10.366  0.00  0.00    +0.128 C 
BRANCH  17  18
ATOM     18  C   UNL     1       1.904  -1.788  11.245  0.00  0.00    -0.021 A 
ATOM     19  C   UNL     1       3.225  -2.182  11.346  0.00  0.00    +0.008 A 
ATOM     20  C   UNL     1       3.569  -3.251  12.152  0.00  0.00    +0.033 A 
ATOM     21  C   UNL     1       2.591  -3.927  12.857  0.00  0.00    +0.126 A 
ATOM     22  C   UNL     1       1.269  -3.533  12.757  0.00  0.00    +0.033 A 
ATOM     23  C   UNL     1       0.927  -2.461  11.954  0.00  0.00    +0.008 A 
BRANCH  21  24
ATOM     24  N   UNL     1       2.958  -5.072  13.719  0.00  0.00    +0.056 N 
ATOM     25  O   UNL     1       4.114  -5.417  13.807  0.00  0.00    -0.126 OA
ATOM     26  O   UNL     1       2.103  -5.664  14.336  0.00  0.00    -0.126 OA
ENDBRANCH  21  24
ENDBRANCH  17  18
BRANCH  17  27
ATOM     27  O   UNL     1       2.572   0.355  10.402  0.00  0.00    -0.389 OA
ATOM     28  H   UNL     1       3.428   0.028  10.094  0.00  0.00    +0.210 HD
ENDBRANCH  17  27
ENDBRANCH  16  17
ENDBRANCH   1  16
BRANCH   1  29
ATOM     29  C   UNL     1       0.778  -0.435   6.695  0.00  0.00    -0.043 C 
BRANCH  29  30
ATOM     30  C   UNL     1       0.799   0.786   5.774  0.00  0.00    +0.135 C 
BRANCH  30  31
ATOM     31  O   UNL     1      -0.312   1.631   6.078  0.00  0.00    -0.390 OA
ATOM     32  H   UNL     1      -1.170   1.252   5.844  0.00  0.00    +0.210 HD
ENDBRANCH  30  31
BRANCH  30  33
ATOM     33  C   UNL     1       0.709   0.328   4.317  0.00  0.00    +0.258 C 
BRANCH  33  34
ATOM     34  O   UNL     1       0.846   1.458   3.453  0.00  0.00    -0.489 OA
BRANCH  34  41
ATOM     35  C   UNL     1       1.113   3.679   1.727  0.00  0.00    +0.047 C 
ATOM     36  C   UNL     1       0.913   2.274   1.219  0.00  0.00    -0.009 A 
ATOM     37  C   UNL     1       0.860   2.031  -0.140  0.00  0.00    +0.007 A 
ATOM     38  C   UNL     1       0.675   0.743  -0.606  0.00  0.00    +0.000 A 
ATOM     39  C   UNL     1       0.544  -0.306   0.285  0.00  0.00    +0.004 A 
ATOM     40  C   UNL     1       0.597  -0.068   1.645  0.00  0.00    +0.046 A 
ATOM     41  C   UNL     1       0.787   1.223   2.116  0.00  0.00    +0.124 A 
ENDBRANCH  34  41
ENDBRANCH  33  34
ENDBRANCH  30  33
ENDBRANCH  29  30
ENDBRANCH   1  29
TORSDOF 16
