REMARK  Name = ZINC67012013
REMARK  5 active torsions:
REMARK  status: ('A' for Active; 'I' for Inactive)
REMARK    1  A    between atoms: C_3  and  C_6
REMARK    2  A    between atoms: N_8  and  C_9
REMARK    3  A    between atoms: C_12  and  C_15
REMARK    4  A    between atoms: C_15  and  N_16
REMARK    5  A    between atoms: C_22  and  N_25
REMARK                            x       y       z     vdW  Elec       q    Type
REMARK                         _______ _______ _______ _____ _____    ______ ____
ROOT
ATOM      1  C   UNL     1       9.870  -0.485   0.268  0.00  0.00    +0.141 C 
ENDROOT
BRANCH   1   2
ATOM      2  N   UNL     1      10.283  -0.551   1.672  0.00  0.00    -0.295 N 
ATOM      3  C   UNL     1      11.592  -0.540   1.991  0.00  0.00    +0.302 C 
ATOM      4  O   UNL     1      12.428  -0.384   1.121  0.00  0.00    -0.253 OA
ATOM      5  N   UNL     1      11.975  -0.702   3.273  0.00  0.00    -0.286 N 
ATOM      6  C   UNL     1      10.977  -0.783   4.348  0.00  0.00    +0.111 C 
ATOM      7  C   UNL     1      11.320   0.257   5.419  0.00  0.00    +0.044 C 
ATOM      8  C   UNL     1      12.763   0.047   5.884  0.00  0.00    +0.091 C 
ATOM      9  C   UNL     1      13.715   0.239   4.701  0.00  0.00    +0.044 C 
ATOM     10  C   UNL     1      13.399  -0.806   3.621  0.00  0.00    +0.111 C 
ATOM     11  H   UNL     1       9.614  -0.603   2.372  0.00  0.00    +0.151 HD
BRANCH   8  12
ATOM     12  N   UNL     1      13.085   1.018   6.932  0.00  0.00    -0.335 N 
ATOM     13  C   UNL     1      13.052   2.382   6.814  0.00  0.00    +0.104 A 
ATOM     14  C   UNL     1      13.416   2.885   8.009  0.00  0.00    +0.101 A 
ATOM     15  N   UNL     1      13.664   1.857   8.834  0.00  0.00    -0.352 N 
ATOM     16  C   UNL     1      13.463   0.736   8.198  0.00  0.00    +0.174 A 
ATOM     17  H   UNL     1      13.945   1.935   9.759  0.00  0.00    +0.166 HD
ENDBRANCH   8  12
ENDBRANCH   1   2
BRANCH   1  21
ATOM     18  C   UNL     1       5.603  -0.565   0.032  0.00  0.00    +0.034 A 
ATOM     19  C   UNL     1       6.272   0.648   0.134  0.00  0.00    +0.023 A 
ATOM     20  C   UNL     1       7.651   0.670   0.211  0.00  0.00    +0.007 A 
ATOM     21  C   UNL     1       8.365  -0.513   0.185  0.00  0.00    -0.030 A 
ATOM     22  C   UNL     1       7.702  -1.723   0.083  0.00  0.00    +0.007 A 
ATOM     23  C   UNL     1       6.324  -1.752   0.011  0.00  0.00    +0.023 A 
BRANCH  18  26
ATOM     24  C   UNL     1       3.518  -1.591   0.540  0.00  0.00    +0.284 C 
ATOM     25  O   UNL     1       4.114  -2.515   1.062  0.00  0.00    -0.266 OA
ATOM     26  N   UNL     1       4.207  -0.592  -0.046  0.00  0.00    -0.279 N 
ATOM     27  H   UNL     1       3.734   0.110  -0.520  0.00  0.00    +0.155 HD
BRANCH  24  30
ATOM     28  C   UNL     1      -0.083  -2.084   0.878  0.00  0.00    +0.042 A 
ATOM     29  C   UNL     1       1.236  -2.510   1.102  0.00  0.00    +0.054 A 
ATOM     30  C   UNL     1       2.053  -1.566   0.547  0.00  0.00    +0.189 A 
ATOM     31  O   UNL     1       1.274  -0.606   0.007  0.00  0.00    -0.458 OA
ATOM     32  C   UNL     1      -0.014  -0.915   0.205  0.00  0.00    +0.196 A 
ENDBRANCH  24  30
ENDBRANCH  18  26
ENDBRANCH   1  21
TORSDOF 5
