REMARK  Name = ZINC03449953
REMARK  7 active torsions:
REMARK  status: ('A' for Active; 'I' for Inactive)
REMARK    1  A    between atoms: C_1  and  C_2
REMARK    2  A    between atoms: C_2  and  C_4
REMARK    3  A    between atoms: C_2  and  O_17
REMARK    4  A    between atoms: N_6  and  C_7
REMARK    5  A    between atoms: C_9  and  N_14
REMARK    6  A    between atoms: O_17  and  C_18
REMARK    7  A    between atoms: C_18  and  C_20
REMARK                            x       y       z     vdW  Elec       q    Type
REMARK                         _______ _______ _______ _____ _____    ______ ____
ROOT
ATOM      1  C   UNL     1       3.721  -2.241   0.660  0.00  0.00    +0.258 C 
ATOM      2  O   UNL     1       2.651  -2.655   1.052  0.00  0.00    -0.271 OA
ATOM      3  N   UNL     1       4.840  -2.966   0.863  0.00  0.00    -0.281 N 
ATOM      4  H   UNL     1       5.685  -2.667   0.492  0.00  0.00    +0.155 HD
ENDROOT
BRANCH   3   5
ATOM      5  C   UNL     1       4.781  -4.149   1.607  0.00  0.00    +0.054 A 
ATOM      6  C   UNL     1       3.656  -4.960   1.538  0.00  0.00    +0.057 A 
ATOM      7  C   UNL     1       3.602  -6.128   2.273  0.00  0.00    +0.128 A 
ATOM      8  C   UNL     1       4.666  -6.491   3.079  0.00  0.00    +0.034 A 
ATOM      9  C   UNL     1       5.788  -5.686   3.151  0.00  0.00    +0.024 A 
ATOM     10  C   UNL     1       5.851  -4.519   2.413  0.00  0.00    +0.062 A 
ATOM     11 CL   UNL     1       7.263  -3.512   2.499  0.00  0.00    -0.082 Cl
BRANCH   7  12
ATOM     12  N   UNL     1       2.403  -6.993   2.199  0.00  0.00    +0.056 N 
ATOM     13  O   UNL     1       1.465  -6.675   1.490  0.00  0.00    -0.126 OA
ATOM     14  O   UNL     1       2.354  -8.023   2.847  0.00  0.00    -0.126 OA
ENDBRANCH   7  12
ENDBRANCH   3   5
BRANCH   1  16
ATOM     15  C   UNL     1       4.245  -1.143  -1.501  0.00  0.00    +0.062 C 
ATOM     16  C   UNL     1       3.801  -0.917  -0.055  0.00  0.00    +0.259 C 
BRANCH  16  17
ATOM     17  O   UNL     1       2.495  -0.281  -0.044  0.00  0.00    -0.449 OA
BRANCH  17  18
ATOM     18  C   UNL     1       2.471   1.066  -0.047  0.00  0.00    +0.341 C 
ATOM     19  O   UNL     1       3.511   1.692  -0.059  0.00  0.00    -0.245 OA
BRANCH  18  20
ATOM     20  C   UNL     1       1.180   1.780  -0.036  0.00  0.00    +0.077 A 
ATOM     21  C   UNL     1      -0.019   1.061  -0.022  0.00  0.00    +0.019 A 
ATOM     22  C   UNL     1      -1.222   1.733  -0.018  0.00  0.00    +0.039 A 
ATOM     23  C   UNL     1      -1.245   3.120  -0.017  0.00  0.00    +0.125 A 
ATOM     24  C   UNL     1      -0.061   3.839  -0.030  0.00  0.00    +0.059 A 
ATOM     25  C   UNL     1       1.151   3.178  -0.039  0.00  0.00    +0.058 A 
ATOM     26 CL   UNL     1       2.634   4.079  -0.056  0.00  0.00    -0.083 Cl
ATOM     27  F   UNL     1      -2.428   3.773  -0.008  0.00  0.00    -0.205 F 
ENDBRANCH  18  20
ENDBRANCH  17  18
ENDBRANCH  16  17
ENDBRANCH   1  16
TORSDOF 6
