REMARK  Name = ZINC13272689
REMARK  6 active torsions:
REMARK  status: ('A' for Active; 'I' for Inactive)
REMARK    1  A    between atoms: C_4  and  N_7
REMARK    2  A    between atoms: C_8  and  C_10
REMARK    3  A    between atoms: N_15  and  C_17
REMARK    4  A    between atoms: C_20  and  C_26
REMARK    5  A    between atoms: C_22  and  N_23
REMARK    6  A    between atoms: C_27  and  C_28
REMARK                            x       y       z     vdW  Elec       q    Type
REMARK                         _______ _______ _______ _____ _____    ______ ____
ROOT
ATOM      1  C   UNL     1      -0.757   1.587  -1.232  0.00  0.00    +0.093 C 
ATOM      2  C   UNL     1      -2.195   1.061  -1.209  0.00  0.00    +0.016 C 
ATOM      3  C   UNL     1      -2.877   1.520   0.082  0.00  0.00    +0.020 C 
ATOM      4  C   UNL     1      -2.074   1.019   1.284  0.00  0.00    +0.105 C 
ATOM      5  N   UNL     1      -0.707   1.550   1.216  0.00  0.00    -0.327 N 
ATOM      6  C   UNL     1      -0.015   1.083   0.008  0.00  0.00    +0.118 C 
ENDROOT
BRANCH   5   7
ATOM      7  C   UNL     1       0.013   1.221   2.361  0.00  0.00    +0.060 A 
ATOM      8  C   UNL     1       0.286  -0.113   2.650  0.00  0.00    +0.026 A 
ATOM      9  C   UNL     1       0.991  -0.443   3.771  0.00  0.00    +0.010 A 
ATOM     10  C   UNL     1       1.443   0.562   4.636  0.00  0.00    -0.023 A 
ATOM     11  C   UNL     1       1.169   1.904   4.347  0.00  0.00    +0.042 A 
ATOM     12  C   UNL     1       0.462   2.228   3.211  0.00  0.00    +0.148 A 
BRANCH  12  13
ATOM     13  N   UNL     1       0.175   3.646   2.897  0.00  0.00    +0.058 N 
ATOM     14  O   UNL     1       0.569   4.526   3.641  0.00  0.00    -0.126 OA
ATOM     15  O   UNL     1      -0.454   3.932   1.894  0.00  0.00    -0.126 OA
ENDBRANCH  12  13
BRANCH  10  16
ATOM     16  C   UNL     1       2.202   0.208   5.843  0.00  0.00    +0.015 C 
ATOM     17  C   UNL     1       2.465  -1.088   6.121  0.00  0.00    +0.096 C 
BRANCH  17  18
ATOM     18  C   UNL     1       3.197  -1.429   7.285  0.00  0.00    +0.380 C 
ATOM     19  O   UNL     1       3.588  -0.555   8.035  0.00  0.00    -0.241 OA
ATOM     20  O   UNL     1       3.459  -2.723   7.563  0.00  0.00    -0.241 OA
ENDBRANCH  17  18
ENDBRANCH  10  16
ENDBRANCH   5   7
BRANCH   1  22
ATOM     21  N   UNL     1      -0.539   1.411  -3.690  0.00  0.00    -0.285 N 
ATOM     22  C   UNL     1      -0.059   1.090  -2.472  0.00  0.00    +0.222 C 
ATOM     23  O   UNL     1       0.934   0.401  -2.374  0.00  0.00    -0.275 OA
ATOM     24  H   UNL     1      -1.370   1.906  -3.769  0.00  0.00    +0.155 HD
BRANCH  21  28
ATOM     25  C   UNL     1       1.547   0.283  -7.115  0.00  0.00    +0.000 A 
ATOM     26  C   UNL     1       1.538  -0.547  -6.008  0.00  0.00    +0.002 A 
ATOM     27  C   UNL     1       0.847  -0.175  -4.871  0.00  0.00    +0.023 A 
ATOM     28  C   UNL     1       0.162   1.032  -4.840  0.00  0.00    +0.033 A 
ATOM     29  C   UNL     1       0.169   1.860  -5.955  0.00  0.00    +0.023 A 
ATOM     30  C   UNL     1       0.867   1.486  -7.087  0.00  0.00    +0.002 A 
ENDBRANCH  21  28
ENDBRANCH   1  22
TORSDOF 6
