REMARK  Name = ZINC16534126
REMARK  8 active torsions:
REMARK  status: ('A' for Active; 'I' for Inactive)
REMARK    1  A    between atoms: C_1  and  C_2
REMARK    2  A    between atoms: C_2  and  C_3
REMARK    3  A    between atoms: C_4  and  C_18
REMARK    4  A    between atoms: N_6  and  C_8
REMARK    5  A    between atoms: C_11  and  N_14
REMARK    6  A    between atoms: N_22  and  C_26
REMARK    7  A    between atoms: C_26  and  C_27
REMARK    8  A    between atoms: C_30  and  C_33
REMARK                            x       y       z     vdW  Elec       q    Type
REMARK                         _______ _______ _______ _____ _____    ______ ____
ROOT
ATOM      1  C   UNL     1      -1.412  -0.526   0.013  0.00  0.00    +0.074 A 
ATOM      2  C   UNL     1      -2.182  -0.814   1.166  0.00  0.00    +0.066 A 
ATOM      3  C   UNL     1      -3.422  -1.269   0.723  0.00  0.00    +0.281 A 
ATOM      4  N   UNL     1      -3.392  -1.253  -0.627  0.00  0.00    -0.196 N 
ATOM      5  N   UNL     1      -2.139  -0.784  -1.038  0.00  0.00    -0.168 NA
ATOM      6  O   UNL     1      -4.461  -1.656   1.500  0.00  0.00    -0.265 OA
ENDROOT
BRANCH   2   7
ATOM      7  C   UNL     1      -1.756  -0.663   2.558  0.00  0.00    +0.043 C 
ATOM      8  C   UNL     1      -2.545   0.005   3.443  0.00  0.00    +0.099 C 
ATOM      9  C   UNL     1      -2.278   0.243   4.817  0.00  0.00    +0.269 C 
ATOM     10  O   UNL     1      -1.290  -0.113   5.435  0.00  0.00    -0.268 OA
ATOM     11  N   UNL     1      -3.322   0.938   5.308  0.00  0.00    -0.216 N 
ATOM     12  C   UNL     1      -4.222   1.150   4.334  0.00  0.00    +0.313 C 
ATOM     13  O   UNL     1      -5.271   1.750   4.470  0.00  0.00    -0.252 OA
ATOM     14  N   UNL     1      -3.788   0.604   3.182  0.00  0.00    -0.265 N 
ATOM     15  H   UNL     1      -4.250   0.620   2.329  0.00  0.00    +0.157 HD
BRANCH  11  16
ATOM     16  C   UNL     1      -3.456   1.394   6.694  0.00  0.00    +0.153 C 
BRANCH  16  17
ATOM     17  C   UNL     1      -2.850   2.767   6.832  0.00  0.00    -0.030 A 
ATOM     18  C   UNL     1      -1.512   2.904   7.154  0.00  0.00    +0.005 A 
ATOM     19  C   UNL     1      -0.957   4.163   7.280  0.00  0.00    +0.003 A 
ATOM     20  C   UNL     1      -1.739   5.286   7.085  0.00  0.00    -0.050 A 
ATOM     21  C   UNL     1      -3.076   5.150   6.762  0.00  0.00    +0.003 A 
ATOM     22  C   UNL     1      -3.630   3.890   6.631  0.00  0.00    +0.005 A 
ATOM     23  C   UNL     1      -1.133   6.659   7.223  0.00  0.00    +0.044 C 
ENDBRANCH  16  17
ENDBRANCH  11  16
ENDBRANCH   2   7
BRANCH   4  24
ATOM     24  C   UNL     1      -4.440  -1.637  -1.474  0.00  0.00    +0.069 A 
ATOM     25  C   UNL     1      -5.283  -2.679  -1.110  0.00  0.00    +0.030 A 
ATOM     26  C   UNL     1      -6.315  -3.054  -1.947  0.00  0.00    +0.035 A 
ATOM     27  C   UNL     1      -6.510  -2.394  -3.147  0.00  0.00    +0.126 A 
ATOM     28  C   UNL     1      -5.672  -1.357  -3.512  0.00  0.00    +0.035 A 
ATOM     29  C   UNL     1      -4.642  -0.972  -2.676  0.00  0.00    +0.030 A 
BRANCH  27  30
ATOM     30  N   UNL     1      -7.617  -2.800  -4.041  0.00  0.00    +0.056 N 
ATOM     31  O   UNL     1      -8.350  -3.708  -3.723  0.00  0.00    -0.126 OA
ATOM     32  O   UNL     1      -7.789  -2.224  -5.090  0.00  0.00    -0.126 OA
ENDBRANCH  27  30
ENDBRANCH   4  24
BRANCH   1  34
ATOM     33  C   UNL     1      -0.019   1.526   0.010  0.00  0.00    +0.010 C 
ATOM     34  C   UNL     1       0.002  -0.004   0.002  0.00  0.00    +0.054 C 
ENDBRANCH   1  34
TORSDOF 6
