REMARK  Name = ZINC09542668
REMARK  7 active torsions:
REMARK  status: ('A' for Active; 'I' for Inactive)
REMARK    1  A    between atoms: C_1  and  C_2
REMARK    2  A    between atoms: C_2  and  O_3
REMARK    3  A    between atoms: O_3  and  C_4
REMARK    4  A    between atoms: C_8  and  C_11
REMARK    5  A    between atoms: C_9  and  O_10
REMARK    6  A    between atoms: C_14  and  C_25
REMARK    7  A    between atoms: C_16  and  C_18
REMARK                            x       y       z     vdW  Elec       q    Type
REMARK                         _______ _______ _______ _____ _____    ______ ____
ROOT
ATOM      1  C   UNL     1       2.240   3.805  -2.132  0.00  0.00    -0.028 C 
ATOM      2  C   UNL     1       1.098   4.645  -2.714  0.00  0.00    +0.044 C 
ATOM      3  C   UNL     1      -0.114   4.521  -1.834  0.00  0.00    +0.040 C 
ATOM      4  N   UNL     1      -0.068   4.061  -0.639  0.00  0.00    -0.299 NA
ATOM      5  C   UNL     1       1.151   3.594   0.010  0.00  0.00    +0.081 C 
ATOM      6  N   UNL     1       2.342   4.099  -0.689  0.00  0.00    +0.401 N 
ATOM      7  H   UNL     1       2.411   5.115  -0.553  0.00  0.00    -0.081 HD
ATOM      8  H   UNL     1       3.179   3.645  -0.307  0.00  0.00    -0.081 HD
ENDROOT
BRANCH   3   9
ATOM      9  C   UNL     1      -1.419   4.950  -2.371  0.00  0.00    -0.001 A 
ATOM     10  C   UNL     1      -1.509   5.457  -3.670  0.00  0.00    +0.013 A 
ATOM     11  C   UNL     1      -2.729   5.857  -4.170  0.00  0.00    +0.050 A 
ATOM     12  C   UNL     1      -3.872   5.758  -3.388  0.00  0.00    +0.166 A 
ATOM     13  C   UNL     1      -3.788   5.253  -2.090  0.00  0.00    +0.167 A 
ATOM     14  C   UNL     1      -2.569   4.845  -1.585  0.00  0.00    +0.059 A 
ATOM     15  O   UNL     1      -5.038   5.259  -1.539  0.00  0.00    -0.453 OA
ATOM     16  C   UNL     1      -5.814   6.151  -2.361  0.00  0.00    +0.466 C 
ATOM     17  O   UNL     1      -5.172   6.079  -3.647  0.00  0.00    -0.453 OA
ENDBRANCH   3   9
BRANCH   5  18
ATOM     18  C   UNL     1       1.171   2.087   0.002  0.00  0.00    -0.038 A 
ATOM     19  C   UNL     1       2.377   1.412  -0.013  0.00  0.00    +0.004 A 
ATOM     20  C   UNL     1       2.397   0.030  -0.021  0.00  0.00    +0.003 A 
ATOM     21  C   UNL     1       1.211  -0.679  -0.013  0.00  0.00    +0.038 A 
ATOM     22  C   UNL     1       0.002  -0.004   0.002  0.00  0.00    +0.124 A 
ATOM     23  C   UNL     1      -0.017   1.381   0.010  0.00  0.00    +0.042 A 
ATOM     24  F   UNL     1      -1.158  -0.696   0.009  0.00  0.00    -0.205 F 
ENDBRANCH   5  18
BRANCH   1  29
ATOM     25  C   UNL     1       5.040   3.949  -4.674  0.00  0.00    +0.162 A 
ATOM     26  C   UNL     1       5.918   4.828  -4.061  0.00  0.00    +0.049 A 
ATOM     27  C   UNL     1       5.604   5.372  -2.830  0.00  0.00    +0.004 A 
ATOM     28  C   UNL     1       4.412   5.045  -2.209  0.00  0.00    +0.006 A 
ATOM     29  C   UNL     1       3.535   4.163  -2.813  0.00  0.00    -0.016 A 
ATOM     30  C   UNL     1       3.844   3.615  -4.048  0.00  0.00    +0.160 A 
BRANCH  30  31
ATOM     31  O   UNL     1       2.979   2.752  -4.645  0.00  0.00    -0.503 OA
ATOM     32  H   UNL     1       2.330   3.180  -5.219  0.00  0.00    +0.292 HD
ENDBRANCH  30  31
BRANCH  25  33
ATOM     33  O   UNL     1       5.348   3.413  -5.886  0.00  0.00    -0.489 OA
BRANCH  33  35
ATOM     34  C   UNL     1       6.763   3.102  -7.820  0.00  0.00    +0.048 C 
ATOM     35  C   UNL     1       6.593   3.801  -6.470  0.00  0.00    +0.226 C 
ENDBRANCH  33  35
ENDBRANCH  25  33
ENDBRANCH   1  29
TORSDOF 6
