REMARK  Name = ZINC46973115
REMARK  10 active torsions:
REMARK  status: ('A' for Active; 'I' for Inactive)
REMARK    1  A    between atoms: C_1  and  C_2
REMARK    2  A    between atoms: C_6  and  O_9
REMARK    3  A    between atoms: C_7  and  C_8
REMARK    4  A    between atoms: O_9  and  C_10
REMARK    5  A    between atoms: C_10  and  C_12
REMARK    6  A    between atoms: C_10  and  C_13
REMARK    7  A    between atoms: N_15  and  N_16
REMARK    8  A    between atoms: N_19  and  C_20
REMARK    9  A    between atoms: C_20  and  C_22
REMARK   10  A    between atoms: C_20  and  C_23
REMARK                            x       y       z     vdW  Elec       q    Type
REMARK                         _______ _______ _______ _____ _____    ______ ____
ROOT
ATOM      1  C   UNL     1      -0.835  -4.719   3.448  0.00  0.00    +0.270 C 
ATOM      2  O   UNL     1      -1.277  -3.947   4.272  0.00  0.00    -0.270 OA
ATOM      3  N   UNL     1      -1.053  -6.043   3.580  0.00  0.00    -0.230 N 
ATOM      4  H   UNL     1      -0.699  -6.660   2.922  0.00  0.00    +0.173 HD
ENDROOT
BRANCH   3   5
ATOM      5  N   UNL     1      -1.790  -6.526   4.670  0.00  0.00    -0.218 N 
ATOM      6  C   UNL     1      -2.007  -7.850   4.802  0.00  0.00    +0.316 C 
ATOM      7  O   UNL     1      -2.646  -8.269   5.747  0.00  0.00    -0.251 OA
ATOM      8  N   UNL     1      -1.516  -8.708   3.886  0.00  0.00    -0.293 N 
ATOM      9  H   UNL     1      -2.143  -5.908   5.328  0.00  0.00    +0.174 HD
ATOM     10  H   UNL     1      -1.005  -8.373   3.132  0.00  0.00    +0.151 HD
BRANCH   8  11
ATOM     11  C   UNL     1      -1.752 -10.147   4.030  0.00  0.00    +0.100 C 
ATOM     12  C   UNL     1      -0.688 -10.749   4.950  0.00  0.00    +0.030 C 
BRANCH  11  13
ATOM     13  C   UNL     1      -1.675 -10.816   2.656  0.00  0.00    +0.138 C 
ATOM     14  C   UNL     1      -2.042 -12.310   2.780  0.00  0.00    +0.035 C 
ATOM     15  C   UNL     1      -1.036 -12.979   1.804  0.00  0.00    +0.031 C 
ATOM     16  C   UNL     1       0.199 -12.060   1.980  0.00  0.00    +0.160 C 
ATOM     17  O   UNL     1      -0.337 -10.737   2.151  0.00  0.00    -0.375 OA
ENDBRANCH  11  13
ENDBRANCH   8  11
ENDBRANCH   3   5
BRANCH   1  18
ATOM     18  C   UNL     1      -0.043  -4.199   2.277  0.00  0.00    +0.257 C 
ATOM     19  C   UNL     1       1.363  -4.804   2.303  0.00  0.00    +0.062 C 
BRANCH  18  20
ATOM     20  O   UNL     1       0.050  -2.776   2.358  0.00  0.00    -0.480 OA
BRANCH  20  26
ATOM     21  C   UNL     1       0.424   1.474  -0.013  0.00  0.00    +0.044 C 
ATOM     22  C   UNL     1       0.438  -0.033  -0.000  0.00  0.00    -0.044 A 
ATOM     23  C   UNL     1       0.653  -0.732  -1.174  0.00  0.00    +0.004 A 
ATOM     24  C   UNL     1       0.667  -2.114  -1.165  0.00  0.00    +0.004 A 
ATOM     25  C   UNL     1       0.465  -2.801   0.016  0.00  0.00    +0.046 A 
ATOM     26  C   UNL     1       0.249  -2.102   1.195  0.00  0.00    +0.125 A 
ATOM     27  C   UNL     1       0.242  -0.715   1.185  0.00  0.00    -0.006 A 
ATOM     28  C   UNL     1       0.014   0.048   2.465  0.00  0.00    +0.048 C 
ENDBRANCH  20  26
ENDBRANCH  18  20
ENDBRANCH   1  18
TORSDOF 6
