REMARK  Name = ZINC33292051
REMARK  12 active torsions:
REMARK  status: ('A' for Active; 'I' for Inactive)
REMARK    1  A    between atoms: C_1  and  C_2
REMARK    2  A    between atoms: C_2  and  C_3
REMARK    3  A    between atoms: C_3  and  C_5
REMARK    4  A    between atoms: C_3  and  N_6
REMARK    5  A    between atoms: C_7  and  C_9
REMARK    6  A    between atoms: C_9  and  C_10
REMARK    7  A    between atoms: C_10  and  N_11
REMARK    8  A    between atoms: C_24  and  S_25
REMARK    9  A    between atoms: S_25  and  C_26
REMARK   10  A    between atoms: C_26  and  C_27
REMARK   11  A    between atoms: N_29  and  C_30
REMARK   12  A    between atoms: C_33  and  C_36
REMARK                            x       y       z     vdW  Elec       q    Type
REMARK                         _______ _______ _______ _____ _____    ______ ____
ROOT
ATOM      1  N   UNL     1       5.301  -9.831  -0.862  0.00  0.00    -0.276 N 
ATOM      2  C   UNL     1       6.642  -9.715  -0.943  0.00  0.00    +0.263 A 
ATOM      3  O   UNL     1       7.342 -10.702  -1.064  0.00  0.00    -0.267 OA
ATOM      4  C   UNL     1       7.245  -8.372  -0.870  0.00  0.00    +0.064 A 
ATOM      5  C   UNL     1       8.625  -8.194  -0.939  0.00  0.00    +0.015 A 
ATOM      6  C   UNL     1       9.152  -6.921  -0.869  0.00  0.00    +0.001 A 
ATOM      7  C   UNL     1       8.317  -5.824  -0.730  0.00  0.00    +0.002 A 
ATOM      8  C   UNL     1       6.948  -5.987  -0.661  0.00  0.00    +0.027 A 
ATOM      9  C   UNL     1       6.401  -7.260  -0.730  0.00  0.00    +0.064 A 
ATOM     10  N   UNL     1       5.022  -7.453  -0.663  0.00  0.00    -0.256 N 
ATOM     11  C   UNL     1       4.493  -8.712  -0.729  0.00  0.00    +0.240 A 
ATOM     12  N   UNL     1       3.185  -8.603  -0.650  0.00  0.00    -0.109 NA
ATOM     13  N   UNL     1       2.869  -7.245  -0.524  0.00  0.00    -0.120 NA
ATOM     14  C   UNL     1       3.989  -6.564  -0.530  0.00  0.00    +0.198 A 
ENDROOT
BRANCH   1  15
ATOM     15  C   UNL     1       4.686 -11.159  -0.935  0.00  0.00    +0.137 C 
BRANCH  15  16
ATOM     16  C   UNL     1       4.395 -11.508  -2.396  0.00  0.00    +0.117 C 
BRANCH  16  18
ATOM     17  N   UNL     1       3.418 -13.392  -3.666  0.00  0.00    -0.313 N 
ATOM     18  C   UNL     1       3.763 -12.874  -2.470  0.00  0.00    +0.215 C 
ATOM     19  O   UNL     1       3.566 -13.507  -1.455  0.00  0.00    -0.276 OA
ATOM     20  H   UNL     1       3.598 -12.818  -4.587  0.00  0.00    +0.149 HD
BRANCH  17  21
ATOM     21  C   UNL     1       2.804 -14.720  -3.738  0.00  0.00    +0.070 C 
ATOM     22  C   UNL     1       3.899 -15.788  -3.756  0.00  0.00    +0.028 C 
BRANCH  21  24
ATOM     23  C   UNL     1       0.798 -13.843  -4.941  0.00  0.00    +0.005 C 
ATOM     24  C   UNL     1       1.968 -14.826  -5.015  0.00  0.00    +0.018 C 
ENDBRANCH  21  24
ENDBRANCH  17  21
ENDBRANCH  16  18
ENDBRANCH  15  16
ENDBRANCH   1  15
BRANCH  14  25
ATOM     25  S   UNL     1       4.139  -4.814  -0.398  0.00  0.00    -0.076 S 
BRANCH  25  26
ATOM     26  C   UNL     1       2.425  -4.236  -0.258  0.00  0.00    +0.173 C 
BRANCH  26  27
ATOM     27  C   UNL     1       2.410  -2.734  -0.137  0.00  0.00    +0.227 C 
ATOM     28  O   UNL     1       3.452  -2.114  -0.144  0.00  0.00    -0.275 OA
ATOM     29  N   UNL     1       1.237  -2.079  -0.020  0.00  0.00    -0.285 N 
ATOM     30  H   UNL     1       0.298  -2.645   0.073  0.00  0.00    +0.155 HD
BRANCH  29  31
ATOM     31  C   UNL     1       1.214  -0.680  -0.019  0.00  0.00    +0.033 A 
ATOM     32  C   UNL     1       2.137   0.031  -0.774  0.00  0.00    +0.023 A 
ATOM     33  C   UNL     1       2.111   1.412  -0.771  0.00  0.00    +0.005 A 
ATOM     34  C   UNL     1       1.168   2.086  -0.017  0.00  0.00    -0.050 A 
ATOM     35  C   UNL     1       0.248   1.380   0.736  0.00  0.00    +0.005 A 
ATOM     36  C   UNL     1       0.268  -0.001   0.737  0.00  0.00    +0.023 A 
ATOM     37  C   UNL     1       1.143   3.593  -0.015  0.00  0.00    +0.044 C 
ENDBRANCH  29  31
ENDBRANCH  26  27
ENDBRANCH  25  26
ENDBRANCH  14  25
TORSDOF 9
