REMARK  Name = ZINC03363352
REMARK  8 active torsions:
REMARK  status: ('A' for Active; 'I' for Inactive)
REMARK    1  A    between atoms: C_4  and  S_8
REMARK    2  A    between atoms: S_8  and  N_11
REMARK    3  A    between atoms: C_14  and  C_17
REMARK    4  A    between atoms: N_19  and  C_20
REMARK    5  A    between atoms: C_20  and  C_21
REMARK    6  A    between atoms: C_21  and  C_22
REMARK    7  A    between atoms: C_25  and  S_28
REMARK    8  A    between atoms: S_28  and  N_31
REMARK                            x       y       z     vdW  Elec       q    Type
REMARK                         _______ _______ _______ _____ _____    ______ ____
ROOT
ATOM      1  C   UNL     1       7.179  -2.631   4.304  0.00  0.00    +0.216 C 
ATOM      2  O   UNL     1       8.290  -2.206   4.069  0.00  0.00    -0.276 OA
ATOM      3  N   UNL     1       7.024  -3.702   5.108  0.00  0.00    -0.315 N 
ATOM      4  H   UNL     1       6.136  -4.042   5.296  0.00  0.00    +0.149 HD
ENDROOT
BRANCH   1   8
ATOM      5  N   UNL     1       4.379  -1.079   1.535  0.00  0.00    -0.176 NA
ATOM      6  C   UNL     1       5.192  -0.084   2.249  0.00  0.00    +0.110 C 
ATOM      7  C   UNL     1       6.423  -0.782   2.835  0.00  0.00    +0.030 C 
ATOM      8  C   UNL     1       5.972  -1.963   3.699  0.00  0.00    +0.077 C 
ATOM      9  C   UNL     1       5.213  -2.970   2.832  0.00  0.00    +0.030 C 
ATOM     10  C   UNL     1       3.963  -2.294   2.248  0.00  0.00    +0.110 C 
BRANCH   5  11
ATOM     11  S   UNL     1       3.936  -0.832  -0.042  0.00  0.00    +0.064 S 
ATOM     12  O   UNL     1       3.677  -2.114  -0.597  0.00  0.00    -0.153 OA
ATOM     13  O   UNL     1       4.892   0.060  -0.597  0.00  0.00    -0.153 OA
BRANCH  11  17
ATOM     14  C   UNL     1      -0.017   1.378   0.010  0.00  0.00    +0.003 A 
ATOM     15  C   UNL     1       1.171   2.086   0.002  0.00  0.00    +0.022 A 
ATOM     16  C   UNL     1       2.378   1.411  -0.013  0.00  0.00    +0.069 A 
ATOM     17  C   UNL     1       2.398   0.028  -0.021  0.00  0.00    +0.142 A 
ATOM     18  C   UNL     1       1.209  -0.680  -0.013  0.00  0.00    +0.069 A 
ATOM     19  C   UNL     1       0.002  -0.004   0.002  0.00  0.00    +0.022 A 
ATOM     20 CL   UNL     1       1.233  -2.416  -0.023  0.00  0.00    -0.081 Cl
ATOM     21 CL   UNL     1       3.869   2.300  -0.024  0.00  0.00    -0.081 Cl
ENDBRANCH  11  17
ENDBRANCH   5  11
ENDBRANCH   1   8
BRANCH   3  22
ATOM     22  C   UNL     1       8.198  -4.352   5.697  0.00  0.00    +0.109 C 
BRANCH  22  23
ATOM     23  C   UNL     1       7.747  -5.532   6.560  0.00  0.00    +0.054 C 
BRANCH  23  24
ATOM     24  C   UNL     1       8.954  -6.201   7.166  0.00  0.00    -0.046 A 
ATOM     25  C   UNL     1       9.587  -7.228   6.491  0.00  0.00    +0.005 A 
ATOM     26  C   UNL     1      10.694  -7.841   7.047  0.00  0.00    +0.029 A 
ATOM     27  C   UNL     1      11.169  -7.427   8.278  0.00  0.00    +0.105 A 
ATOM     28  C   UNL     1      10.537  -6.399   8.952  0.00  0.00    +0.029 A 
ATOM     29  C   UNL     1       9.432  -5.783   8.394  0.00  0.00    +0.005 A 
BRANCH  27  30
ATOM     30  S   UNL     1      12.580  -8.209   8.986  0.00  0.00    +0.056 S 
ATOM     31  O   UNL     1      12.495  -8.005  10.390  0.00  0.00    -0.153 OA
ATOM     32  O   UNL     1      12.659  -9.505   8.409  0.00  0.00    -0.153 OA
BRANCH  30  33
ATOM     33  N   UNL     1      13.914  -7.377   8.467  0.00  0.00    -0.204 NA
ATOM     34  H   UNL     1      14.705  -7.332   9.026  0.00  0.00    +0.144 HD
ATOM     35  H   UNL     1      13.904  -6.935   7.604  0.00  0.00    +0.144 HD
ENDBRANCH  30  33
ENDBRANCH  27  30
ENDBRANCH  23  24
ENDBRANCH  22  23
ENDBRANCH   3  22
TORSDOF 8
