REMARK  Name = ZINC09515903
REMARK  7 active torsions:
REMARK  status: ('A' for Active; 'I' for Inactive)
REMARK    1  A    between atoms: C_7  and  N_11
REMARK    2  A    between atoms: C_8  and  C_9
REMARK    3  A    between atoms: C_12  and  C_14
REMARK    4  A    between atoms: C_14  and  S_15
REMARK    5  A    between atoms: S_15  and  C_16
REMARK    6  A    between atoms: C_19  and  C_22
REMARK    7  A    between atoms: N_20  and  N_21
REMARK                            x       y       z     vdW  Elec       q    Type
REMARK                         _______ _______ _______ _____ _____    ______ ____
ROOT
ATOM      1  N   UNL     1       1.143   1.898   0.001  0.00  0.00    -0.278 N 
ATOM      2  C   UNL     1      -0.014   1.209   0.009  0.00  0.00    +0.228 C 
ATOM      3  O   UNL     1       0.002  -0.004   0.002  0.00  0.00    -0.275 OA
ATOM      4  H   UNL     1       1.130   2.868   0.007  0.00  0.00    +0.155 HD
ENDROOT
BRANCH   1  11
ATOM      5  C   UNL     1       7.582  -0.782   0.366  0.00  0.00    +0.001 C 
ATOM      6  C   UNL     1       7.088   0.213  -0.682  0.00  0.00    +0.005 C 
ATOM      7  C   UNL     1       6.205   1.274  -0.034  0.00  0.00    +0.037 C 
ATOM      8  C   UNL     1       4.753   0.814  -0.036  0.00  0.00    -0.018 A 
ATOM      9  C   UNL     1       4.404  -0.491  -0.044  0.00  0.00    -0.004 A 
ATOM     10  S   UNL     1       2.632  -0.489  -0.026  0.00  0.00    -0.077 S 
ATOM     11  C   UNL     1       2.355   1.221  -0.014  0.00  0.00    +0.090 A 
ATOM     12  C   UNL     1       3.636   1.748  -0.029  0.00  0.00    +0.084 A 
ATOM     13  C   UNL     1       5.311  -1.681  -0.078  0.00  0.00    +0.043 C 
ATOM     14  C   UNL     1       6.401  -1.518   0.991  0.00  0.00    +0.005 C 
BRANCH  12  15
ATOM     15  C   UNL     1       3.854   3.163  -0.033  0.00  0.00    +0.102 C 
ATOM     16  N   UNL     1       4.027   4.285  -0.036  0.00  0.00    -0.191 NA
ENDBRANCH  12  15
ENDBRANCH   1  11
BRANCH   2  17
ATOM     17  C   UNL     1      -1.330   1.944   0.019  0.00  0.00    +0.173 C 
BRANCH  17  18
ATOM     18  S   UNL     1      -2.689   0.750   0.019  0.00  0.00    -0.075 S 
BRANCH  18  19
ATOM     19  C   UNL     1      -4.064   1.851   0.031  0.00  0.00    +0.209 A 
ATOM     20  N   UNL     1      -4.014   3.163   0.038  0.00  0.00    -0.121 NA
ATOM     21  N   UNL     1      -5.205   3.646   0.046  0.00  0.00    -0.132 NA
ATOM     22  C   UNL     1      -6.079   2.680   0.046  0.00  0.00    +0.154 A 
ATOM     23  N   UNL     1      -5.384   1.502   0.030  0.00  0.00    -0.228 N 
BRANCH  23  24
ATOM     24  N   UNL     1      -5.903   0.238   0.019  0.00  0.00    -0.295 N 
ATOM     25  H   UNL     1      -6.039  -0.105   0.958  0.00  0.00    +0.163 HD
ATOM     26  H   UNL     1      -6.764   0.205  -0.506  0.00  0.00    +0.163 HD
ENDBRANCH  23  24
BRANCH  22  27
ATOM     27  C   UNL     1      -7.579   2.832   0.054  0.00  0.00    +0.059 C 
ATOM     28  C   UNL     1      -8.147   4.239  -0.142  0.00  0.00    +0.012 C 
ATOM     29  C   UNL     1      -8.207   3.574   1.236  0.00  0.00    +0.012 C 
ENDBRANCH  22  27
ENDBRANCH  18  19
ENDBRANCH  17  18
ENDBRANCH   2  17
TORSDOF 7
