REMARK  Name = ZINC09001737
REMARK  7 active torsions:
REMARK  status: ('A' for Active; 'I' for Inactive)
REMARK    1  A    between atoms: C_1  and  C_2
REMARK    2  A    between atoms: C_4  and  C_8
REMARK    3  A    between atoms: N_6  and  C_7
REMARK    4  A    between atoms: C_13  and  C_16
REMARK    5  A    between atoms: C_19  and  C_22
REMARK    6  A    between atoms: C_22  and  C_23
REMARK    7  A    between atoms: C_22  and  C_24
REMARK                            x       y       z     vdW  Elec       q    Type
REMARK                         _______ _______ _______ _____ _____    ______ ____
ROOT
ATOM      1  C   UNL     1      -4.976   2.341   8.776  0.00  0.00    +0.270 C 
ATOM      2  O   UNL     1      -5.016   3.555   8.823  0.00  0.00    -0.268 OA
ATOM      3  N   UNL     1      -4.381   1.727   7.734  0.00  0.00    -0.259 N 
ATOM      4  C   UNL     1      -3.814   2.481   6.715  0.00  0.00    +0.165 A 
ATOM      5  N   UNL     1      -3.198   2.076   5.620  0.00  0.00    -0.225 NA
ATOM      6  C   UNL     1      -2.708   2.943   4.746  0.00  0.00    +0.080 A 
ATOM      7  C   UNL     1      -2.852   4.283   4.978  0.00  0.00    +0.076 A 
ATOM      8  S   UNL     1      -3.731   4.257   6.535  0.00  0.00    -0.060 S 
ATOM      9  H   UNL     1      -4.348   0.758   7.696  0.00  0.00    +0.157 HD
ENDROOT
BRANCH   1  13
ATOM     10  C   UNL     1      -7.358   0.934  13.022  0.00  0.00    +0.065 C 
ATOM     11  C   UNL     1      -6.617   0.942  11.710  0.00  0.00    +0.037 A 
ATOM     12  C   UNL     1      -6.229   2.036  11.013  0.00  0.00    +0.057 A 
ATOM     13  C   UNL     1      -5.579   1.539   9.859  0.00  0.00    +0.148 A 
ATOM     14  N   UNL     1      -5.608   0.223   9.938  0.00  0.00    -0.167 NA
ATOM     15  N   UNL     1      -6.211  -0.141  11.012  0.00  0.00    -0.271 N 
ATOM     16  C   UNL     1      -6.426  -1.530  11.423  0.00  0.00    +0.172 C 
ENDBRANCH   1  13
BRANCH   6  17
ATOM     17  C   UNL     1      -2.014   2.465   3.526  0.00  0.00    +0.001 A 
ATOM     18  C   UNL     1      -1.869   1.098   3.294  0.00  0.00    +0.010 A 
ATOM     19  C   UNL     1      -1.222   0.659   2.157  0.00  0.00    +0.004 A 
ATOM     20  C   UNL     1      -0.718   1.572   1.248  0.00  0.00    -0.045 A 
ATOM     21  C   UNL     1      -0.854   2.929   1.476  0.00  0.00    +0.004 A 
ATOM     22  C   UNL     1      -1.504   3.380   2.607  0.00  0.00    +0.010 A 
BRANCH  20  23
ATOM     23  C   UNL     1      -0.013   1.086   0.008  0.00  0.00    +0.013 C 
ATOM     24  C   UNL     1       1.423   1.615  -0.003  0.00  0.00    +0.012 C 
ATOM     25  C   UNL     1      -0.753   1.593  -1.232  0.00  0.00    +0.012 C 
ENDBRANCH  20  23
ENDBRANCH   6  17
TORSDOF 3
