REMARK  Name = ZINC32797424
REMARK  7 active torsions:
REMARK  status: ('A' for Active; 'I' for Inactive)
REMARK    1  A    between atoms: C_1  and  C_2
REMARK    2  A    between atoms: C_2  and  C_4
REMARK    3  A    between atoms: C_2  and  N_15
REMARK    4  A    between atoms: N_6  and  C_7
REMARK    5  A    between atoms: C_18  and  C_21
REMARK    6  A    between atoms: N_23  and  C_24
REMARK    7  A    between atoms: C_29  and  O_30
REMARK                            x       y       z     vdW  Elec       q    Type
REMARK                         _______ _______ _______ _____ _____    ______ ____
ROOT
ATOM      1  N   UNL     1      -4.920  -0.041  -0.722  0.00  0.00    +0.387 N 
ATOM      2  C   UNL     1      -5.059   0.943   0.359  0.00  0.00    -0.077 C 
ATOM      3  C   UNL     1      -3.810   1.826   0.411  0.00  0.00    -0.006 C 
ATOM      4  C   UNL     1      -2.579   0.948   0.651  0.00  0.00    +0.072 C 
ATOM      5  C   UNL     1      -2.484  -0.100  -0.462  0.00  0.00    -0.006 C 
ATOM      6  C   UNL     1      -3.772  -0.927  -0.488  0.00  0.00    -0.077 C 
ATOM      7  H   UNL     1      -4.733   0.510  -1.655  0.00  0.00    -0.081 HD
ENDROOT
BRANCH   4   8
ATOM      8  C   UNL     1      -1.339   1.804   0.643  0.00  0.00    +0.220 C 
ATOM      9  O   UNL     1      -1.430   3.000   0.463  0.00  0.00    -0.275 OA
ATOM     10  N   UNL     1      -0.130   1.241   0.837  0.00  0.00    -0.282 N 
ATOM     11  H   UNL     1      -0.039   0.148   0.916  0.00  0.00    +0.155 HD
BRANCH  10  12
ATOM     12  C   UNL     1       1.011   2.049   0.936  0.00  0.00    +0.075 A 
ATOM     13  C   UNL     1       0.893   3.372   1.337  0.00  0.00    +0.027 A 
ATOM     14  C   UNL     1       2.020   4.166   1.434  0.00  0.00    +0.002 A 
ATOM     15  C   UNL     1       3.265   3.646   1.134  0.00  0.00    +0.004 A 
ATOM     16  C   UNL     1       3.390   2.328   0.735  0.00  0.00    +0.047 A 
ATOM     17  C   UNL     1       2.266   1.524   0.639  0.00  0.00    +0.138 A 
BRANCH  17  18
ATOM     18  O   UNL     1       2.388   0.226   0.252  0.00  0.00    -0.505 OA
ATOM     19  H   UNL     1       3.380  -0.187   0.018  0.00  0.00    +0.292 HD
ENDBRANCH  17  18
ENDBRANCH  10  12
ENDBRANCH   4   8
BRANCH   1  21
ATOM     20  C   UNL     1      -5.973  -1.828  -2.023  0.00  0.00    -0.004 C 
ATOM     21  C   UNL     1      -6.156  -0.816  -0.891  0.00  0.00    +0.016 C 
BRANCH  21  22
ATOM     22  C   UNL     1      -6.471  -1.545   0.390  0.00  0.00    +0.203 C 
ATOM     23  O   UNL     1      -5.665  -1.556   1.296  0.00  0.00    -0.277 OA
ATOM     24  N   UNL     1      -7.649  -2.186   0.528  0.00  0.00    -0.285 N 
ATOM     25  H   UNL     1      -8.355  -2.227  -0.315  0.00  0.00    +0.155 HD
BRANCH  24  26
ATOM     26  C   UNL     1      -7.974  -2.799   1.744  0.00  0.00    +0.069 A 
ATOM     27  C   UNL     1      -6.967  -3.230   2.597  0.00  0.00    +0.027 A 
ATOM     28  C   UNL     1      -7.290  -3.835   3.796  0.00  0.00    +0.022 A 
ATOM     29  C   UNL     1      -8.616  -4.012   4.149  0.00  0.00    +0.044 A 
ATOM     30  C   UNL     1      -9.623  -3.584   3.303  0.00  0.00    +0.060 A 
ATOM     31  C   UNL     1      -9.306  -2.973   2.103  0.00  0.00    +0.146 A 
ATOM     32  F   UNL     1     -10.290  -2.550   1.279  0.00  0.00    -0.203 F 
ATOM     33 CL   UNL     1      -9.017  -4.773   5.657  0.00  0.00    -0.083 Cl
ENDBRANCH  24  26
ENDBRANCH  21  22
ENDBRANCH   1  21
TORSDOF 6
