REMARK  Name = ZINC10243995
REMARK  7 active torsions:
REMARK  status: ('A' for Active; 'I' for Inactive)
REMARK    1  A    between atoms: C_1  and  C_2
REMARK    2  A    between atoms: N_4  and  C_5
REMARK    3  A    between atoms: C_8  and  N_11
REMARK    4  A    between atoms: C_12  and  C_14
REMARK    5  A    between atoms: C_14  and  S_15
REMARK    6  A    between atoms: S_15  and  C_16
REMARK    7  A    between atoms: N_30  and  C_31
REMARK                            x       y       z     vdW  Elec       q    Type
REMARK                         _______ _______ _______ _____ _____    ______ ____
ROOT
ATOM      1  C   UNL     1      -3.002 -10.989  -0.249  0.00  0.00    +0.177 A 
ATOM      2  N   UNL     1      -1.762 -11.414  -0.170  0.00  0.00    -0.221 NA
ATOM      3  C   UNL     1      -1.475 -12.725  -0.215  0.00  0.00    +0.104 A 
ATOM      4  C   UNL     1      -0.222 -13.492  -0.153  0.00  0.00    +0.026 A 
ATOM      5  C   UNL     1       1.119 -13.131  -0.024  0.00  0.00    +0.012 A 
ATOM      6  C   UNL     1       2.085 -14.098   0.004  0.00  0.00    +0.001 A 
ATOM      7  C   UNL     1       1.741 -15.438  -0.095  0.00  0.00    +0.002 A 
ATOM      8  C   UNL     1       0.423 -15.817  -0.224  0.00  0.00    +0.026 A 
ATOM      9  C   UNL     1      -0.578 -14.848  -0.254  0.00  0.00    +0.049 A 
ATOM     10  N   UNL     1      -1.949 -14.928  -0.371  0.00  0.00    -0.349 N 
ATOM     11  H   UNL     1      -2.453 -15.752  -0.455  0.00  0.00    +0.166 HD
ATOM     12  C   UNL     1      -2.503 -13.657  -0.349  0.00  0.00    +0.132 A 
ATOM     13  C   UNL     1      -3.830 -13.187  -0.434  0.00  0.00    +0.283 A 
ATOM     14  O   UNL     1      -4.760 -13.967  -0.551  0.00  0.00    -0.265 OA
ATOM     15  N   UNL     1      -4.050 -11.856  -0.376  0.00  0.00    -0.251 N 
ENDROOT
BRANCH  15  16
ATOM     16  C   UNL     1      -5.359 -11.362  -0.452  0.00  0.00    +0.087 A 
ATOM     17  C   UNL     1      -5.918 -11.060  -1.686  0.00  0.00    +0.029 A 
ATOM     18  C   UNL     1      -7.209 -10.573  -1.758  0.00  0.00    +0.002 A 
ATOM     19  C   UNL     1      -7.945 -10.385  -0.603  0.00  0.00    +0.003 A 
ATOM     20  C   UNL     1      -7.393 -10.685   0.629  0.00  0.00    +0.040 A 
ATOM     21  C   UNL     1      -6.103 -11.179   0.708  0.00  0.00    +0.147 A 
ATOM     22  F   UNL     1      -5.566 -11.477   1.911  0.00  0.00    -0.203 F 
ENDBRANCH  15  16
BRANCH   1  23
ATOM     23  S   UNL     1      -3.323  -9.257  -0.183  0.00  0.00    -0.078 S 
BRANCH  23  24
ATOM     24  C   UNL     1      -1.678  -8.512  -0.017  0.00  0.00    +0.173 C 
BRANCH  24  26
ATOM     25  N   UNL     1      -0.710  -6.244   0.177  0.00  0.00    -0.285 N 
ATOM     26  C   UNL     1      -1.810  -7.012   0.052  0.00  0.00    +0.227 C 
ATOM     27  O   UNL     1      -2.906  -6.497  -0.006  0.00  0.00    -0.275 OA
ATOM     28  H   UNL     1       0.160  -6.657   0.291  0.00  0.00    +0.155 HD
BRANCH  25  32
ATOM     29  C   UNL     1      -1.047  -2.089   0.076  0.00  0.00    +0.033 A 
ATOM     30  C   UNL     1       0.068  -2.709  -0.474  0.00  0.00    +0.025 A 
ATOM     31  C   UNL     1       0.179  -4.084  -0.440  0.00  0.00    +0.025 A 
ATOM     32  C   UNL     1      -0.823  -4.848   0.143  0.00  0.00    +0.034 A 
ATOM     33  C   UNL     1      -1.938  -4.228   0.693  0.00  0.00    +0.025 A 
ATOM     34  C   UNL     1      -2.047  -2.853   0.664  0.00  0.00    +0.025 A 
BRANCH  29  38
ATOM     35  C   UNL     1      -1.766   1.468   1.081  0.00  0.00    +0.109 C 
ATOM     36  C   UNL     1      -1.737  -0.038   1.069  0.00  0.00    +0.214 C 
ATOM     37  O   UNL     1      -2.232  -0.662   1.984  0.00  0.00    -0.276 OA
ATOM     38  N   UNL     1      -1.161  -0.693   0.042  0.00  0.00    -0.286 N 
ATOM     39  H   UNL     1      -0.824  -0.198  -0.722  0.00  0.00    +0.155 HD
ENDBRANCH  29  38
ENDBRANCH  25  32
ENDBRANCH  24  26
ENDBRANCH  23  24
ENDBRANCH   1  23
TORSDOF 6
