REMARK  Name = ZINC25391834
REMARK  7 active torsions:
REMARK  status: ('A' for Active; 'I' for Inactive)
REMARK    1  A    between atoms: C_1  and  C_2
REMARK    2  A    between atoms: C_2  and  C_3
REMARK    3  A    between atoms: C_3  and  N_4
REMARK    4  A    between atoms: C_5  and  C_7
REMARK    5  A    between atoms: C_7  and  N_8
REMARK    6  A    between atoms: C_9  and  C_11
REMARK    7  A    between atoms: C_16  and  C_17
REMARK                            x       y       z     vdW  Elec       q    Type
REMARK                         _______ _______ _______ _____ _____    ______ ____
ROOT
ATOM      1  C   UNL     1      -4.918  -0.403   0.704  0.00  0.00    +0.082 A 
ATOM      2  C   UNL     1      -5.836  -1.395   0.429  0.00  0.00    +0.118 A 
ATOM      3  N   UNL     1      -5.237  -2.308  -0.349  0.00  0.00    -0.283 N 
ATOM      4  H   UNL     1      -5.793  -3.194  -0.686  0.00  0.00    +0.188 HD
ATOM      5  N   UNL     1      -3.917  -1.920  -0.599  0.00  0.00    -0.173 NA
ATOM      6  C   UNL     1      -3.679  -0.784   0.018  0.00  0.00    +0.105 A 
ENDROOT
BRANCH   6   7
ATOM      7  C   UNL     1      -2.403  -0.029   0.016  0.00  0.00    +0.007 A 
ATOM      8  C   UNL     1      -2.416   1.365   0.026  0.00  0.00    +0.014 A 
ATOM      9  C   UNL     1      -1.228   2.065   0.019  0.00  0.00    +0.050 A 
ATOM     10  C   UNL     1      -0.017   1.387   0.010  0.00  0.00    +0.162 A 
ATOM     11  C   UNL     1       0.002  -0.004   0.002  0.00  0.00    +0.163 A 
ATOM     12  C   UNL     1      -1.188  -0.711   0.004  0.00  0.00    +0.059 A 
ATOM     13  O   UNL     1       1.181  -0.685  -0.006  0.00  0.00    -0.485 OA
ATOM     14  C   UNL     1       2.347   0.054  -0.387  0.00  0.00    +0.270 C 
ATOM     15  C   UNL     1       2.335   1.391   0.365  0.00  0.00    +0.270 C 
ATOM     16  O   UNL     1       1.144   2.098   0.002  0.00  0.00    -0.485 OA
ENDBRANCH   6   7
BRANCH   1  18
ATOM     17  N   UNL     1      -6.339   1.018   2.094  0.00  0.00    -0.303 N 
ATOM     18  C   UNL     1      -5.137   0.801   1.523  0.00  0.00    +0.248 C 
ATOM     19  O   UNL     1      -4.235   1.600   1.685  0.00  0.00    -0.270 OA
ATOM     20  H   UNL     1      -7.155   0.295   1.948  0.00  0.00    +0.150 HD
BRANCH  17  21
ATOM     21  C   UNL     1      -6.558   2.215   2.909  0.00  0.00    +0.200 C 
BRANCH  21  23
ATOM     22  N   UNL     1      -8.403   3.231   4.206  0.00  0.00    -0.314 N 
ATOM     23  C   UNL     1      -7.973   2.219   3.427  0.00  0.00    +0.230 C 
ATOM     24  O   UNL     1      -8.725   1.310   3.143  0.00  0.00    -0.274 OA
ATOM     25  H   UNL     1      -7.721   4.055   4.463  0.00  0.00    +0.149 HD
BRANCH  22  26
ATOM     26  C   UNL     1      -9.779   3.235   4.709  0.00  0.00    +0.104 C 
BRANCH  26  28
ATOM     27  C   UNL     1     -11.444   4.489   6.086  0.00  0.00    +0.005 C 
ATOM     28  C   UNL     1     -10.007   4.485   5.561  0.00  0.00    +0.015 C 
ENDBRANCH  26  28
ENDBRANCH  22  26
ENDBRANCH  21  23
ENDBRANCH  17  21
ENDBRANCH   1  18
TORSDOF 6
