REMARK  Name = ZINC67606728
REMARK  5 active torsions:
REMARK  status: ('A' for Active; 'I' for Inactive)
REMARK    1  A    between atoms: C_3  and  C_16
REMARK    2  A    between atoms: C_5  and  N_7
REMARK    3  A    between atoms: C_8  and  C_10
REMARK    4  A    between atoms: C_16  and  N_17
REMARK    5  A    between atoms: N_20  and  C_21
REMARK                            x       y       z     vdW  Elec       q    Type
REMARK                         _______ _______ _______ _____ _____    ______ ____
ROOT
ATOM      1  C   UNL     1       3.648   2.188  -0.404  0.00  0.00    +0.141 C 
ENDROOT
BRANCH   1   4
ATOM      2  C   UNL     1       0.004   1.379   0.172  0.00  0.00    +0.002 A 
ATOM      3  C   UNL     1       1.178   2.086  -0.013  0.00  0.00    +0.005 A 
ATOM      4  C   UNL     1       2.371   1.414  -0.202  0.00  0.00    -0.029 A 
ATOM      5  C   UNL     1       2.394   0.033  -0.205  0.00  0.00    +0.028 A 
ATOM      6  C   UNL     1       1.217  -0.680  -0.018  0.00  0.00    +0.034 A 
ATOM      7  C   UNL     1       0.020  -0.002   0.170  0.00  0.00    +0.023 A 
BRANCH   6   8
ATOM      8  N   UNL     1       1.237  -2.080  -0.021  0.00  0.00    -0.283 N 
ATOM      9  C   UNL     1       2.311  -2.739   0.458  0.00  0.00    +0.246 C 
ATOM     10  O   UNL     1       3.217  -2.125   0.978  0.00  0.00    -0.273 OA
ATOM     11  H   UNL     1       0.479  -2.575  -0.368  0.00  0.00    +0.155 HD
BRANCH   9  12
ATOM     12  C   UNL     1       2.384  -4.240   0.346  0.00  0.00    +0.204 C 
ATOM     13  C   UNL     1       1.272  -4.884   1.202  0.00  0.00    +0.043 C 
ATOM     14  C   UNL     1       1.996  -6.118   1.808  0.00  0.00    +0.031 C 
ATOM     15  C   UNL     1       3.430  -5.560   1.984  0.00  0.00    +0.161 C 
ATOM     16  O   UNL     1       3.643  -4.704   0.849  0.00  0.00    -0.367 OA
ENDBRANCH   9  12
ENDBRANCH   6   8
ENDBRANCH   1   4
BRANCH   1  17
ATOM     17  N   UNL     1       4.277   2.441   0.895  0.00  0.00    -0.295 N 
ATOM     18  C   UNL     1       5.438   3.122   0.960  0.00  0.00    +0.300 C 
ATOM     19  O   UNL     1       5.963   3.527  -0.059  0.00  0.00    -0.253 OA
ATOM     20  N   UNL     1       6.017   3.354   2.155  0.00  0.00    -0.294 N 
ATOM     21  H   UNL     1       3.858   2.117   1.708  0.00  0.00    +0.151 HD
ATOM     22  H   UNL     1       5.598   3.030   2.967  0.00  0.00    +0.151 HD
BRANCH  20  23
ATOM     23  C   UNL     1       7.279   4.095   2.225  0.00  0.00    +0.037 C 
ATOM     24  C   UNL     1       7.085   5.491   1.631  0.00  0.00    +0.029 C 
ATOM     25  C   UNL     1       8.403   6.265   1.706  0.00  0.00    -0.008 C 
ATOM     26  C   UNL     1       8.840   6.388   3.167  0.00  0.00    +0.007 C 
ATOM     27  C   UNL     1       9.034   4.992   3.760  0.00  0.00    -0.008 C 
ATOM     28  C   UNL     1       7.716   4.218   3.687  0.00  0.00    +0.029 C 
ATOM     29  C   UNL     1      10.109   4.245   2.968  0.00  0.00    +0.007 C 
ATOM     30  C   UNL     1       9.672   4.122   1.507  0.00  0.00    -0.008 C 
ATOM     31  C   UNL     1       9.477   5.518   0.913  0.00  0.00    +0.007 C 
ATOM     32  C   UNL     1       8.354   3.348   1.433  0.00  0.00    +0.029 C 
ENDBRANCH  20  23
ENDBRANCH   1  17
TORSDOF 5
