REMARK  Name = ZINC32437897
REMARK  8 active torsions:
REMARK  status: ('A' for Active; 'I' for Inactive)
REMARK    1  A    between atoms: C_1  and  C_2
REMARK    2  A    between atoms: C_3  and  N_27
REMARK    3  A    between atoms: C_7  and  S_8
REMARK    4  A    between atoms: S_8  and  N_11
REMARK    5  A    between atoms: N_11  and  C_12
REMARK    6  A    between atoms: C_12  and  C_13
REMARK    7  A    between atoms: C_18  and  O_19
REMARK    8  A    between atoms: O_19  and  C_20
REMARK                            x       y       z     vdW  Elec       q    Type
REMARK                         _______ _______ _______ _____ _____    ______ ____
ROOT
ATOM      1  N   UNL     1      -3.726  -1.473  -1.427  0.00  0.00    -0.185 NA
ATOM      2  H   UNL     1      -2.942  -1.231  -2.160  0.00  0.00    +0.148 HD
ENDROOT
BRANCH   1   3
ATOM      3  S   UNL     1      -5.290  -1.026  -1.739  0.00  0.00    +0.059 S 
ATOM      4  O   UNL     1      -5.311  -0.523  -3.068  0.00  0.00    -0.153 OA
ATOM      5  O   UNL     1      -6.112  -2.107  -1.320  0.00  0.00    -0.153 OA
BRANCH   3  12
ATOM      6  C   UNL     1      -3.916   1.665  -1.876  0.00  0.00    +0.048 C 
ATOM      7  C   UNL     1      -4.981   1.525  -0.819  0.00  0.00    +0.006 A 
ATOM      8  C   UNL     1      -5.278   2.592   0.009  0.00  0.00    +0.131 A 
ATOM      9  C   UNL     1      -6.252   2.462   0.981  0.00  0.00    +0.033 A 
ATOM     10  C   UNL     1      -6.932   1.267   1.123  0.00  0.00    +0.004 A 
ATOM     11  C   UNL     1      -6.638   0.202   0.293  0.00  0.00    +0.029 A 
ATOM     12  C   UNL     1      -5.664   0.332  -0.680  0.00  0.00    +0.110 A 
BRANCH   8  13
ATOM     13  N   UNL     1      -4.550   3.872  -0.144  0.00  0.00    +0.057 N 
ATOM     14  O   UNL     1      -4.717   4.767   0.665  0.00  0.00    -0.126 OA
ATOM     15  O   UNL     1      -3.784   4.029  -1.077  0.00  0.00    -0.126 OA
ENDBRANCH   8  13
ENDBRANCH   3  12
ENDBRANCH   1   3
BRANCH   1  16
ATOM     16  C   UNL     1      -3.359  -1.983  -0.104  0.00  0.00    +0.146 C 
BRANCH  16  17
ATOM     17  C   UNL     1      -2.029  -2.686  -0.187  0.00  0.00    +0.030 A 
ATOM     18  C   UNL     1      -1.968  -4.066  -0.261  0.00  0.00    +0.011 A 
ATOM     19  C   UNL     1      -0.721  -4.671  -0.336  0.00  0.00    +0.020 A 
ATOM     20  C   UNL     1       0.413  -3.883  -0.334  0.00  0.00    +0.114 A 
ATOM     21  N   UNL     1       0.323  -2.569  -0.268  0.00  0.00    -0.221 NA
ATOM     22  C   UNL     1      -0.847  -1.956  -0.190  0.00  0.00    +0.225 A 
BRANCH  22  23
ATOM     23  O   UNL     1      -0.893  -0.602  -0.118  0.00  0.00    -0.438 OA
BRANCH  23  24
ATOM     24  C   UNL     1       0.275   0.083  -0.237  0.00  0.00    +0.133 A 
ATOM     25  C   UNL     1       0.951   0.098  -1.449  0.00  0.00    +0.046 A 
ATOM     26  C   UNL     1       2.138   0.795  -1.569  0.00  0.00    +0.006 A 
ATOM     27  C   UNL     1       2.653   1.477  -0.482  0.00  0.00    +0.038 A 
ATOM     28  C   UNL     1       1.981   1.464   0.728  0.00  0.00    +0.127 A 
ATOM     29  C   UNL     1       0.792   0.768   0.852  0.00  0.00    +0.084 A 
ATOM     30  F   UNL     1       2.487   2.132   1.788  0.00  0.00    -0.205 F 
ENDBRANCH  23  24
ENDBRANCH  22  23
ENDBRANCH  16  17
ENDBRANCH   1  16
TORSDOF 7
