REMARK  Name = ZINC14056530
REMARK  10 active torsions:
REMARK  status: ('A' for Active; 'I' for Inactive)
REMARK    1  A    between atoms: C_1  and  C_2
REMARK    2  A    between atoms: C_5  and  C_34
REMARK    3  A    between atoms: C_6  and  S_8
REMARK    4  A    between atoms: S_8  and  C_9
REMARK    5  A    between atoms: C_9  and  C_10
REMARK    6  A    between atoms: C_15  and  C_30
REMARK    7  A    between atoms: C_16  and  C_18
REMARK    8  A    between atoms: N_20  and  N_21
REMARK    9  A    between atoms: C_22  and  C_24
REMARK   10  A    between atoms: C_28  and  C_29
REMARK                            x       y       z     vdW  Elec       q    Type
REMARK                         _______ _______ _______ _____ _____    ______ ____
ROOT
ATOM      1  C   UNL     1      -2.199  -3.537   0.005  0.00  0.00    +0.122 A 
ATOM      2  N   UNL     1      -2.737  -3.918  -1.171  0.00  0.00    -0.337 N 
ATOM      3  H   UNL     1      -2.340  -3.615  -2.003  0.00  0.00    +0.168 HD
ATOM      4  C   UNL     1      -3.830  -4.722  -1.202  0.00  0.00    +0.092 A 
ATOM      5  C   UNL     1      -4.427  -5.176  -0.014  0.00  0.00    +0.075 A 
ATOM      6  C   UNL     1      -5.547  -6.000  -0.172  0.00  0.00    -0.017 A 
ATOM      7  C   UNL     1      -5.966  -6.293  -1.437  0.00  0.00    +0.081 A 
ATOM      8  S   UNL     1      -4.792  -5.414  -2.452  0.00  0.00    -0.066 S 
ATOM      9  C   UNL     1      -6.274  -6.551   1.028  0.00  0.00    +0.046 C 
ATOM     10  C   UNL     1      -3.774  -4.712   1.235  0.00  0.00    +0.282 A 
ATOM     11  O   UNL     1      -4.210  -5.047   2.324  0.00  0.00    -0.265 OA
ATOM     12  N   UNL     1      -2.693  -3.922   1.148  0.00  0.00    -0.195 NA
ENDROOT
BRANCH   7  13
ATOM     13  C   UNL     1      -7.100  -7.122  -1.857  0.00  0.00    +0.267 C 
ATOM     14  O   UNL     1      -7.807  -7.654  -1.021  0.00  0.00    -0.268 OA
ATOM     15  N   UNL     1      -7.358  -7.296  -3.168  0.00  0.00    -0.230 N 
ATOM     16  H   UNL     1      -6.794  -6.873  -3.834  0.00  0.00    +0.173 HD
BRANCH  15  17
ATOM     17  N   UNL     1      -8.441  -8.089  -3.569  0.00  0.00    -0.230 N 
ATOM     18  C   UNL     1      -8.700  -8.264  -4.880  0.00  0.00    +0.263 C 
ATOM     19  O   UNL     1      -7.993  -7.732  -5.715  0.00  0.00    -0.269 OA
ATOM     20  H   UNL     1      -9.005  -8.513  -2.903  0.00  0.00    +0.173 HD
BRANCH  18  21
ATOM     21  C   UNL     1      -9.839  -9.098  -5.302  0.00  0.00    +0.079 A 
ATOM     22  C   UNL     1     -10.786  -9.814  -4.435  0.00  0.00    +0.054 A 
ATOM     23  C   UNL     1     -11.647 -10.430  -5.259  0.00  0.00    +0.196 A 
ATOM     24  O   UNL     1     -11.307 -10.164  -6.529  0.00  0.00    -0.467 OA
ATOM     25  C   UNL     1     -10.232  -9.371  -6.580  0.00  0.00    +0.114 A 
ATOM     26  C   UNL     1      -9.567  -8.867  -7.834  0.00  0.00    +0.087 C 
ENDBRANCH  18  21
ENDBRANCH  15  17
ENDBRANCH   7  13
BRANCH   1  27
ATOM     27  C   UNL     1      -0.984  -2.644  -0.002  0.00  0.00    +0.148 C 
BRANCH  27  28
ATOM     28  S   UNL     1      -1.510  -0.908   0.012  0.00  0.00    -0.117 S 
BRANCH  28  34
ATOM     29  C   UNL     1       3.718  -0.699  -0.037  0.00  0.00    +0.044 C 
ATOM     30  C   UNL     1       2.400   0.032  -0.021  0.00  0.00    -0.049 A 
ATOM     31  C   UNL     1       2.377   1.415  -0.013  0.00  0.00    +0.004 A 
ATOM     32  C   UNL     1       1.171   2.090   0.002  0.00  0.00    +0.005 A 
ATOM     33  C   UNL     1      -0.017   1.385   0.010  0.00  0.00    -0.037 A 
ATOM     34  C   UNL     1       0.002  -0.004   0.002  0.00  0.00    +0.011 A 
ATOM     35  C   UNL     1       1.217  -0.679  -0.013  0.00  0.00    +0.018 A 
ATOM     36  C   UNL     1      -1.331   2.122   0.020  0.00  0.00    +0.045 C 
ENDBRANCH  28  34
ENDBRANCH  27  28
ENDBRANCH   1  27
TORSDOF 6
