REMARK  Name = ZINC07175933
REMARK  10 active torsions:
REMARK  status: ('A' for Active; 'I' for Inactive)
REMARK    1  A    between atoms: C_1  and  N_2
REMARK    2  A    between atoms: N_2  and  C_3
REMARK    3  A    between atoms: N_2  and  C_4
REMARK    4  A    between atoms: C_7  and  C_13
REMARK    5  A    between atoms: C_9  and  N_10
REMARK    6  A    between atoms: C_13  and  O_15
REMARK    7  A    between atoms: O_15  and  C_16
REMARK    8  A    between atoms: C_16  and  C_17
REMARK    9  A    between atoms: N_19  and  C_20
REMARK   10  A    between atoms: C_23  and  N_26
REMARK                            x       y       z     vdW  Elec       q    Type
REMARK                         _______ _______ _______ _____ _____    ______ ____
ROOT
ATOM      1  C   UNL     1       2.378   1.144   0.179  0.00  0.00    +0.328 C 
ENDROOT
BRANCH   1   2
ATOM      2  C   UNL     1       3.572   2.063   0.174  0.00  0.00    +0.255 C 
ATOM      3  O   UNL     1       3.423   3.252   0.357  0.00  0.00    -0.272 OA
ATOM      4  N   UNL     1       4.806   1.563  -0.035  0.00  0.00    -0.283 N 
ATOM      5  H   UNL     1       4.935   0.604  -0.108  0.00  0.00    +0.155 HD
BRANCH   4   6
ATOM      6  C   UNL     1       5.903   2.428  -0.147  0.00  0.00    +0.034 A 
ATOM      7  C   UNL     1       6.942   2.123  -1.016  0.00  0.00    +0.025 A 
ATOM      8  C   UNL     1       8.021   2.977  -1.130  0.00  0.00    +0.025 A 
ATOM      9  C   UNL     1       8.071   4.137  -0.367  0.00  0.00    +0.030 A 
ATOM     10  C   UNL     1       7.034   4.439   0.506  0.00  0.00    +0.025 A 
ATOM     11  C   UNL     1       5.954   3.587   0.616  0.00  0.00    +0.025 A 
BRANCH   9  12
ATOM     12  N   UNL     1       9.166   5.000  -0.479  0.00  0.00    -0.330 N 
ATOM     13  C   UNL     1       8.743   6.333  -0.980  0.00  0.00    +0.105 C 
ATOM     14  C   UNL     1       9.907   7.260  -0.545  0.00  0.00    +0.020 C 
ATOM     15  C   UNL     1      10.301   6.695   0.838  0.00  0.00    +0.020 C 
ATOM     16  C   UNL     1       9.786   5.244   0.841  0.00  0.00    +0.105 C 
ENDBRANCH   9  12
ENDBRANCH   4   6
ENDBRANCH   1   2
BRANCH   1  17
ATOM     17  O   UNL     1       1.173   1.917   0.423  0.00  0.00    -0.452 OA
BRANCH  17  18
ATOM     18  C   UNL     1       0.009   1.241   0.459  0.00  0.00    +0.340 C 
ATOM     19  O   UNL     1      -0.000   0.037   0.290  0.00  0.00    -0.245 OA
BRANCH  18  23
ATOM     20  C   UNL     1      -3.624   3.318   1.142  0.00  0.00    +0.060 A 
ATOM     21  C   UNL     1      -2.418   4.013   1.110  0.00  0.00    +0.026 A 
ATOM     22  C   UNL     1      -1.246   3.345   0.895  0.00  0.00    +0.017 A 
ATOM     23  C   UNL     1      -1.255   1.961   0.696  0.00  0.00    +0.061 A 
ATOM     24  C   UNL     1      -2.466   1.261   0.727  0.00  0.00    +0.049 A 
ATOM     25  C   UNL     1      -3.643   1.939   0.949  0.00  0.00    +0.148 A 
BRANCH  20  27
ATOM     26  C   UNL     1      -4.790   4.687   2.666  0.00  0.00    +0.129 C 
ATOM     27  N   UNL     1      -4.813   4.003   1.365  0.00  0.00    -0.334 N 
ATOM     28  C   UNL     1      -5.088   4.950   0.277  0.00  0.00    +0.129 C 
ENDBRANCH  20  27
BRANCH  25  29
ATOM     29  N   UNL     1      -4.926   1.204   0.984  0.00  0.00    +0.058 N 
ATOM     30  O   UNL     1      -4.942  -0.003   0.815  0.00  0.00    -0.126 OA
ATOM     31  O   UNL     1      -5.968   1.804   1.180  0.00  0.00    -0.126 OA
ENDBRANCH  25  29
ENDBRANCH  18  23
ENDBRANCH  17  18
ENDBRANCH   1  17
TORSDOF 8
