REMARK  Name = ZINC47348307
REMARK  8 active torsions:
REMARK  status: ('A' for Active; 'I' for Inactive)
REMARK    1  A    between atoms: C_1  and  C_2
REMARK    2  A    between atoms: C_3  and  C_11
REMARK    3  A    between atoms: C_7  and  N_8
REMARK    4  A    between atoms: C_11  and  N_12
REMARK    5  A    between atoms: C_15  and  C_19
REMARK    6  A    between atoms: C_15  and  C_20
REMARK    7  A    between atoms: C_23  and  O_26
REMARK    8  A    between atoms: O_26  and  C_27
REMARK                            x       y       z     vdW  Elec       q    Type
REMARK                         _______ _______ _______ _____ _____    ______ ____
ROOT
ATOM      1  N   UNL     1       0.428   0.720  -2.958  0.00  0.00    -0.220 N 
ATOM      2  C   UNL     1       0.773   1.981  -2.628  0.00  0.00    +0.251 C 
ATOM      3  O   UNL     1       0.200   2.719  -1.856  0.00  0.00    -0.272 OA
ATOM      4  C   UNL     1       2.028   2.283  -3.423  0.00  0.00    +0.135 C 
ATOM      5  N   UNL     1       2.267   1.042  -4.179  0.00  0.00    -0.281 N 
ATOM      6  C   UNL     1       1.285   0.188  -3.837  0.00  0.00    +0.310 C 
ATOM      7  O   UNL     1       1.185  -0.939  -4.280  0.00  0.00    -0.252 OA
ATOM      8  C   UNL     1       3.201   2.577  -2.486  0.00  0.00    +0.047 C 
ATOM      9  H   UNL     1       2.993   0.872  -4.800  0.00  0.00    +0.152 HD
ENDROOT
BRANCH   4  10
ATOM     10  C   UNL     1       1.795   3.439  -4.362  0.00  0.00    -0.015 A 
ATOM     11  C   UNL     1       0.893   4.431  -4.025  0.00  0.00    +0.010 A 
ATOM     12  C   UNL     1       0.677   5.491  -4.884  0.00  0.00    +0.046 A 
ATOM     13  C   UNL     1       1.368   5.560  -6.085  0.00  0.00    +0.127 A 
ATOM     14  C   UNL     1       2.273   4.564  -6.421  0.00  0.00    +0.046 A 
ATOM     15  C   UNL     1       2.489   3.509  -5.556  0.00  0.00    +0.010 A 
BRANCH  13  16
ATOM     16  O   UNL     1       1.157   6.602  -6.932  0.00  0.00    -0.434 OA
BRANCH  16  17
ATOM     17  C   UNL     1       1.903   6.608  -8.151  0.00  0.00    +0.541 C 
ATOM     18  F   UNL     1       3.271   6.630  -7.861  0.00  0.00    -0.166 F 
ATOM     19  F   UNL     1       1.601   5.458  -8.888  0.00  0.00    -0.166 F 
ENDBRANCH  16  17
ENDBRANCH  13  16
ENDBRANCH   4  10
BRANCH   1  20
ATOM     20  C   UNL     1      -0.737   0.018  -2.415  0.00  0.00    +0.153 C 
BRANCH  20  23
ATOM     21  C   UNL     1      -0.525   1.450   0.086  0.00  0.00    +0.046 C 
ATOM     22  C   UNL     1      -0.240  -0.030   0.038  0.00  0.00    -0.016 A 
ATOM     23  C   UNL     1      -0.341  -0.715  -1.158  0.00  0.00    -0.025 A 
ATOM     24  C   UNL     1      -0.080  -2.071  -1.202  0.00  0.00    +0.005 A 
ATOM     25  C   UNL     1       0.283  -2.743  -0.050  0.00  0.00    +0.003 A 
ATOM     26  C   UNL     1       0.384  -2.058   1.147  0.00  0.00    +0.033 A 
ATOM     27  C   UNL     1       0.127  -0.700   1.190  0.00  0.00    +0.129 A 
BRANCH  27  28
ATOM     28  N   UNL     1       0.241   0.035   2.470  0.00  0.00    +0.057 N 
ATOM     29  O   UNL     1       0.674   1.163   2.482  0.00  0.00    -0.126 OA
ATOM     30  O   UNL     1      -0.099  -0.494   3.502  0.00  0.00    -0.126 OA
ENDBRANCH  27  28
ENDBRANCH  20  23
ENDBRANCH   1  20
TORSDOF 6
