REMARK  Name = ZINC06923132
REMARK  5 active torsions:
REMARK  status: ('A' for Active; 'I' for Inactive)
REMARK    1  A    between atoms: C_3  and  N_19
REMARK    2  A    between atoms: C_6  and  N_7
REMARK    3  A    between atoms: C_8  and  C_10
REMARK    4  A    between atoms: C_10  and  N_11
REMARK    5  A    between atoms: N_11  and  C_12
REMARK                            x       y       z     vdW  Elec       q    Type
REMARK                         _______ _______ _______ _____ _____    ______ ____
ROOT
ATOM      1  N   UNL     1       1.237  -2.079  -0.021  0.00  0.00    -0.284 N 
ATOM      2  C   UNL     1       2.410  -2.734  -0.137  0.00  0.00    +0.234 C 
ATOM      3  O   UNL     1       3.452  -2.114  -0.144  0.00  0.00    -0.274 OA
ATOM      4  H   UNL     1       0.409  -2.578   0.062  0.00  0.00    +0.155 HD
ENDROOT
BRANCH   1  10
ATOM      5  C   UNL     1       2.137   0.031  -0.774  0.00  0.00    +0.025 A 
ATOM      6  C   UNL     1       2.111   1.412  -0.771  0.00  0.00    +0.034 A 
ATOM      7  C   UNL     1       1.168   2.086  -0.017  0.00  0.00    +0.126 A 
ATOM      8  C   UNL     1       0.248   1.380   0.736  0.00  0.00    +0.034 A 
ATOM      9  C   UNL     1       0.268  -0.001   0.737  0.00  0.00    +0.025 A 
ATOM     10  C   UNL     1       1.214  -0.680  -0.019  0.00  0.00    +0.034 A 
BRANCH   7  11
ATOM     11  N   UNL     1       1.144   3.566  -0.015  0.00  0.00    +0.056 N 
ATOM     12  O   UNL     1       1.954   4.189  -0.678  0.00  0.00    -0.126 OA
ATOM     13  O   UNL     1       0.314   4.161   0.649  0.00  0.00    -0.126 OA
ENDBRANCH   7  11
ENDBRANCH   1  10
BRANCH   2  14
ATOM     14  C   UNL     1       2.425  -4.236  -0.258  0.00  0.00    +0.198 C 
BRANCH  14  15
ATOM     15  N   UNL     1       3.809  -4.703  -0.371  0.00  0.00    -0.335 N 
ATOM     16  H   UNL     1       4.539  -4.064  -0.360  0.00  0.00    +0.147 HD
BRANCH  15  17
ATOM     17  C   UNL     1       4.078  -6.068  -0.495  0.00  0.00    +0.028 A 
ATOM     18  C   UNL     1       3.035  -6.985  -0.506  0.00  0.00    +0.024 A 
ATOM     19  C   UNL     1       3.304  -8.333  -0.636  0.00  0.00    +0.016 A 
ATOM     20  C   UNL     1       4.611  -8.772  -0.742  0.00  0.00    +0.013 A 
ATOM     21  C   UNL     1       5.653  -7.862  -0.725  0.00  0.00    +0.016 A 
ATOM     22  C   UNL     1       5.390  -6.512  -0.603  0.00  0.00    +0.024 A 
ATOM     23  I   UNL     1       5.015 -10.819  -0.929  0.00  0.00    -0.044 I 
ENDBRANCH  15  17
ENDBRANCH  14  15
ENDBRANCH   2  14
TORSDOF 5
