REMARK  Name = ZINC09631448
REMARK  11 active torsions:
REMARK  status: ('A' for Active; 'I' for Inactive)
REMARK    1  A    between atoms: C_1  and  C_2
REMARK    2  A    between atoms: C_2  and  N_3
REMARK    3  A    between atoms: C_7  and  S_27
REMARK    4  A    between atoms: C_11  and  C_15
REMARK    5  A    between atoms: C_15  and  C_16
REMARK    6  A    between atoms: N_18  and  C_19
REMARK    7  A    between atoms: C_22  and  C_26
REMARK    8  A    between atoms: C_24  and  C_25
REMARK    9  A    between atoms: S_27  and  N_30
REMARK   10  A    between atoms: N_30  and  C_31
REMARK   11  A    between atoms: N_30  and  C_32
REMARK                            x       y       z     vdW  Elec       q    Type
REMARK                         _______ _______ _______ _____ _____    ______ ____
ROOT
ATOM      1  N   UNL     1       0.745  -0.493   1.180  0.00  0.00    -0.268 N 
ATOM      2  C   UNL     1       2.128  -0.701   1.134  0.00  0.00    +0.057 A 
ATOM      3  C   UNL     1       2.809  -0.649  -0.072  0.00  0.00    +0.027 A 
ATOM      4  C   UNL     1       4.175  -0.866  -0.102  0.00  0.00    +0.030 A 
ATOM      5  C   UNL     1       4.865  -1.133   1.066  0.00  0.00    +0.107 A 
ATOM      6  C   UNL     1       4.194  -1.183   2.275  0.00  0.00    +0.053 A 
ATOM      7  C   UNL     1       2.829  -0.964   2.312  0.00  0.00    +0.051 A 
ATOM      8  N   UNL     1       2.128  -0.988   3.526  0.00  0.00    -0.331 N 
ATOM      9  C   UNL     1       0.710  -1.374   3.499  0.00  0.00    +0.166 C 
ATOM     10  C   UNL     1       0.049  -0.728   2.308  0.00  0.00    +0.241 C 
ATOM     11  O   UNL     1      -1.123  -0.420   2.364  0.00  0.00    -0.273 OA
ATOM     12  H   UNL     1       2.567  -0.756   4.360  0.00  0.00    +0.147 HD
ENDROOT
BRANCH   5  13
ATOM     13  S   UNL     1       6.605  -1.411   1.014  0.00  0.00    +0.060 S 
ATOM     14  O   UNL     1       6.928  -2.179   2.165  0.00  0.00    -0.153 OA
ATOM     15  O   UNL     1       6.907  -1.850  -0.304  0.00  0.00    -0.153 OA
BRANCH  13  16
ATOM     16  N   UNL     1       7.342   0.059   1.204  0.00  0.00    -0.183 NA
ATOM     17  C   UNL     1       7.678   0.542   2.546  0.00  0.00    +0.131 C 
ATOM     18  C   UNL     1       7.657   0.878   0.030  0.00  0.00    +0.131 C 
ENDBRANCH  13  16
ENDBRANCH   5  13
BRANCH   1  20
ATOM     19  C   UNL     1       0.027   1.522  -0.006  0.00  0.00    +0.025 C 
ATOM     20  C   UNL     1       0.046  -0.008  -0.013  0.00  0.00    +0.110 C 
ENDBRANCH   1  20
BRANCH   9  21
ATOM     21  C   UNL     1       0.595  -2.896   3.394  0.00  0.00    +0.127 C 
BRANCH  21  22
ATOM     22  C   UNL     1       1.157  -3.529   4.641  0.00  0.00    +0.219 C 
ATOM     23  O   UNL     1       1.604  -2.832   5.527  0.00  0.00    -0.275 OA
ATOM     24  N   UNL     1       1.162  -4.871   4.772  0.00  0.00    -0.285 N 
ATOM     25  H   UNL     1       0.732  -5.425   4.102  0.00  0.00    +0.155 HD
BRANCH  24  26
ATOM     26  C   UNL     1       1.786  -5.464   5.875  0.00  0.00    +0.036 A 
ATOM     27  C   UNL     1       2.806  -4.795   6.540  0.00  0.00    +0.024 A 
ATOM     28  C   UNL     1       3.421  -5.383   7.628  0.00  0.00    +0.005 A 
ATOM     29  C   UNL     1       3.021  -6.636   8.056  0.00  0.00    -0.050 A 
ATOM     30  C   UNL     1       2.006  -7.304   7.396  0.00  0.00    +0.008 A 
ATOM     31  C   UNL     1       1.383  -6.719   6.311  0.00  0.00    -0.029 A 
ATOM     32  C   UNL     1       0.272  -7.444   5.597  0.00  0.00    +0.045 C 
ATOM     33  C   UNL     1       3.694  -7.275   9.243  0.00  0.00    +0.044 C 
ENDBRANCH  24  26
ENDBRANCH  21  22
ENDBRANCH   9  21
TORSDOF 6
