REMARK  Name = ZINC45874671
REMARK  8 active torsions:
REMARK  status: ('A' for Active; 'I' for Inactive)
REMARK    1  A    between atoms: C_1  and  C_2
REMARK    2  A    between atoms: C_7  and  C_10
REMARK    3  A    between atoms: C_14  and  C_17
REMARK    4  A    between atoms: C_17  and  N_18
REMARK    5  A    between atoms: N_21  and  C_22
REMARK    6  A    between atoms: N_21  and  C_23
REMARK    7  A    between atoms: C_23  and  C_24
REMARK    8  A    between atoms: C_27  and  C_30
REMARK                            x       y       z     vdW  Elec       q    Type
REMARK                         _______ _______ _______ _____ _____    ______ ____
ROOT
ATOM      1  C   UNL     1      -4.185  -5.503  -3.188  0.00  0.00    +0.142 C 
ENDROOT
BRANCH   1  13
ATOM      2  C   UNL     1      -0.045  -2.168   3.728  0.00  0.00    +0.039 C 
ATOM      3  C   UNL     1      -0.987  -1.773   2.589  0.00  0.00    +0.133 C 
ATOM      4  C   UNL     1      -0.596  -2.529   1.315  0.00  0.00    +0.137 C 
ATOM      5  N   UNL     1      -1.389  -1.995   0.196  0.00  0.00    -0.312 N 
ATOM      6  C   UNL     1      -1.418  -0.537   0.002  0.00  0.00    +0.137 C 
ATOM      7  C   UNL     1      -1.770   0.122   1.341  0.00  0.00    +0.133 C 
ATOM      8  O   UNL     1      -0.886  -0.366   2.353  0.00  0.00    -0.371 OA
ATOM      9  C   UNL     1      -3.214  -0.218   1.714  0.00  0.00    +0.039 C 
ATOM     10  C   UNL     1      -2.091  -2.844  -0.652  0.00  0.00    +0.099 A 
ATOM     11  C   UNL     1      -2.927  -2.308  -1.627  0.00  0.00    +0.042 A 
ATOM     12  C   UNL     1      -3.619  -3.164  -2.464  0.00  0.00    +0.010 A 
ATOM     13  C   UNL     1      -3.451  -4.533  -2.299  0.00  0.00    -0.014 A 
ATOM     14  C   UNL     1      -2.604  -4.995  -1.311  0.00  0.00    +0.089 A 
ATOM     15  N   UNL     1      -1.953  -4.155  -0.530  0.00  0.00    -0.349 N 
ATOM     16  H   UNL     1      -1.361  -4.507   0.154  0.00  0.00    +0.167 HD
ENDBRANCH   1  13
BRANCH   1  17
ATOM     17  N   UNL     1      -3.369  -5.796  -4.369  0.00  0.00    -0.295 N 
ATOM     18  C   UNL     1      -3.827  -6.645  -5.310  0.00  0.00    +0.303 C 
ATOM     19  O   UNL     1      -4.917  -7.168  -5.179  0.00  0.00    -0.253 OA
ATOM     20  N   UNL     1      -3.077  -6.914  -6.397  0.00  0.00    -0.284 N 
ATOM     21  C   UNL     1      -1.764  -6.284  -6.556  0.00  0.00    +0.134 C 
ATOM     22  H   UNL     1      -2.500  -5.378  -4.474  0.00  0.00    +0.151 HD
BRANCH  20  23
ATOM     23  C   UNL     1      -3.575  -7.837  -7.420  0.00  0.00    +0.144 C 
BRANCH  23  24
ATOM     24  C   UNL     1      -4.350  -7.067  -8.458  0.00  0.00    -0.030 A 
ATOM     25  C   UNL     1      -5.710  -6.869  -8.296  0.00  0.00    +0.006 A 
ATOM     26  C   UNL     1      -6.425  -6.165  -9.241  0.00  0.00    +0.019 A 
ATOM     27  C   UNL     1      -5.774  -5.650 -10.364  0.00  0.00    +0.052 A 
ATOM     28  C   UNL     1      -4.402  -5.853 -10.521  0.00  0.00    +0.019 A 
ATOM     29  C   UNL     1      -3.697  -6.555  -9.566  0.00  0.00    +0.006 A 
BRANCH  27  30
ATOM     30  C   UNL     1      -6.511  -4.918 -11.350  0.00  0.00    +0.099 C 
ATOM     31  N   UNL     1      -7.095  -4.338 -12.133  0.00  0.00    -0.191 NA
ENDBRANCH  27  30
ENDBRANCH  23  24
ENDBRANCH  20  23
ENDBRANCH   1  17
TORSDOF 5
