REMARK  Name = ZINC06658423
REMARK  7 active torsions:
REMARK  status: ('A' for Active; 'I' for Inactive)
REMARK    1  A    between atoms: C_1  and  N_2
REMARK    2  A    between atoms: C_3  and  C_21
REMARK    3  A    between atoms: C_6  and  S_7
REMARK    4  A    between atoms: S_7  and  C_8
REMARK    5  A    between atoms: C_8  and  C_9
REMARK    6  A    between atoms: N_11  and  C_12
REMARK    7  A    between atoms: C_17  and  N_18
REMARK                            x       y       z     vdW  Elec       q    Type
REMARK                         _______ _______ _______ _____ _____    ______ ____
ROOT
ATOM      1  C   UNL     1       0.030  -1.932   3.688  0.00  0.00    +0.173 C 
ENDROOT
BRANCH   1   2
ATOM      2  C   UNL     1       0.060  -1.650   5.168  0.00  0.00    +0.228 C 
ATOM      3  O   UNL     1       0.061  -0.505   5.568  0.00  0.00    -0.275 OA
ATOM      4  N   UNL     1       0.085  -2.671   6.048  0.00  0.00    -0.283 N 
ATOM      5  H   UNL     1       0.018  -3.586   5.732  0.00  0.00    +0.155 HD
BRANCH   4   6
ATOM      6  C   UNL     1       0.207  -2.411   7.418  0.00  0.00    +0.064 A 
ATOM      7  C   UNL     1      -0.395  -1.287   7.969  0.00  0.00    +0.025 A 
ATOM      8  C   UNL     1      -0.273  -1.034   9.321  0.00  0.00    +0.002 A 
ATOM      9  C   UNL     1       0.448  -1.897  10.126  0.00  0.00    +0.002 A 
ATOM     10  C   UNL     1       1.048  -3.017   9.580  0.00  0.00    +0.034 A 
ATOM     11  C   UNL     1       0.925  -3.279   8.229  0.00  0.00    +0.147 A 
BRANCH  11  12
ATOM     12  N   UNL     1       1.562  -4.482   7.647  0.00  0.00    +0.058 N 
ATOM     13  O   UNL     1       2.104  -5.288   8.367  0.00  0.00    -0.126 OA
ATOM     14  O   UNL     1       1.540  -4.658   6.451  0.00  0.00    -0.126 OA
ENDBRANCH  11  12
ENDBRANCH   4   6
ENDBRANCH   1   2
BRANCH   1  15
ATOM     15  S   UNL     1       0.001  -0.365   2.775  0.00  0.00    -0.077 S 
BRANCH  15  21
ATOM     16  C   UNL     1      -0.068   1.433   0.001  0.00  0.00    +0.152 C 
ATOM     17  N   UNL     1      -0.060  -0.032  -0.003  0.00  0.00    -0.309 N 
ATOM     18  C   UNL     1      -0.072  -0.855  -1.095  0.00  0.00    +0.137 A 
ATOM     19  N   UNL     1      -0.057  -2.082  -0.656  0.00  0.00    -0.133 NA
ATOM     20  N   UNL     1      -0.036  -2.090   0.629  0.00  0.00    -0.122 NA
ATOM     21  C   UNL     1      -0.032  -0.858   1.083  0.00  0.00    +0.192 A 
BRANCH  18  22
ATOM     22  C   UNL     1      -0.099  -0.423  -2.538  0.00  0.00    +0.057 C 
ATOM     23  C   UNL     1      -1.355  -0.977  -3.213  0.00  0.00    +0.011 C 
ATOM     24  C   UNL     1      -1.382  -0.538  -4.679  0.00  0.00    +0.001 C 
ATOM     25  C   UNL     1      -0.141  -1.075  -5.394  0.00  0.00    +0.000 C 
ATOM     26  C   UNL     1       1.116  -0.522  -4.720  0.00  0.00    +0.001 C 
ATOM     27  C   UNL     1       1.143  -0.960  -3.254  0.00  0.00    +0.011 C 
ENDBRANCH  18  22
ENDBRANCH  15  21
ENDBRANCH   1  15
TORSDOF 6
