REMARK  Name = ZINC66120882
REMARK  5 active torsions:
REMARK  status: ('A' for Active; 'I' for Inactive)
REMARK    1  A    between atoms: C_4  and  C_7
REMARK    2  A    between atoms: C_10  and  C_12
REMARK    3  A    between atoms: C_12  and  N_13
REMARK    4  A    between atoms: C_19  and  N_22
REMARK    5  A    between atoms: C_23  and  C_25
REMARK                            x       y       z     vdW  Elec       q    Type
REMARK                         _______ _______ _______ _____ _____    ______ ____
ROOT
ATOM      1  N   UNL     1       7.817  -0.759  -1.453  0.00  0.00    -0.292 N 
ATOM      2  C   UNL     1       9.124  -0.554  -1.707  0.00  0.00    +0.303 C 
ATOM      3  O   UNL     1       9.898  -0.351  -0.791  0.00  0.00    -0.253 OA
ATOM      4  N   UNL     1       9.575  -0.574  -2.978  0.00  0.00    -0.286 N 
ATOM      5  C   UNL     1       8.638  -0.701  -4.102  0.00  0.00    +0.111 C 
ATOM      6  C   UNL     1       9.078  -1.876  -4.980  0.00  0.00    +0.041 C 
ATOM      7  C   UNL     1      10.537  -1.678  -5.397  0.00  0.00    +0.076 C 
ATOM      8  C   UNL     1      11.426  -1.646  -4.152  0.00  0.00    +0.041 C 
ATOM      9  C   UNL     1      11.011  -0.462  -3.264  0.00  0.00    +0.111 C 
ATOM     10  H   UNL     1       7.188  -0.847  -2.186  0.00  0.00    +0.151 HD
ENDROOT
BRANCH   7  11
ATOM     11  N   UNL     1      10.952  -2.783  -6.264  0.00  0.00    -0.312 N 
ATOM     12  C   UNL     1      11.959  -2.609  -7.143  0.00  0.00    +0.216 C 
ATOM     13  O   UNL     1      12.521  -1.537  -7.216  0.00  0.00    -0.276 OA
ATOM     14  H   UNL     1      10.502  -3.641  -6.206  0.00  0.00    +0.149 HD
BRANCH  12  15
ATOM     15  C   UNL     1      12.385  -3.747  -8.035  0.00  0.00    +0.075 C 
ATOM     16  C   UNL     1      11.514  -3.904  -9.293  0.00  0.00    +0.013 C 
ATOM     17  C   UNL     1      12.478  -2.927  -9.987  0.00  0.00    +0.001 C 
ATOM     18  C   UNL     1      13.545  -3.388  -8.980  0.00  0.00    +0.013 C 
ENDBRANCH  12  15
ENDBRANCH   7  11
BRANCH   1  19
ATOM     19  C   UNL     1       7.346  -0.848  -0.069  0.00  0.00    +0.180 C 
BRANCH  19  23
ATOM     20  C   UNL     1       3.696  -0.689  -0.037  0.00  0.00    +0.135 A 
ATOM     21  C   UNL     1       3.858  -2.038  -0.053  0.00  0.00    +0.050 A 
ATOM     22  C   UNL     1       5.247  -2.279  -0.067  0.00  0.00    +0.047 A 
ATOM     23  C   UNL     1       5.856  -1.078  -0.059  0.00  0.00    +0.123 A 
ATOM     24  O   UNL     1       4.916  -0.119  -0.047  0.00  0.00    -0.458 OA
BRANCH  20  28
ATOM     25  C   UNL     1      -0.017   1.373   0.013  0.00  0.00    +0.000 A 
ATOM     26  C   UNL     1       1.167   2.088   0.006  0.00  0.00    +0.001 A 
ATOM     27  C   UNL     1       2.377   1.424  -0.010  0.00  0.00    +0.011 A 
ATOM     28  C   UNL     1       2.404   0.029  -0.019  0.00  0.00    +0.017 A 
ATOM     29  C   UNL     1       1.205  -0.686  -0.012  0.00  0.00    +0.011 A 
ATOM     30  C   UNL     1       0.002  -0.011   0.004  0.00  0.00    +0.001 A 
ENDBRANCH  20  28
ENDBRANCH  19  23
ENDBRANCH   1  19
TORSDOF 5
