REMARK  Name = ZINC66467785
REMARK  7 active torsions:
REMARK  status: ('A' for Active; 'I' for Inactive)
REMARK    1  A    between atoms: C_1  and  C_2
REMARK    2  A    between atoms: C_7  and  N_10
REMARK    3  A    between atoms: C_11  and  C_13
REMARK    4  A    between atoms: C_13  and  N_14
REMARK    5  A    between atoms: N_17  and  C_20
REMARK    6  A    between atoms: C_23  and  C_29
REMARK    7  A    between atoms: C_25  and  N_26
REMARK                            x       y       z     vdW  Elec       q    Type
REMARK                         _______ _______ _______ _____ _____    ______ ____
ROOT
ATOM      1  N   UNL     1      -2.277  -5.655   2.302  0.00  0.00    -0.291 NA
ATOM      2  C   UNL     1      -1.566  -6.609   1.440  0.00  0.00    +0.104 C 
ATOM      3  C   UNL     1      -1.452  -7.957   2.160  0.00  0.00    +0.120 C 
ATOM      4  N   UNL     1      -2.798  -8.378   2.577  0.00  0.00    -0.326 N 
ATOM      5  C   UNL     1      -3.626  -7.422   3.329  0.00  0.00    +0.120 C 
ATOM      6  C   UNL     1      -3.654  -6.095   2.562  0.00  0.00    +0.104 C 
ENDROOT
BRANCH   4   7
ATOM      7  C   UNL     1      -3.276  -9.649   2.269  0.00  0.00    +0.060 A 
ATOM      8  C   UNL     1      -4.044  -9.843   1.125  0.00  0.00    +0.026 A 
ATOM      9  C   UNL     1      -4.519 -11.098   0.818  0.00  0.00    +0.021 A 
ATOM     10  C   UNL     1      -4.229 -12.178   1.657  0.00  0.00    +0.054 A 
ATOM     11  C   UNL     1      -3.457 -11.979   2.805  0.00  0.00    +0.053 A 
ATOM     12  C   UNL     1      -2.981 -10.723   3.104  0.00  0.00    +0.148 A 
BRANCH  12  13
ATOM     13  N   UNL     1      -2.159 -10.512   4.317  0.00  0.00    +0.058 N 
ATOM     14  O   UNL     1      -1.818 -11.458   4.987  0.00  0.00    -0.126 OA
ATOM     15  O   UNL     1      -1.829  -9.394   4.637  0.00  0.00    -0.126 OA
ENDBRANCH  12  13
BRANCH  10  16
ATOM     16  C   UNL     1      -4.721 -13.485   1.340  0.00  0.00    +0.099 C 
ATOM     17  N   UNL     1      -5.112 -14.522   1.090  0.00  0.00    -0.191 NA
ENDBRANCH  10  16
ENDBRANCH   4   7
BRANCH   1  18
ATOM     18  C   UNL     1      -2.256  -4.305   1.722  0.00  0.00    +0.180 C 
BRANCH  18  20
ATOM     19  N   UNL     1      -0.578  -2.564   1.203  0.00  0.00    -0.311 N 
ATOM     20  C   UNL     1      -0.840  -3.791   1.696  0.00  0.00    +0.227 C 
ATOM     21  O   UNL     1       0.063  -4.480   2.119  0.00  0.00    -0.274 OA
ATOM     22  H   UNL     1      -1.300  -2.013   0.865  0.00  0.00    +0.149 HD
BRANCH  19  28
ATOM     23  C   UNL     1       0.023   1.505  -0.040  0.00  0.00    +0.007 C 
ATOM     24  C   UNL     1       0.036  -0.025  -0.047  0.00  0.00    -0.012 C 
ATOM     25  C   UNL     1       0.737  -0.523  -1.312  0.00  0.00    +0.003 C 
ATOM     26  C   UNL     1       0.750  -2.053  -1.320  0.00  0.00    +0.002 C 
ATOM     27  C   UNL     1       1.500  -2.562  -0.087  0.00  0.00    +0.022 C 
ATOM     28  C   UNL     1       0.799  -2.064   1.178  0.00  0.00    +0.073 C 
ATOM     29  C   UNL     1       0.786  -0.534   1.185  0.00  0.00    +0.025 C 
ENDBRANCH  19  28
ENDBRANCH  18  20
ENDBRANCH   1  18
TORSDOF 6
