REMARK  Name = ZINC59378151
REMARK  3 active torsions:
REMARK  status: ('A' for Active; 'I' for Inactive)
REMARK    1  A    between atoms: C_3  and  N_23
REMARK    2  A    between atoms: C_6  and  C_7
REMARK    3  A    between atoms: C_11  and  C_13
REMARK                            x       y       z     vdW  Elec       q    Type
REMARK                         _______ _______ _______ _____ _____    ______ ____
ROOT
ATOM      1  C   UNL     1      -1.293  -0.775   0.010  0.00  0.00    +0.182 C 
ATOM      2  N   UNL     1      -1.288  -1.827   1.053  0.00  0.00    -0.250 N 
ATOM      3  N   UNL     1      -1.397  -3.117   0.583  0.00  0.00    -0.183 NA
ATOM      4  C   UNL     1      -1.497  -3.413  -0.668  0.00  0.00    +0.100 C 
ATOM      5  S   UNL     1      -1.456  -1.827  -1.491  0.00  0.00    -0.080 S 
ATOM      6  H   UNL     1      -1.213  -1.622   1.998  0.00  0.00    +0.170 HD
ENDROOT
BRANCH   4   7
ATOM      7  C   UNL     1      -1.620  -4.779  -1.292  0.00  0.00    +0.021 C 
ATOM      8  C   UNL     1      -2.931  -4.865  -2.076  0.00  0.00    +0.017 C 
ATOM      9  C   UNL     1      -3.056  -6.253  -2.710  0.00  0.00    -0.010 C 
ATOM     10  C   UNL     1      -3.048  -7.317  -1.611  0.00  0.00    +0.007 C 
ATOM     11  C   UNL     1      -1.737  -7.231  -0.827  0.00  0.00    -0.010 C 
ATOM     12  C   UNL     1      -1.612  -5.844  -0.193  0.00  0.00    +0.017 C 
ATOM     13  C   UNL     1      -0.560  -7.467  -1.774  0.00  0.00    +0.007 C 
ATOM     14  C   UNL     1      -0.568  -6.403  -2.873  0.00  0.00    -0.010 C 
ATOM     15  C   UNL     1      -1.878  -6.489  -3.657  0.00  0.00    +0.007 C 
ATOM     16  C   UNL     1      -0.442  -5.016  -2.240  0.00  0.00    +0.017 C 
ENDBRANCH   4   7
BRANCH   1  22
ATOM     17  C   UNL     1      -0.017   1.378   0.010  0.00  0.00    +0.008 A 
ATOM     18  C   UNL     1       1.171   2.086   0.002  0.00  0.00    +0.033 A 
ATOM     19  C   UNL     1       2.377   1.411  -0.013  0.00  0.00    +0.126 A 
ATOM     20  C   UNL     1       2.396   0.029  -0.020  0.00  0.00    +0.033 A 
ATOM     21  C   UNL     1       1.208  -0.679  -0.012  0.00  0.00    +0.008 A 
ATOM     22  C   UNL     1       0.002  -0.004   0.002  0.00  0.00    -0.015 A 
BRANCH  19  23
ATOM     23  N   UNL     1       3.649   2.168  -0.022  0.00  0.00    +0.056 N 
ATOM     24  O   UNL     1       3.633   3.377  -0.016  0.00  0.00    -0.126 OA
ATOM     25  O   UNL     1       4.704   1.578  -0.035  0.00  0.00    -0.126 OA
ENDBRANCH  19  23
ENDBRANCH   1  22
TORSDOF 3
