REMARK  Name = ZINC61647118
REMARK  8 active torsions:
REMARK  status: ('A' for Active; 'I' for Inactive)
REMARK    1  A    between atoms: C_1  and  C_2
REMARK    2  A    between atoms: N_7  and  C_8
REMARK    3  A    between atoms: C_8  and  C_9
REMARK    4  A    between atoms: C_8  and  C_10
REMARK    5  A    between atoms: C_10  and  N_11
REMARK    6  A    between atoms: N_14  and  C_15
REMARK    7  A    between atoms: C_15  and  C_16
REMARK    8  A    between atoms: C_15  and  C_17
REMARK                            x       y       z     vdW  Elec       q    Type
REMARK                         _______ _______ _______ _____ _____    ______ ____
ROOT
ATOM      1  N   UNL     1       1.041  -1.561   3.656  0.00  0.00    -0.301 N 
ATOM      2  C   UNL     1       1.714  -2.027   4.727  0.00  0.00    +0.300 C 
ATOM      3  O   UNL     1       2.258  -1.250   5.488  0.00  0.00    -0.253 OA
ATOM      4  N   UNL     1       1.785  -3.353   4.954  0.00  0.00    -0.293 N 
ATOM      5  H   UNL     1       0.607  -2.181   3.049  0.00  0.00    +0.150 HD
ATOM      6  H   UNL     1       1.351  -3.973   4.347  0.00  0.00    +0.151 HD
ENDROOT
BRANCH   4   7
ATOM      7  C   UNL     1       2.517  -3.859   6.118  0.00  0.00    +0.102 C 
ATOM      8  C   UNL     1       4.002  -3.988   5.770  0.00  0.00    +0.033 C 
BRANCH   7   9
ATOM      9  C   UNL     1       1.973  -5.210   6.505  0.00  0.00    -0.024 A 
ATOM     10  C   UNL     1       1.635  -6.125   5.525  0.00  0.00    +0.009 A 
ATOM     11  C   UNL     1       1.135  -7.365   5.875  0.00  0.00    +0.050 A 
ATOM     12  C   UNL     1       0.972  -7.695   7.211  0.00  0.00    +0.166 A 
ATOM     13  C   UNL     1       1.313  -6.774   8.198  0.00  0.00    +0.167 A 
ATOM     14  C   UNL     1       1.818  -5.535   7.840  0.00  0.00    +0.055 A 
ATOM     15  O   UNL     1       1.063  -7.331   9.419  0.00  0.00    -0.453 OA
ATOM     16  C   UNL     1       0.185  -8.443   9.162  0.00  0.00    +0.466 C 
ATOM     17  O   UNL     1       0.509  -8.829   7.813  0.00  0.00    -0.453 OA
ENDBRANCH   7   9
ENDBRANCH   4   7
BRANCH   1  18
ATOM     18  C   UNL     1       0.964  -0.119   3.409  0.00  0.00    +0.090 C 
BRANCH  18  19
ATOM     19  C   UNL     1       0.303   0.131   2.053  0.00  0.00    -0.054 C 
ATOM     20  C   UNL     1       0.012   1.625   1.895  0.00  0.00    -0.012 C 
BRANCH  19  27
ATOM     21  C   UNL     1      -0.030  -2.420   0.929  0.00  0.00    -0.013 C 
ATOM     22  C   UNL     1       1.350  -1.767   1.031  0.00  0.00    -0.071 C 
ATOM     23  C   UNL     1       2.224  -2.238  -0.134  0.00  0.00    -0.016 C 
ATOM     24  C   UNL     1       3.604  -1.583  -0.027  0.00  0.00    -0.003 C 
ATOM     25  C   UNL     1       3.435  -0.061  -0.007  0.00  0.00    -0.019 C 
ATOM     26  C   UNL     1       2.516   0.330   1.153  0.00  0.00    -0.078 C 
ATOM     27  N   UNL     1       1.205  -0.307   0.980  0.00  0.00    +0.384 N 
ATOM     28  H   UNL     1       0.818  -0.040   0.087  0.00  0.00    -0.081 HD
ENDBRANCH  19  27
ENDBRANCH  18  19
ENDBRANCH   1  18
TORSDOF 5
