REMARK  Name = ZINC19899429
REMARK  5 active torsions:
REMARK  status: ('A' for Active; 'I' for Inactive)
REMARK    1  A    between atoms: C_4  and  C_7
REMARK    2  A    between atoms: C_7  and  C_8
REMARK    3  A    between atoms: C_7  and  N_14
REMARK    4  A    between atoms: C_28  and  C_33
REMARK    5  A    between atoms: C_30  and  O_32
REMARK                            x       y       z     vdW  Elec       q    Type
REMARK                         _______ _______ _______ _____ _____    ______ ____
ROOT
ATOM      1  N   UNL     1       3.538  -1.824  -0.986  0.00  0.00    -0.289 NA
ATOM      2  C   UNL     1       3.037  -1.512  -2.332  0.00  0.00    +0.104 C 
ATOM      3  C   UNL     1       2.851  -2.814  -3.118  0.00  0.00    +0.123 C 
ATOM      4  N   UNL     1       4.115  -3.565  -3.084  0.00  0.00    -0.300 N 
ATOM      5  C   UNL     1       4.750  -3.799  -1.779  0.00  0.00    +0.123 C 
ATOM      6  C   UNL     1       4.862  -2.458  -1.045  0.00  0.00    +0.104 C 
ATOM      7  C   UNL     1       4.688  -4.039  -4.245  0.00  0.00    +0.172 C 
ATOM      8  N   UNL     1       5.301  -5.187  -4.226  0.00  0.00    -0.352 N 
ATOM      9  C   UNL     1       5.961  -5.707  -5.425  0.00  0.00    +0.065 C 
ATOM     10  C   UNL     1       6.016  -7.234  -5.358  0.00  0.00    +0.030 C 
ATOM     11  C   UNL     1       6.808  -7.663  -4.121  0.00  0.00    +0.002 C 
ATOM     12  C   UNL     1       8.230  -7.104  -4.207  0.00  0.00    +0.000 C 
ATOM     13  C   UNL     1       8.174  -5.576  -4.272  0.00  0.00    +0.002 C 
ATOM     14  C   UNL     1       7.383  -5.148  -5.510  0.00  0.00    +0.030 C 
ATOM     15  C   UNL     1       5.171  -5.279  -6.664  0.00  0.00    +0.200 C 
ATOM     16  C   UNL     1       4.829  -3.814  -6.546  0.00  0.00    +0.187 C 
ATOM     17  N   UNL     1       4.593  -3.298  -5.377  0.00  0.00    -0.303 N 
ATOM     18  H   UNL     1       5.321  -5.705  -3.405  0.00  0.00    +0.163 HD
ATOM     19  H   UNL     1       4.348  -2.361  -5.313  0.00  0.00    +0.171 HD
ENDROOT
BRANCH  16  20
ATOM     20  O   UNL     1       4.763  -3.047  -7.649  0.00  0.00    -0.496 OA
ATOM     21  H   UNL     1       4.537  -2.123  -7.472  0.00  0.00    +0.293 HD
ENDBRANCH  16  20
BRANCH  15  22
ATOM     22  C   UNL     1       3.933  -6.070  -6.757  0.00  0.00    +0.078 C 
ATOM     23  N   UNL     1       2.978  -6.681  -6.828  0.00  0.00    -0.196 NA
ENDBRANCH  15  22
BRANCH   1  24
ATOM     24  C   UNL     1       3.567  -0.621  -0.143  0.00  0.00    +0.117 C 
BRANCH  24  28
ATOM     25  C   UNL     1      -0.322   1.141  -0.045  0.00  0.00    +0.000 A 
ATOM     26  C   UNL     1       0.799   1.946  -0.124  0.00  0.00    +0.000 A 
ATOM     27  C   UNL     1       2.058   1.375  -0.156  0.00  0.00    +0.005 A 
ATOM     28  C   UNL     1       2.195   0.001  -0.108  0.00  0.00    -0.026 A 
ATOM     29  C   UNL     1       1.074  -0.804  -0.027  0.00  0.00    +0.005 A 
ATOM     30  C   UNL     1      -0.185  -0.233   0.003  0.00  0.00    +0.000 A 
ENDBRANCH  24  28
BRANCH  24  31
ATOM     31  C   UNL     1       3.985  -0.998   1.255  0.00  0.00    -0.026 A 
ATOM     32  C   UNL     1       3.514  -2.165   1.826  0.00  0.00    +0.005 A 
ATOM     33  C   UNL     1       3.897  -2.511   3.108  0.00  0.00    +0.000 A 
ATOM     34  C   UNL     1       4.751  -1.689   3.820  0.00  0.00    +0.000 A 
ATOM     35  C   UNL     1       5.222  -0.522   3.248  0.00  0.00    +0.000 A 
ATOM     36  C   UNL     1       4.843  -0.178   1.964  0.00  0.00    +0.005 A 
ENDBRANCH  24  31
ENDBRANCH   1  24
TORSDOF 5
