REMARK  Name = ZINC05151301
REMARK  7 active torsions:
REMARK  status: ('A' for Active; 'I' for Inactive)
REMARK    1  A    between atoms: C_1  and  C_2
REMARK    2  A    between atoms: C_3  and  N_22
REMARK    3  A    between atoms: C_4  and  C_21
REMARK    4  A    between atoms: N_5  and  C_7
REMARK    5  A    between atoms: C_7  and  C_8
REMARK    6  A    between atoms: N_10  and  N_11
REMARK    7  A    between atoms: C_12  and  C_13
REMARK                            x       y       z     vdW  Elec       q    Type
REMARK                         _______ _______ _______ _____ _____    ______ ____
ROOT
ATOM      1  C   UNL     1       5.931   3.380  -0.035  0.00  0.00    +0.254 C 
ATOM      2  O   UNL     1       5.953   2.167  -0.041  0.00  0.00    -0.272 OA
ATOM      3  N   UNL     1       4.752   4.033  -0.020  0.00  0.00    -0.205 N 
ATOM      4  H   UNL     1       4.734   5.003  -0.015  0.00  0.00    +0.177 HD
ENDROOT
BRANCH   3   5
ATOM      5  N   UNL     1       3.551   3.311  -0.013  0.00  0.00    -0.188 NA
ATOM      6  C   UNL     1       2.416   3.939   0.001  0.00  0.00    +0.139 C 
BRANCH   6   7
ATOM      7  C   UNL     1       1.153   3.179   0.008  0.00  0.00    +0.013 A 
ATOM      8  C   UNL     1      -0.071   3.852   0.023  0.00  0.00    +0.012 A 
ATOM      9  C   UNL     1      -1.249   3.135   0.031  0.00  0.00    +0.021 A 
ATOM     10  C   UNL     1      -1.222   1.750   0.017  0.00  0.00    +0.042 A 
ATOM     11  C   UNL     1      -0.013   1.076   0.008  0.00  0.00    +0.040 A 
ATOM     12  C   UNL     1       1.174   1.781   0.000  0.00  0.00    +0.051 A 
ATOM     13 CL   UNL     1       2.690   0.934  -0.018  0.00  0.00    -0.083 Cl
ATOM     14 CL   UNL     1      -2.710   0.856   0.020  0.00  0.00    -0.083 Cl
ENDBRANCH   6   7
ENDBRANCH   3   5
BRANCH   1  15
ATOM     15  C   UNL     1       7.222   4.157  -0.042  0.00  0.00    +0.241 C 
BRANCH  15  20
ATOM     16  C   UNL     1      10.903   1.130   1.532  0.00  0.00    +0.070 C 
ATOM     17  C   UNL     1       9.957   1.906   0.653  0.00  0.00    +0.090 A 
ATOM     18  C   UNL     1       9.951   1.908  -0.746  0.00  0.00    +0.169 A 
ATOM     19  C   UNL     1       8.955   2.727  -1.157  0.00  0.00    +0.067 A 
ATOM     20  N   UNL     1       8.353   3.226  -0.058  0.00  0.00    -0.257 N 
ATOM     21  N   UNL     1       9.003   2.700   1.066  0.00  0.00    -0.173 NA
ATOM     22  C   UNL     1       8.585   3.027  -2.587  0.00  0.00    +0.068 C 
BRANCH  18  23
ATOM     23  N   UNL     1      10.871   1.148  -1.622  0.00  0.00    +0.060 N 
ATOM     24  O   UNL     1      11.921   1.650  -1.984  0.00  0.00    -0.126 OA
ATOM     25  O   UNL     1      10.580   0.021  -1.980  0.00  0.00    -0.126 OA
ENDBRANCH  18  23
ENDBRANCH  15  20
ENDBRANCH   1  15
TORSDOF 5
