REMARK  Name = ZINC02629156
REMARK  6 active torsions:
REMARK  status: ('A' for Active; 'I' for Inactive)
REMARK    1  A    between atoms: C_1  and  C_2
REMARK    2  A    between atoms: C_2  and  C_4
REMARK    3  A    between atoms: C_2  and  S_10
REMARK    4  A    between atoms: S_10  and  C_11
REMARK    5  A    between atoms: C_14  and  C_22
REMARK    6  A    between atoms: N_15  and  C_16
REMARK                            x       y       z     vdW  Elec       q    Type
REMARK                         _______ _______ _______ _____ _____    ______ ____
ROOT
ATOM      1  C   UNL     1       2.459  -4.491   0.691  0.00  0.00    +0.197 A 
ATOM      2  N   UNL     1       1.366  -5.094   0.284  0.00  0.00    -0.122 NA
ATOM      3  N   UNL     1       1.481  -6.366   0.426  0.00  0.00    -0.127 NA
ATOM      4  C   UNL     1       2.655  -6.657   0.943  0.00  0.00    +0.176 A 
ATOM      5  N   UNL     1       3.320  -5.463   1.129  0.00  0.00    -0.270 N 
ENDROOT
BRANCH   5   6
ATOM      6  C   UNL     1       4.606  -5.281   1.657  0.00  0.00    +0.051 A 
ATOM      7  C   UNL     1       5.711  -5.776   0.979  0.00  0.00    +0.026 A 
ATOM      8  C   UNL     1       6.978  -5.591   1.498  0.00  0.00    +0.002 A 
ATOM      9  C   UNL     1       7.144  -4.924   2.698  0.00  0.00    +0.000 A 
ATOM     10  C   UNL     1       6.044  -4.434   3.378  0.00  0.00    +0.002 A 
ATOM     11  C   UNL     1       4.776  -4.611   2.861  0.00  0.00    +0.026 A 
ENDBRANCH   5   6
BRANCH   4  12
ATOM     12  C   UNL     1       3.163  -8.000   1.262  0.00  0.00    +0.057 A 
ATOM     13  C   UNL     1       2.474  -9.183   1.365  0.00  0.00    +0.019 A 
ATOM     14  C   UNL     1       3.172 -10.328   1.678  0.00  0.00    +0.008 A 
ATOM     15  C   UNL     1       4.513 -10.253   1.875  0.00  0.00    +0.046 A 
ATOM     16  S   UNL     1       4.836  -8.518   1.609  0.00  0.00    -0.094 S 
ENDBRANCH   4  12
BRANCH   1  17
ATOM     17  S   UNL     1       2.760  -2.755   0.682  0.00  0.00    -0.073 S 
BRANCH  17  19
ATOM     18  C   UNL     1       1.066  -2.673  -1.460  0.00  0.00    +0.029 C 
ATOM     19  C   UNL     1       1.199  -2.169  -0.021  0.00  0.00    +0.137 C 
BRANCH  19  20
ATOM     20  C   UNL     1       1.178  -0.662  -0.013  0.00  0.00    +0.233 C 
ATOM     21  O   UNL     1       2.220  -0.042  -0.019  0.00  0.00    -0.274 OA
ATOM     22  N   UNL     1       0.002  -0.004   0.002  0.00  0.00    -0.239 N 
ATOM     23  C   UNL     1      -0.016   1.344   0.009  0.00  0.00    +0.303 C 
ATOM     24  O   UNL     1       1.028   1.966   0.003  0.00  0.00    -0.253 OA
ATOM     25  N   UNL     1      -1.192   2.002   0.019  0.00  0.00    -0.313 N 
ATOM     26  H   UNL     1      -0.831  -0.500   0.007  0.00  0.00    +0.159 HD
ATOM     27  H   UNL     1      -2.026   1.505   0.020  0.00  0.00    +0.146 HD
ATOM     28  H   UNL     1      -1.206   2.971   0.024  0.00  0.00    +0.146 HD
ENDBRANCH  19  20
ENDBRANCH  17  19
ENDBRANCH   1  17
TORSDOF 5
