REMARK  Name = ZINC10494852
REMARK  10 active torsions:
REMARK  status: ('A' for Active; 'I' for Inactive)
REMARK    1  A    between atoms: C_1  and  C_2
REMARK    2  A    between atoms: C_8  and  C_10
REMARK    3  A    between atoms: C_10  and  C_11
REMARK    4  A    between atoms: C_11  and  S_12
REMARK    5  A    between atoms: S_12  and  C_13
REMARK    6  A    between atoms: C_16  and  C_18
REMARK    7  A    between atoms: C_21  and  C_24
REMARK    8  A    between atoms: C_24  and  C_25
REMARK    9  A    between atoms: C_24  and  C_26
REMARK   10  A    between atoms: C_24  and  C_27
REMARK                            x       y       z     vdW  Elec       q    Type
REMARK                         _______ _______ _______ _____ _____    ______ ____
ROOT
ATOM      1  C   UNL     1      -7.808  -4.810   0.012  0.00  0.00    +0.278 A 
ATOM      2  N   UNL     1      -8.146  -3.541   0.015  0.00  0.00    -0.101 NA
ATOM      3  N   UNL     1      -9.429  -3.441   0.023  0.00  0.00    -0.106 NA
ATOM      4  C   UNL     1      -9.960  -4.639   0.026  0.00  0.00    +0.249 A 
ATOM      5  O   UNL     1      -8.945  -5.531   0.013  0.00  0.00    -0.411 OA
ENDROOT
BRANCH   4   6
ATOM      6  C   UNL     1     -11.403  -4.956   0.036  0.00  0.00    +0.039 A 
ATOM      7  C   UNL     1     -11.829  -6.286   0.043  0.00  0.00    +0.013 A 
ATOM      8  C   UNL     1     -13.177  -6.575   0.052  0.00  0.00    +0.005 A 
ATOM      9  C   UNL     1     -14.108  -5.551   0.053  0.00  0.00    -0.042 A 
ATOM     10  C   UNL     1     -13.693  -4.231   0.045  0.00  0.00    +0.005 A 
ATOM     11  C   UNL     1     -12.347  -3.928   0.043  0.00  0.00    +0.013 A 
BRANCH   9  12
ATOM     12  C   UNL     1     -15.579  -5.874   0.062  0.00  0.00    -0.013 C 
ATOM     13  C   UNL     1     -15.916  -6.683   1.316  0.00  0.00    +0.015 C 
ATOM     14  C   UNL     1     -16.387  -4.575   0.061  0.00  0.00    +0.015 C 
ATOM     15  C   UNL     1     -15.929  -6.693  -1.182  0.00  0.00    +0.015 C 
ENDBRANCH   9  12
ENDBRANCH   4   6
BRANCH   1  16
ATOM     16  S   UNL     1      -6.166  -5.451   0.000  0.00  0.00    -0.065 S 
BRANCH  16  17
ATOM     17  C   UNL     1      -5.117  -3.971   0.004  0.00  0.00    +0.088 C 
BRANCH  17  18
ATOM     18  C   UNL     1      -3.646  -4.389  -0.006  0.00  0.00    +0.107 C 
BRANCH  18  26
ATOM     19  C   UNL     1      -0.018   1.503   0.010  0.00  0.00    +0.089 C 
ATOM     20  C   UNL     1       0.002  -0.004   0.002  0.00  0.00    +0.136 A 
ATOM     21  C   UNL     1      -1.076  -0.808   0.003  0.00  0.00    +0.091 A 
ATOM     22  C   UNL     1      -0.625  -2.147  -0.007  0.00  0.00    +0.168 A 
ATOM     23  N   UNL     1       0.683  -2.130  -0.013  0.00  0.00    -0.063 NA
ATOM     24  O   UNL     1       1.100  -0.776  -0.013  0.00  0.00    -0.358 OA
ATOM     25  N   UNL     1      -1.432  -3.285  -0.010  0.00  0.00    -0.268 N 
ATOM     26  C   UNL     1      -2.774  -3.159  -0.003  0.00  0.00    +0.219 C 
ATOM     27  O   UNL     1      -3.280  -2.057   0.006  0.00  0.00    -0.275 OA
ATOM     28  H   UNL     1      -1.027  -4.166  -0.017  0.00  0.00    +0.156 HD
ENDBRANCH  18  26
ENDBRANCH  17  18
ENDBRANCH  16  17
ENDBRANCH   1  16
TORSDOF 6
