REMARK  Name = ZINC65511643
REMARK  6 active torsions:
REMARK  status: ('A' for Active; 'I' for Inactive)
REMARK    1  A    between atoms: C_3  and  N_26
REMARK    2  A    between atoms: C_6  and  C_7
REMARK    3  A    between atoms: C_7  and  C_8
REMARK    4  A    between atoms: C_8  and  N_9
REMARK    5  A    between atoms: C_18  and  C_20
REMARK    6  A    between atoms: C_20  and  C_21
REMARK                            x       y       z     vdW  Elec       q    Type
REMARK                         _______ _______ _______ _____ _____    ______ ____
ROOT
ATOM      1  N   UNL     1      -3.001  -1.782  -1.422  0.00  0.00    -0.299 N 
ATOM      2  C   UNL     1      -3.593  -2.117  -2.585  0.00  0.00    +0.302 C 
ATOM      3  O   UNL     1      -3.133  -1.720  -3.638  0.00  0.00    -0.253 OA
ATOM      4  N   UNL     1      -4.696  -2.892  -2.581  0.00  0.00    -0.283 N 
ATOM      5  C   UNL     1      -5.333  -3.280  -1.315  0.00  0.00    +0.128 C 
ATOM      6  C   UNL     1      -6.806  -2.857  -1.357  0.00  0.00    +0.127 C 
ATOM      7  N   UNL     1      -7.394  -3.329  -2.619  0.00  0.00    -0.298 N 
ATOM      8  C   UNL     1      -6.757  -2.941  -3.886  0.00  0.00    +0.127 C 
ATOM      9  C   UNL     1      -5.286  -3.359  -3.843  0.00  0.00    +0.128 C 
ATOM     10  C   UNL     1      -8.496  -4.104  -2.615  0.00  0.00    +0.216 C 
ATOM     11  O   UNL     1      -9.013  -4.418  -1.564  0.00  0.00    -0.276 OA
ATOM     12  H   UNL     1      -3.407  -2.038  -0.579  0.00  0.00    +0.150 HD
ENDROOT
BRANCH   1  13
ATOM     13  C   UNL     1      -1.742  -1.032  -1.430  0.00  0.00    +0.110 C 
BRANCH  13  14
ATOM     14  C   UNL     1      -1.287  -0.783   0.009  0.00  0.00    +0.054 C 
BRANCH  14  20
ATOM     15  C   UNL     1      -0.011   1.370   0.013  0.00  0.00    +0.006 A 
ATOM     16  C   UNL     1       1.176   2.078   0.005  0.00  0.00    +0.033 A 
ATOM     17  C   UNL     1       2.383   1.403  -0.015  0.00  0.00    +0.126 A 
ATOM     18  C   UNL     1       2.402   0.021  -0.027  0.00  0.00    +0.033 A 
ATOM     19  C   UNL     1       1.214  -0.686  -0.018  0.00  0.00    +0.006 A 
ATOM     20  C   UNL     1       0.008  -0.012   0.001  0.00  0.00    -0.046 A 
BRANCH  17  21
ATOM     21  N   UNL     1       3.654   2.161  -0.025  0.00  0.00    +0.056 N 
ATOM     22  O   UNL     1       3.638   3.370  -0.015  0.00  0.00    -0.126 OA
ATOM     23  O   UNL     1       4.709   1.571  -0.042  0.00  0.00    -0.126 OA
ENDBRANCH  17  21
ENDBRANCH  14  20
ENDBRANCH  13  14
ENDBRANCH   1  13
BRANCH  10  24
ATOM     24  C   UNL     1      -9.087  -4.581  -3.917  0.00  0.00    +0.099 C 
BRANCH  24  25
ATOM     25  C   UNL     1     -10.323  -5.437  -3.633  0.00  0.00    -0.002 C 
ATOM     26  C   UNL     1      -9.907  -6.754  -2.947  0.00  0.00    +0.004 C 
ATOM     27  C   UNL     1     -10.865  -7.814  -3.546  0.00  0.00    +0.000 C 
ATOM     28  C   UNL     1     -10.986  -7.368  -5.024  0.00  0.00    +0.000 C 
ATOM     29  C   UNL     1     -11.009  -5.827  -4.954  0.00  0.00    +0.004 C 
ENDBRANCH  24  25
ENDBRANCH  10  24
TORSDOF 6
