REMARK  Name = ZINC02957500
REMARK  7 active torsions:
REMARK  status: ('A' for Active; 'I' for Inactive)
REMARK    1  A    between atoms: C_1  and  C_2
REMARK    2  A    between atoms: C_2  and  C_4
REMARK    3  A    between atoms: C_2  and  N_10
REMARK    4  A    between atoms: C_11  and  C_13
REMARK    5  A    between atoms: C_21  and  C_25
REMARK    6  A    between atoms: N_27  and  C_28
REMARK    7  A    between atoms: C_28  and  C_29
REMARK                            x       y       z     vdW  Elec       q    Type
REMARK                         _______ _______ _______ _____ _____    ______ ____
ROOT
ATOM      1  C   UNL     1       3.559   3.506  -0.013  0.00  0.00    +0.039 A 
ATOM      2  C   UNL     1       3.635   2.110  -0.020  0.00  0.00    +0.014 A 
ATOM      3  C   UNL     1       2.484   1.352  -0.015  0.00  0.00    +0.016 A 
ATOM      4  C   UNL     1       1.242   1.986   0.001  0.00  0.00    +0.065 A 
ATOM      5  C   UNL     1       1.160   3.381   0.009  0.00  0.00    +0.063 A 
ATOM      6  C   UNL     1       2.319   4.143   0.002  0.00  0.00    +0.040 A 
ATOM      7  N   UNL     1      -0.095   4.026   0.023  0.00  0.00    -0.281 N 
ATOM      8  C   UNL     1      -1.233   3.278   0.030  0.00  0.00    +0.162 A 
ATOM      9  C   UNL     1      -2.440   3.966   0.044  0.00  0.00    +0.119 A 
ATOM     10  S   UNL     1      -1.911   5.664   0.047  0.00  0.00    -0.055 S 
ATOM     11  C   UNL     1      -0.206   5.390   0.030  0.00  0.00    +0.132 A 
ATOM     12  S   UNL     1       1.051   6.552   0.024  0.00  0.00    -0.024 S 
ATOM     13  N   UNL     1      -1.175   1.884   0.018  0.00  0.00    -0.189 NA
ATOM     14  C   UNL     1      -0.014   1.212   0.009  0.00  0.00    +0.281 A 
ATOM     15  O   UNL     1       0.002  -0.004   0.002  0.00  0.00    -0.265 OA
ENDROOT
BRANCH   1  17
ATOM     16  N   UNL     1       6.001   3.699  -0.035  0.00  0.00    -0.305 N 
ATOM     17  C   UNL     1       4.801   4.312  -0.021  0.00  0.00    +0.245 C 
ATOM     18  O   UNL     1       4.738   5.525  -0.015  0.00  0.00    -0.270 OA
ATOM     19  H   UNL     1       6.058   2.601  -0.040  0.00  0.00    +0.150 HD
BRANCH  16  21
ATOM     20  C   UNL     1       7.603   4.873   1.393  0.00  0.00    +0.033 C 
ATOM     21  C   UNL     1       7.230   4.496  -0.043  0.00  0.00    +0.100 C 
BRANCH  21  22
ATOM     22  C   UNL     1       8.347   3.692  -0.657  0.00  0.00    -0.027 A 
ATOM     23  C   UNL     1       8.470   2.346  -0.367  0.00  0.00    +0.005 A 
ATOM     24  C   UNL     1       9.491   1.607  -0.934  0.00  0.00    +0.000 A 
ATOM     25  C   UNL     1      10.395   2.216  -1.784  0.00  0.00    +0.000 A 
ATOM     26  C   UNL     1      10.275   3.564  -2.071  0.00  0.00    +0.000 A 
ATOM     27  C   UNL     1       9.251   4.301  -1.507  0.00  0.00    +0.005 A 
ENDBRANCH  21  22
ENDBRANCH  16  21
ENDBRANCH   1  17
BRANCH   9  28
ATOM     28  C   UNL     1      -3.755   3.447   0.053  0.00  0.00    +0.254 C 
ATOM     29  O   UNL     1      -3.934   2.242   0.049  0.00  0.00    -0.270 OA
ATOM     30  N   UNL     1      -4.810   4.286   0.066  0.00  0.00    -0.308 N 
ATOM     31  H   UNL     1      -4.647   5.374   0.070  0.00  0.00    +0.149 HD
BRANCH  30  32
ATOM     32  C   UNL     1      -6.173   3.749   0.075  0.00  0.00    +0.136 C 
BRANCH  32  33
ATOM     33  C   UNL     1      -7.176   4.904   0.090  0.00  0.00    +0.135 C 
ATOM     34  C   UNL     1      -8.614   4.348   0.100  0.00  0.00    +0.035 C 
ATOM     35  C   UNL     1      -9.238   4.936   1.388  0.00  0.00    +0.031 C 
ATOM     36  C   UNL     1      -8.320   6.153   1.669  0.00  0.00    +0.160 C 
ATOM     37  O   UNL     1      -7.010   5.681   1.288  0.00  0.00    -0.375 OA
ENDBRANCH  32  33
ENDBRANCH  30  32
ENDBRANCH   9  28
TORSDOF 6
