REMARK  Name = ZINC22231934
REMARK  9 active torsions:
REMARK  status: ('A' for Active; 'I' for Inactive)
REMARK    1  A    between atoms: C_1  and  N_2
REMARK    2  A    between atoms: N_2  and  C_3
REMARK    3  A    between atoms: C_3  and  C_4
REMARK    4  A    between atoms: N_6  and  C_16
REMARK    5  A    between atoms: C_8  and  C_9
REMARK    6  A    between atoms: C_22  and  C_24
REMARK    7  A    between atoms: C_24  and  C_25
REMARK    8  A    between atoms: C_25  and  C_27
REMARK    9  A    between atoms: C_25  and  N_33
REMARK                            x       y       z     vdW  Elec       q    Type
REMARK                         _______ _______ _______ _____ _____    ______ ____
ROOT
ATOM      1  C   UNL     1       3.173   3.154  -1.685  0.00  0.00    +0.132 C 
ATOM      2  N   UNL     1       2.361   2.134  -1.018  0.00  0.00    -0.300 N 
ATOM      3  C   UNL     1       2.297   0.886  -1.524  0.00  0.00    +0.218 C 
ATOM      4  O   UNL     1       1.700   0.018  -0.924  0.00  0.00    -0.276 OA
ENDROOT
BRANCH   2   5
ATOM      5  C   UNL     1       1.620   2.468   0.201  0.00  0.00    +0.146 C 
BRANCH   5   6
ATOM      6  C   UNL     1       0.213   2.868  -0.161  0.00  0.00    +0.016 A 
ATOM      7  C   UNL     1      -0.336   2.817  -1.394  0.00  0.00    +0.120 A 
ATOM      8  N   UNL     1      -1.616   3.261  -1.299  0.00  0.00    -0.239 N 
ATOM      9  N   UNL     1      -1.862   3.591   0.040  0.00  0.00    -0.166 NA
ATOM     10  C   UNL     1      -0.763   3.362   0.727  0.00  0.00    +0.098 A 
BRANCH  10  11
ATOM     11  C   UNL     1      -0.586   3.579   2.184  0.00  0.00    +0.003 A 
ATOM     12  C   UNL     1       0.081   2.629   2.956  0.00  0.00    +0.011 A 
ATOM     13  C   UNL     1       0.248   2.838   4.310  0.00  0.00    +0.020 A 
ATOM     14  C   UNL     1      -0.255   3.983   4.903  0.00  0.00    +0.041 A 
ATOM     15  C   UNL     1      -0.922   4.927   4.141  0.00  0.00    +0.020 A 
ATOM     16  C   UNL     1      -1.090   4.730   2.786  0.00  0.00    +0.011 A 
ATOM     17 CL   UNL     1      -0.048   4.237   6.608  0.00  0.00    -0.084 Cl
ENDBRANCH  10  11
BRANCH   8  18
ATOM     18  C   UNL     1      -2.532   3.366  -2.355  0.00  0.00    +0.065 A 
ATOM     19  C   UNL     1      -2.155   3.002  -3.641  0.00  0.00    +0.028 A 
ATOM     20  C   UNL     1      -3.062   3.101  -4.678  0.00  0.00    +0.002 A 
ATOM     21  C   UNL     1      -4.340   3.573  -4.439  0.00  0.00    +0.000 A 
ATOM     22  C   UNL     1      -4.716   3.941  -3.160  0.00  0.00    +0.002 A 
ATOM     23  C   UNL     1      -3.816   3.838  -2.118  0.00  0.00    +0.028 A 
ENDBRANCH   8  18
ENDBRANCH   5   6
ENDBRANCH   2   5
BRANCH   3  24
ATOM     24  C   UNL     1       2.967   0.571  -2.837  0.00  0.00    +0.123 C 
BRANCH  24  25
ATOM     25  C   UNL     1       2.635  -0.866  -3.246  0.00  0.00    +0.113 C 
BRANCH  25  26
ATOM     26  N   UNL     1       1.200  -0.977  -3.519  0.00  0.00    -0.292 N 
ATOM     27  C   UNL     1       0.574  -2.160  -3.361  0.00  0.00    +0.298 C 
ATOM     28  O   UNL     1       1.179  -3.112  -2.906  0.00  0.00    -0.253 OA
ATOM     29  N   UNL     1      -0.722  -2.288  -3.707  0.00  0.00    -0.313 N 
ATOM     30  H   UNL     1       0.634  -0.095  -3.853  0.00  0.00    +0.151 HD
ATOM     31  H   UNL     1      -1.233  -3.253  -3.578  0.00  0.00    +0.146 HD
ATOM     32  H   UNL     1      -1.269  -1.427  -4.119  0.00  0.00    +0.146 HD
ENDBRANCH  25  26
BRANCH  25  33
ATOM     33  C   UNL     1       3.412  -1.226  -4.486  0.00  0.00    -0.027 A 
ATOM     34  C   UNL     1       3.028  -0.720  -5.714  0.00  0.00    +0.005 A 
ATOM     35  C   UNL     1       3.743  -1.047  -6.851  0.00  0.00    +0.000 A 
ATOM     36  C   UNL     1       4.836  -1.889  -6.762  0.00  0.00    +0.000 A 
ATOM     37  C   UNL     1       5.217  -2.399  -5.535  0.00  0.00    +0.000 A 
ATOM     38  C   UNL     1       4.504  -2.069  -4.397  0.00  0.00    +0.005 A 
ENDBRANCH  25  33
ENDBRANCH  24  25
ENDBRANCH   3  24
TORSDOF 8
