REMARK  Name = ZINC01776424
REMARK  5 active torsions:
REMARK  status: ('A' for Active; 'I' for Inactive)
REMARK    1  A    between atoms: C_5  and  C_7
REMARK    2  A    between atoms: N_11  and  C_15
REMARK    3  A    between atoms: C_15  and  C_16
REMARK    4  A    between atoms: N_18  and  C_19
REMARK    5  A    between atoms: C_20  and  C_28
REMARK                            x       y       z     vdW  Elec       q    Type
REMARK                         _______ _______ _______ _____ _____    ______ ____
ROOT
ATOM      1  C   UNL     1       0.474   3.583  -0.304  0.00  0.00    +0.236 C 
ATOM      2  O   UNL     1       1.459   4.282  -0.417  0.00  0.00    -0.274 OA
ATOM      3  N   UNL     1       0.589   2.242  -0.373  0.00  0.00    -0.278 N 
ATOM      4  H   UNL     1      -0.199   1.683  -0.283  0.00  0.00    +0.155 HD
ENDROOT
BRANCH   3   5
ATOM      5  C   UNL     1       1.832   1.661  -0.575  0.00  0.00    +0.084 A 
ATOM      6  C   UNL     1       2.148   0.314  -0.674  0.00  0.00    +0.068 A 
ATOM      7  C   UNL     1       3.542  -0.034  -0.893  0.00  0.00    -0.023 A 
ATOM      8  C   UNL     1       4.390   1.014  -0.978  0.00  0.00    -0.004 A 
ATOM      9  S   UNL     1       3.365   2.443  -0.771  0.00  0.00    -0.077 S 
ATOM     10  C   UNL     1       5.870   0.962  -1.198  0.00  0.00    +0.043 C 
ATOM     11  C   UNL     1       6.347  -0.475  -0.941  0.00  0.00    +0.005 C 
ATOM     12  C   UNL     1       5.425  -1.442  -1.689  0.00  0.00    +0.005 C 
ATOM     13  C   UNL     1       4.047  -1.466  -1.024  0.00  0.00    +0.037 C 
BRANCH   6  14
ATOM     14  C   UNL     1       1.115  -0.720  -0.560  0.00  0.00    +0.244 C 
ATOM     15  O   UNL     1       0.532  -1.109  -1.555  0.00  0.00    -0.270 OA
ATOM     16  N   UNL     1       0.811  -1.240   0.645  0.00  0.00    -0.325 N 
ATOM     17  H   UNL     1       1.275  -0.929   1.438  0.00  0.00    +0.145 HD
ATOM     18  H   UNL     1       0.127  -1.924   0.720  0.00  0.00    +0.145 HD
ENDBRANCH   6  14
ENDBRANCH   3   5
BRANCH   1  19
ATOM     19  C   UNL     1      -0.877   4.214  -0.085  0.00  0.00    +0.213 C 
BRANCH  19  24
ATOM     20  C   UNL     1      -0.737   8.773  -2.036  0.00  0.00    +0.029 C 
ATOM     21  C   UNL     1      -0.683   7.826  -1.066  0.00  0.00    +0.080 C 
ATOM     22  C   UNL     1      -0.836   6.360  -1.172  0.00  0.00    +0.261 C 
ATOM     23  O   UNL     1      -1.043   5.814  -2.240  0.00  0.00    -0.269 OA
ATOM     24  N   UNL     1      -0.735   5.672  -0.048  0.00  0.00    -0.219 N 
ATOM     25  C   UNL     1      -0.509   6.281   1.134  0.00  0.00    +0.286 C 
ATOM     26  O   UNL     1      -0.400   5.777   2.235  0.00  0.00    -0.262 OA
ATOM     27  S   UNL     1      -0.408   8.008   0.691  0.00  0.00    -0.026 S 
BRANCH  20  32
ATOM     28  C   UNL     1       0.658  11.778  -0.281  0.00  0.00    +0.001 A 
ATOM     29  C   UNL     1       0.249  12.796  -1.126  0.00  0.00    +0.001 A 
ATOM     30  C   UNL     1      -0.480  12.508  -2.266  0.00  0.00    +0.020 A 
ATOM     31  C   UNL     1      -0.805  11.202  -2.570  0.00  0.00    +0.048 A 
ATOM     32  C   UNL     1      -0.395  10.167  -1.721  0.00  0.00    -0.005 A 
ATOM     33  C   UNL     1       0.338  10.469  -0.567  0.00  0.00    +0.009 A 
ATOM     34 CL   UNL     1      -1.721  10.843  -4.001  0.00  0.00    -0.083 Cl
ENDBRANCH  20  32
ENDBRANCH  19  24
ENDBRANCH   1  19
TORSDOF 5
