REMARK  Name = ZINC10135591
REMARK  10 active torsions:
REMARK  status: ('A' for Active; 'I' for Inactive)
REMARK    1  A    between atoms: C_1  and  C_2
REMARK    2  A    between atoms: C_2  and  C_3
REMARK    3  A    between atoms: N_11  and  C_15
REMARK    4  A    between atoms: C_15  and  C_16
REMARK    5  A    between atoms: C_16  and  O_18
REMARK    6  A    between atoms: O_18  and  C_19
REMARK    7  A    between atoms: C_19  and  C_20
REMARK    8  A    between atoms: N_22  and  C_23
REMARK    9  A    between atoms: C_28  and  C_33
REMARK   10  A    between atoms: C_30  and  C_32
REMARK                            x       y       z     vdW  Elec       q    Type
REMARK                         _______ _______ _______ _____ _____    ______ ____
ROOT
ATOM      1  C   UNL     1      -1.432  -0.052  -7.062  0.00  0.00    +0.238 C 
ENDROOT
BRANCH   1  10
ATOM      2  C   UNL     1      -1.572   3.594 -11.897  0.00  0.00    -0.011 C 
ATOM      3  C   UNL     1      -1.995   3.990 -10.481  0.00  0.00    +0.006 C 
ATOM      4  C   UNL     1      -3.174   3.120 -10.040  0.00  0.00    +0.035 C 
ATOM      5  C   UNL     1      -2.765   1.651 -10.074  0.00  0.00    +0.113 C 
ATOM      6  C   UNL     1      -2.321   1.248 -11.476  0.00  0.00    +0.035 C 
ATOM      7  C   UNL     1      -1.144   2.125 -11.912  0.00  0.00    +0.006 C 
ATOM      8  C   UNL     1      -1.661   1.389  -9.076  0.00  0.00    +0.247 C 
ATOM      9  O   UNL     1      -0.553   1.881  -9.061  0.00  0.00    -0.273 OA
ATOM     10  N   UNL     1      -2.167   0.491  -8.206  0.00  0.00    -0.213 N 
ATOM     11  C   UNL     1      -3.424   0.153  -8.522  0.00  0.00    +0.310 C 
ATOM     12  O   UNL     1      -4.089  -0.643  -7.889  0.00  0.00    -0.252 OA
ATOM     13  N   UNL     1      -3.869   0.798  -9.617  0.00  0.00    -0.285 N 
ATOM     14  H   UNL     1      -4.744   0.712 -10.026  0.00  0.00    +0.151 HD
BRANCH   2  16
ATOM     15  C   UNL     1      -0.058   4.161 -13.802  0.00  0.00    +0.004 C 
ATOM     16  C   UNL     1      -0.400   4.471 -12.343  0.00  0.00    -0.000 C 
ENDBRANCH   2  16
ENDBRANCH   1  10
BRANCH   1  17
ATOM     17  C   UNL     1      -1.662   0.821  -5.856  0.00  0.00    +0.326 C 
ATOM     18  O   UNL     1      -2.369   1.798  -5.943  0.00  0.00    -0.249 OA
BRANCH  17  19
ATOM     19  O   UNL     1      -1.083   0.515  -4.684  0.00  0.00    -0.454 OA
BRANCH  19  20
ATOM     20  C   UNL     1      -1.349   1.401  -3.565  0.00  0.00    +0.327 C 
BRANCH  20  21
ATOM     21  C   UNL     1      -0.620   0.902  -2.344  0.00  0.00    +0.251 C 
ATOM     22  O   UNL     1       0.057  -0.102  -2.411  0.00  0.00    -0.272 OA
ATOM     23  N   UNL     1      -0.721   1.571  -1.179  0.00  0.00    -0.309 N 
ATOM     24  H   UNL     1      -1.263   2.374  -1.126  0.00  0.00    +0.149 HD
BRANCH  23  25
ATOM     25  C   UNL     1      -0.013   1.086   0.008  0.00  0.00    +0.076 C 
ATOM     26  C   UNL     1       1.423   1.615  -0.003  0.00  0.00    +0.022 C 
ATOM     27  C   UNL     1       2.163   1.109   1.237  0.00  0.00    +0.002 C 
ATOM     28  C   UNL     1       1.446   1.602   2.495  0.00  0.00    +0.003 C 
ATOM     29  C   UNL     1       0.011   1.072   2.506  0.00  0.00    -0.009 C 
ATOM     30  C   UNL     1      -0.729   1.579   1.267  0.00  0.00    +0.009 C 
ATOM     31  C   UNL     1      -2.164   1.050   1.278  0.00  0.00    +0.009 C 
ATOM     32  C   UNL     1       0.032  -0.457   2.498  0.00  0.00    +0.008 C 
ENDBRANCH  23  25
ENDBRANCH  20  21
ENDBRANCH  19  20
ENDBRANCH  17  19
ENDBRANCH   1  17
TORSDOF 7
