REMARK  Name = ZINC12471171
REMARK  8 active torsions:
REMARK  status: ('A' for Active; 'I' for Inactive)
REMARK    1  A    between atoms: C_1  and  C_2
REMARK    2  A    between atoms: C_3  and  C_25
REMARK    3  A    between atoms: C_7  and  N_24
REMARK    4  A    between atoms: C_9  and  C_11
REMARK    5  A    between atoms: C_11  and  S_12
REMARK    6  A    between atoms: S_12  and  C_13
REMARK    7  A    between atoms: C_16  and  C_19
REMARK    8  A    between atoms: N_17  and  C_18
REMARK                            x       y       z     vdW  Elec       q    Type
REMARK                         _______ _______ _______ _____ _____    ______ ____
ROOT
ATOM      1  C   UNL     1     -11.409  -5.985   1.515  0.00  0.00    +0.045 C 
ATOM      2  C   UNL     1     -10.703  -5.449   0.297  0.00  0.00    -0.028 A 
ATOM      3  C   UNL     1     -11.368  -5.289  -0.857  0.00  0.00    -0.008 A 
ATOM      4  S   UNL     1     -10.130  -4.645  -1.966  0.00  0.00    -0.074 S 
ATOM      5  C   UNL     1      -8.752  -4.607  -0.850  0.00  0.00    +0.114 A 
ATOM      6  C   UNL     1      -9.295  -5.098   0.358  0.00  0.00    +0.050 A 
ATOM      7  C   UNL     1      -8.385  -5.174   1.448  0.00  0.00    +0.128 A 
ATOM      8  N   UNL     1      -7.129  -4.799   1.268  0.00  0.00    -0.216 NA
ATOM      9  C   UNL     1      -6.691  -4.343   0.108  0.00  0.00    +0.143 A 
ATOM     10  N   UNL     1      -7.487  -4.249  -0.939  0.00  0.00    -0.224 NA
ATOM     11  C   UNL     1     -12.817  -5.584  -1.147  0.00  0.00    +0.052 C 
ENDROOT
BRANCH   7  12
ATOM     12  N   UNL     1      -8.807  -5.640   2.681  0.00  0.00    -0.343 N 
ATOM     13  H   UNL     1      -9.592  -6.206   2.743  0.00  0.00    +0.144 HD
ATOM     14  H   UNL     1      -8.317  -5.401   3.483  0.00  0.00    +0.144 HD
ENDBRANCH   7  12
BRANCH   9  15
ATOM     15  C   UNL     1      -5.248  -3.928  -0.022  0.00  0.00    +0.153 C 
BRANCH  15  16
ATOM     16  S   UNL     1      -5.087  -2.172   0.384  0.00  0.00    -0.078 S 
BRANCH  16  17
ATOM     17  C   UNL     1      -3.352  -1.963   0.155  0.00  0.00    +0.192 A 
ATOM     18  N   UNL     1      -2.497  -2.891  -0.212  0.00  0.00    -0.122 NA
ATOM     19  N   UNL     1      -1.313  -2.398  -0.287  0.00  0.00    -0.125 NA
ATOM     20  C   UNL     1      -1.337  -1.123   0.036  0.00  0.00    +0.200 A 
ATOM     21  N   UNL     1      -2.646  -0.806   0.326  0.00  0.00    -0.303 N 
ATOM     22  C   UNL     1      -3.170   0.500   0.734  0.00  0.00    +0.153 C 
BRANCH  20  23
ATOM     23  C   UNL     1      -0.185  -0.209   0.075  0.00  0.00    +0.172 A 
ATOM     24  C   UNL     1       1.128  -0.575   0.070  0.00  0.00    +0.053 A 
ATOM     25  C   UNL     1       1.880   0.615   0.115  0.00  0.00    +0.042 A 
ATOM     26  C   UNL     1       1.002   1.637   0.145  0.00  0.00    +0.196 A 
ATOM     27  O   UNL     1      -0.244   1.137   0.120  0.00  0.00    -0.460 OA
ENDBRANCH  20  23
ENDBRANCH  16  17
ENDBRANCH  15  16
ENDBRANCH   9  15
TORSDOF 5
