REMARK  Name = ZINC46542263
REMARK  7 active torsions:
REMARK  status: ('A' for Active; 'I' for Inactive)
REMARK    1  A    between atoms: C_1  and  C_2
REMARK    2  A    between atoms: C_10  and  C_11
REMARK    3  A    between atoms: N_13  and  N_14
REMARK    4  A    between atoms: C_15  and  C_17
REMARK    5  A    between atoms: C_18  and  C_19
REMARK    6  A    between atoms: C_22  and  C_25
REMARK    7  A    between atoms: N_27  and  C_28
REMARK                            x       y       z     vdW  Elec       q    Type
REMARK                         _______ _______ _______ _____ _____    ______ ____
ROOT
ATOM      1  N   UNL     1       0.062  -0.867   4.814  0.00  0.00    -0.231 N 
ATOM      2  C   UNL     1       0.085  -1.776   5.809  0.00  0.00    +0.253 C 
ATOM      3  O   UNL     1       0.098  -2.964   5.548  0.00  0.00    -0.269 OA
ATOM      4  H   UNL     1       0.052   0.080   5.022  0.00  0.00    +0.173 HD
ENDROOT
BRANCH   1   7
ATOM      5  C   UNL     1       0.032  -0.382   2.484  0.00  0.00    +0.296 C 
ATOM      6  O   UNL     1       0.019   0.806   2.745  0.00  0.00    -0.265 OA
ATOM      7  N   UNL     1       0.054  -1.291   3.479  0.00  0.00    -0.228 N 
ATOM      8  H   UNL     1       0.065  -2.238   3.270  0.00  0.00    +0.173 HD
BRANCH   5  18
ATOM      9  C   UNL     1      -0.018   1.503   0.010  0.00  0.00    +0.048 C 
ATOM     10  C   UNL     1       0.002  -0.004   0.002  0.00  0.00    +0.008 A 
ATOM     11  C   UNL     1       0.009  -0.877  -1.171  0.00  0.00    +0.024 A 
ATOM     12  C   UNL     1      -0.001  -0.654  -2.551  0.00  0.00    +0.012 A 
ATOM     13  C   UNL     1       0.009  -1.718  -3.408  0.00  0.00    +0.001 A 
ATOM     14  C   UNL     1       0.029  -3.017  -2.918  0.00  0.00    +0.004 A 
ATOM     15  C   UNL     1       0.039  -3.257  -1.561  0.00  0.00    +0.047 A 
ATOM     16  C   UNL     1       0.029  -2.191  -0.669  0.00  0.00    +0.136 A 
ATOM     17  O   UNL     1       0.034  -2.113   0.676  0.00  0.00    -0.450 OA
ATOM     18  C   UNL     1       0.024  -0.826   1.083  0.00  0.00    +0.195 A 
ENDBRANCH   5  18
ENDBRANCH   1   7
BRANCH   2  19
ATOM     19  C   UNL     1       0.093  -1.333   7.207  0.00  0.00    +0.069 C 
ATOM     20  C   UNL     1       0.115  -2.241   8.201  0.00  0.00    +0.013 C 
BRANCH  20  21
ATOM     21  C   UNL     1       0.123  -1.796   9.605  0.00  0.00    -0.025 A 
ATOM     22  C   UNL     1       0.102  -0.430   9.906  0.00  0.00    +0.008 A 
ATOM     23  C   UNL     1       0.110  -0.015  11.219  0.00  0.00    +0.013 A 
ATOM     24  C   UNL     1       0.138  -0.957  12.250  0.00  0.00    +0.037 A 
ATOM     25  C   UNL     1       0.159  -2.321  11.950  0.00  0.00    +0.013 A 
ATOM     26  C   UNL     1       0.146  -2.738  10.638  0.00  0.00    +0.008 A 
BRANCH  24  27
ATOM     27  C   UNL     1       0.146  -0.510  13.659  0.00  0.00    +0.244 C 
ATOM     28  O   UNL     1       0.128   0.677  13.920  0.00  0.00    -0.270 OA
ATOM     29  N   UNL     1       0.174  -1.418  14.654  0.00  0.00    -0.314 N 
ATOM     30  C   UNL     1       0.182  -0.975  16.050  0.00  0.00    +0.128 C 
ATOM     31  H   UNL     1       0.188  -2.365  14.446  0.00  0.00    +0.149 HD
ENDBRANCH  24  27
ENDBRANCH  20  21
ENDBRANCH   2  19
TORSDOF 5
