REMARK  Name = ZINC02092826
REMARK  7 active torsions:
REMARK  status: ('A' for Active; 'I' for Inactive)
REMARK    1  A    between atoms: C_1  and  C_2
REMARK    2  A    between atoms: C_2  and  C_3
REMARK    3  A    between atoms: C_3  and  C_4
REMARK    4  A    between atoms: C_4  and  S_5
REMARK    5  A    between atoms: S_5  and  C_6
REMARK    6  A    between atoms: C_19  and  C_22
REMARK    7  A    between atoms: C_22  and  C_23
REMARK                            x       y       z     vdW  Elec       q    Type
REMARK                         _______ _______ _______ _____ _____    ______ ____
ROOT
ATOM      1  C   UNL     1      -5.151   1.617   4.061  0.00  0.00    +0.212 A 
ATOM      2  N   UNL     1      -6.401   1.388   4.456  0.00  0.00    -0.184 NA
ATOM      3  C   UNL     1      -6.827   1.916   5.591  0.00  0.00    +0.248 A 
ATOM      4  C   UNL     1      -5.936   2.712   6.347  0.00  0.00    +0.156 A 
ATOM      5  N   UNL     1      -4.704   2.897   5.899  0.00  0.00    -0.141 NA
ATOM      6  N   UNL     1      -4.328   2.358   4.791  0.00  0.00    -0.122 NA
ATOM      7  C   UNL     1      -6.396   3.321   7.612  0.00  0.00    +0.028 A 
ATOM      8  C   UNL     1      -5.633   3.254   8.771  0.00  0.00    +0.012 A 
ATOM      9  C   UNL     1      -6.084   3.864   9.925  0.00  0.00    +0.001 A 
ATOM     10  C   UNL     1      -7.290   4.543   9.934  0.00  0.00    +0.002 A 
ATOM     11  C   UNL     1      -8.063   4.612   8.789  0.00  0.00    +0.023 A 
ATOM     12  C   UNL     1      -7.628   4.001   7.628  0.00  0.00    +0.039 A 
ATOM     13  N   UNL     1      -8.391   4.037   6.456  0.00  0.00    -0.309 N 
ATOM     14  C   UNL     1      -8.996   2.800   5.973  0.00  0.00    +0.262 C 
ATOM     15  O   UNL     1      -8.088   1.706   6.038  0.00  0.00    -0.453 OA
ATOM     16  H   UNL     1      -8.515   4.869   5.973  0.00  0.00    +0.150 HD
ENDROOT
BRANCH  14  17
ATOM     17  C   UNL     1     -10.224   2.479   6.827  0.00  0.00    +0.062 C 
ATOM     18  C   UNL     1     -10.971   1.290   6.220  0.00  0.00    +0.009 C 
ENDBRANCH  14  17
BRANCH   1  19
ATOM     19  S   UNL     1      -4.578   0.917   2.549  0.00  0.00    -0.084 S 
BRANCH  19  20
ATOM     20  C   UNL     1      -2.880   1.543   2.537  0.00  0.00    +0.077 C 
BRANCH  20  21
ATOM     21  C   UNL     1      -2.164   1.050   1.278  0.00  0.00    +0.011 C 
BRANCH  21  23
ATOM     22  C   UNL     1      -0.013   1.086   0.008  0.00  0.00    +0.004 C 
ATOM     23  C   UNL     1      -0.729   1.579   1.267  0.00  0.00    -0.003 C 
ENDBRANCH  21  23
ENDBRANCH  20  21
ENDBRANCH  19  20
ENDBRANCH   1  19
TORSDOF 5
