REMARK  Name = ZINC62205347
REMARK  8 active torsions:
REMARK  status: ('A' for Active; 'I' for Inactive)
REMARK    1  A    between atoms: C_1  and  C_2
REMARK    2  A    between atoms: C_5  and  N_24
REMARK    3  A    between atoms: C_7  and  N_8
REMARK    4  A    between atoms: C_9  and  C_11
REMARK    5  A    between atoms: N_13  and  C_14
REMARK    6  A    between atoms: C_19  and  C_23
REMARK    7  A    between atoms: C_20  and  C_21
REMARK    8  A    between atoms: C_20  and  C_22
REMARK                            x       y       z     vdW  Elec       q    Type
REMARK                         _______ _______ _______ _____ _____    ______ ____
ROOT
ATOM      1  N   UNL     1      -2.144  -1.385   3.196  0.00  0.00    -0.277 N 
ATOM      2  C   UNL     1      -1.077  -1.466   4.015  0.00  0.00    +0.303 C 
ATOM      3  O   UNL     1      -0.082  -2.062   3.658  0.00  0.00    -0.265 OA
ATOM      4  H   UNL     1      -2.915  -0.855   3.454  0.00  0.00    +0.155 HD
ENDROOT
BRANCH   1  11
ATOM      5  C   UNL     1      -4.602  -2.473   2.261  0.00  0.00    +0.045 C 
ATOM      6  C   UNL     1      -3.320  -2.613   1.482  0.00  0.00    -0.029 A 
ATOM      7  C   UNL     1      -3.315  -3.281   0.273  0.00  0.00    +0.007 A 
ATOM      8  C   UNL     1      -2.139  -3.410  -0.442  0.00  0.00    +0.033 A 
ATOM      9  C   UNL     1      -0.963  -2.873   0.050  0.00  0.00    +0.128 A 
ATOM     10  C   UNL     1      -0.961  -2.204   1.258  0.00  0.00    +0.056 A 
ATOM     11  C   UNL     1      -2.142  -2.067   1.976  0.00  0.00    +0.039 A 
BRANCH   9  12
ATOM     12  N   UNL     1       0.293  -3.014  -0.719  0.00  0.00    +0.056 N 
ATOM     13  O   UNL     1       0.292  -3.599  -1.777  0.00  0.00    -0.126 OA
ATOM     14  O   UNL     1       1.321  -2.544  -0.290  0.00  0.00    -0.126 OA
ENDBRANCH   9  12
ENDBRANCH   1  11
BRANCH   2  15
ATOM     15  C   UNL     1      -1.118  -0.821   5.362  0.00  0.00    +0.300 C 
ATOM     16  O   UNL     1      -2.113  -0.225   5.719  0.00  0.00    -0.265 OA
ATOM     17  N   UNL     1      -0.050  -0.901   6.180  0.00  0.00    -0.304 N 
ATOM     18  H   UNL     1       0.745  -1.377   5.895  0.00  0.00    +0.149 HD
BRANCH  17  19
ATOM     19  C   UNL     1      -0.091  -0.269   7.501  0.00  0.00    +0.080 C 
ATOM     20  C   UNL     1       1.339   0.066   7.982  0.00  0.00    +0.027 C 
ATOM     21  C   UNL     1       1.518  -0.761   9.292  0.00  0.00    -0.003 C 
ATOM     22  C   UNL     1       1.601  -2.242   8.810  0.00  0.00    +0.005 C 
ATOM     23  C   UNL     1       0.171  -2.577   8.328  0.00  0.00    +0.009 C 
ATOM     24  C   UNL     1      -0.641  -1.267   8.565  0.00  0.00    -0.008 C 
ATOM     25  C   UNL     1       0.056  -0.723   9.861  0.00  0.00    -0.025 C 
ATOM     26  C   UNL     1      -0.391   0.701  10.199  0.00  0.00    +0.012 C 
ATOM     27  C   UNL     1      -0.122  -1.671  11.049  0.00  0.00    +0.012 C 
ATOM     28  C   UNL     1      -2.163  -1.422   8.612  0.00  0.00    +0.013 C 
ENDBRANCH  17  19
ENDBRANCH   2  15
TORSDOF 4
