REMARK  Name = ZINC66908284
REMARK  6 active torsions:
REMARK  status: ('A' for Active; 'I' for Inactive)
REMARK    1  A    between atoms: C_1  and  C_2
REMARK    2  A    between atoms: C_2  and  C_4
REMARK    3  A    between atoms: C_2  and  N_13
REMARK    4  A    between atoms: N_16  and  N_17
REMARK    5  A    between atoms: C_18  and  C_20
REMARK    6  A    between atoms: C_20  and  C_21
REMARK                            x       y       z     vdW  Elec       q    Type
REMARK                         _______ _______ _______ _____ _____    ______ ____
ROOT
ATOM      1  N   UNL     1       0.688  -0.476  -1.203  0.00  0.00    -0.292 N 
ATOM      2  C   UNL     1       2.031  -0.587  -1.215  0.00  0.00    +0.316 C 
ATOM      3  O   UNL     1       2.674  -0.294  -0.225  0.00  0.00    -0.251 OA
ATOM      4  N   UNL     1       2.662  -1.022  -2.324  0.00  0.00    -0.218 N 
ATOM      5  H   UNL     1       0.175  -0.710  -1.993  0.00  0.00    +0.151 HD
ATOM      6  H   UNL     1       3.628  -1.101  -2.332  0.00  0.00    +0.174 HD
ENDROOT
BRANCH   4   7
ATOM      7  N   UNL     1       1.921  -1.359  -3.464  0.00  0.00    -0.233 N 
ATOM      8  C   UNL     1       2.552  -1.793  -4.573  0.00  0.00    +0.234 C 
ATOM      9  O   UNL     1       3.761  -1.893  -4.584  0.00  0.00    -0.274 OA
ATOM     10  H   UNL     1       0.955  -1.279  -3.456  0.00  0.00    +0.173 HD
BRANCH   8  11
ATOM     11  C   UNL     1       1.756  -2.156  -5.800  0.00  0.00    +0.135 C 
BRANCH  11  12
ATOM     12  C   UNL     1       2.692  -2.608  -6.891  0.00  0.00    -0.003 A 
ATOM     13  C   UNL     1       3.133  -1.707  -7.841  0.00  0.00    +0.007 A 
ATOM     14  C   UNL     1       3.992  -2.122  -8.842  0.00  0.00    +0.000 A 
ATOM     15  C   UNL     1       4.410  -3.439  -8.894  0.00  0.00    +0.003 A 
ATOM     16  C   UNL     1       3.970  -4.341  -7.945  0.00  0.00    +0.038 A 
ATOM     17  C   UNL     1       3.114  -3.926  -6.939  0.00  0.00    +0.127 A 
ATOM     18  F   UNL     1       2.687  -4.807  -6.007  0.00  0.00    -0.205 F 
ENDBRANCH  11  12
ENDBRANCH   8  11
ENDBRANCH   4   7
BRANCH   1  20
ATOM     19  C   UNL     1      -0.019   1.526   0.010  0.00  0.00    +0.033 C 
ATOM     20  C   UNL     1       0.002  -0.004   0.002  0.00  0.00    +0.102 C 
BRANCH  20  21
ATOM     21  C   UNL     1      -1.412  -0.526   0.013  0.00  0.00    -0.024 A 
ATOM     22  C   UNL     1      -2.140  -0.568  -1.162  0.00  0.00    +0.009 A 
ATOM     23  C   UNL     1      -3.437  -1.046  -1.157  0.00  0.00    +0.050 A 
ATOM     24  C   UNL     1      -4.011  -1.484   0.026  0.00  0.00    +0.166 A 
ATOM     25  C   UNL     1      -3.277  -1.441   1.209  0.00  0.00    +0.167 A 
ATOM     26  C   UNL     1      -1.976  -0.966   1.196  0.00  0.00    +0.055 A 
ATOM     27  O   UNL     1      -4.055  -1.921   2.222  0.00  0.00    -0.453 OA
ATOM     28  C   UNL     1      -5.405  -1.876   1.725  0.00  0.00    +0.466 C 
ATOM     29  O   UNL     1      -5.248  -1.991   0.298  0.00  0.00    -0.453 OA
ENDBRANCH  20  21
ENDBRANCH   1  20
TORSDOF 5
