REMARK  Name = ZINC03839961
REMARK  5 active torsions:
REMARK  status: ('A' for Active; 'I' for Inactive)
REMARK    1  A    between atoms: C_1  and  C_2
REMARK    2  A    between atoms: C_5  and  N_8
REMARK    3  A    between atoms: C_18  and  C_36
REMARK    4  A    between atoms: C_23  and  C_35
REMARK    5  A    between atoms: C_32  and  C_34
REMARK                            x       y       z     vdW  Elec       q    Type
REMARK                         _______ _______ _______ _____ _____    ______ ____
ROOT
ATOM      1  N   UNL     1      10.936   4.829   1.379  0.00  0.00    -0.269 N 
ATOM      2  C   UNL     1      10.012   3.854   1.274  0.00  0.00    +0.310 C 
ATOM      3  O   UNL     1      10.362   2.692   1.187  0.00  0.00    -0.252 OA
ATOM      4  N   UNL     1       8.701   4.165   1.264  0.00  0.00    -0.248 N 
ATOM      5  C   UNL     1       7.748   3.159   1.155  0.00  0.00    +0.166 A 
ATOM      6  N   UNL     1       6.436   3.262   1.128  0.00  0.00    -0.229 NA
ATOM      7  C   UNL     1       5.643   2.198   1.020  0.00  0.00    +0.057 A 
ATOM      8  C   UNL     1       6.269   0.996   0.936  0.00  0.00    +0.015 A 
ATOM      9  S   UNL     1       7.983   1.442   1.020  0.00  0.00    -0.057 S 
ATOM     10  C   UNL     1       5.644  -0.348   0.806  0.00  0.00    +0.051 C 
ATOM     11  C   UNL     1       4.148  -0.237   1.155  0.00  0.00    -0.021 C 
ATOM     12  C   UNL     1       3.477  -1.548   0.753  0.00  0.00    +0.008 C 
ATOM     13  C   UNL     1       1.946  -1.482   0.850  0.00  0.00    +0.008 C 
ATOM     14  C   UNL     1       1.501  -0.338  -0.045  0.00  0.00    +0.044 C 
ATOM     15  C   UNL     1       0.005  -0.005  -0.017  0.00  0.00    +0.101 C 
ATOM     16  C   UNL     1      -0.015   1.521  -0.018  0.00  0.00    +0.311 C 
ATOM     17  O   UNL     1      -1.007   2.211  -0.018  0.00  0.00    -0.251 OA
ATOM     18  O   UNL     1       1.269   1.980  -0.025  0.00  0.00    -0.461 OA
ATOM     19  C   UNL     1       2.060   0.955   0.614  0.00  0.00    +0.184 C 
ATOM     20  C   UNL     1       3.562   0.971   0.405  0.00  0.00    +0.045 C 
ATOM     21  C   UNL     1       4.124   2.271   0.993  0.00  0.00    +0.043 C 
ATOM     22  C   UNL     1       3.686   3.453   0.126  0.00  0.00    +0.014 C 
ATOM     23  C   UNL     1      -0.694  -0.555  -1.262  0.00  0.00    +0.019 C 
ATOM     24  C   UNL     1       3.991  -0.026   2.662  0.00  0.00    +0.012 C 
ATOM     25  H   UNL     1      10.661   5.759   1.380  0.00  0.00    +0.156 HD
ATOM     26  H   UNL     1       8.422   5.092   1.333  0.00  0.00    +0.158 HD
ENDROOT
BRANCH   1  31
ATOM     27  C   UNL     1      16.433   3.496   1.813  0.00  0.00    +0.044 C 
ATOM     28  C   UNL     1      14.973   3.850   1.698  0.00  0.00    -0.050 A 
ATOM     29  C   UNL     1      14.136   3.078   0.914  0.00  0.00    +0.005 A 
ATOM     30  C   UNL     1      12.797   3.399   0.806  0.00  0.00    +0.023 A 
ATOM     31  C   UNL     1      12.292   4.500   1.486  0.00  0.00    +0.035 A 
ATOM     32  C   UNL     1      13.137   5.277   2.268  0.00  0.00    +0.023 A 
ATOM     33  C   UNL     1      14.474   4.947   2.376  0.00  0.00    +0.005 A 
ENDBRANCH   1  31
TORSDOF 1
