REMARK  Name = ZINC57778896
REMARK  5 active torsions:
REMARK  status: ('A' for Active; 'I' for Inactive)
REMARK    1  A    between atoms: C_6  and  C_7
REMARK    2  A    between atoms: C_7  and  C_8
REMARK    3  A    between atoms: C_14  and  C_16
REMARK    4  A    between atoms: C_16  and  N_17
REMARK    5  A    between atoms: C_21  and  N_27
REMARK                            x       y       z     vdW  Elec       q    Type
REMARK                         _______ _______ _______ _____ _____    ______ ____
ROOT
ATOM      1  C   UNL     1      -1.738  -1.024  -1.408  0.00  0.00    +0.015 A 
ATOM      2  C   UNL     1      -1.464  -2.067  -2.229  0.00  0.00    +0.124 A 
ATOM      3  N   UNL     1      -1.991  -2.032  -3.439  0.00  0.00    -0.233 NA
ATOM      4  C   UNL     1      -2.747  -1.026  -3.823  0.00  0.00    +0.165 A 
ATOM      5  S   UNL     1      -2.778  -0.031  -2.466  0.00  0.00    -0.057 S 
ATOM      6  N   UNL     1      -3.372  -0.834  -5.049  0.00  0.00    -0.263 N 
ATOM      7  C   UNL     1      -3.236  -1.753  -6.026  0.00  0.00    +0.239 C 
ATOM      8  O   UNL     1      -2.569  -2.747  -5.835  0.00  0.00    -0.273 OA
ATOM      9  H   UNL     1      -3.906  -0.039  -5.202  0.00  0.00    +0.157 HD
ENDROOT
BRANCH   1  10
ATOM     10  C   UNL     1      -1.293  -0.775   0.010  0.00  0.00    +0.079 C 
BRANCH  10  16
ATOM     11  C   UNL     1      -0.017   1.378   0.010  0.00  0.00    +0.007 A 
ATOM     12  C   UNL     1       1.170   2.086   0.002  0.00  0.00    +0.038 A 
ATOM     13  C   UNL     1       2.379   1.410  -0.013  0.00  0.00    +0.123 A 
ATOM     14  C   UNL     1       2.396   0.026  -0.021  0.00  0.00    +0.038 A 
ATOM     15  C   UNL     1       1.208  -0.680  -0.013  0.00  0.00    +0.007 A 
ATOM     16  C   UNL     1       0.002  -0.004   0.002  0.00  0.00    -0.042 A 
ATOM     17  F   UNL     1       3.540   2.101  -0.021  0.00  0.00    -0.205 F 
ENDBRANCH  10  16
ENDBRANCH   1  10
BRANCH   7  18
ATOM     18  C   UNL     1      -3.915  -1.545  -7.356  0.00  0.00    +0.224 C 
BRANCH  18  19
ATOM     19  N   UNL     1      -3.615  -2.674  -8.239  0.00  0.00    -0.265 N 
ATOM     20  C   UNL     1      -2.532  -2.774  -9.112  0.00  0.00    +0.091 A 
ATOM     21  C   UNL     1      -1.475  -1.931  -9.418  0.00  0.00    +0.032 A 
ATOM     22  C   UNL     1      -0.535  -2.319 -10.352  0.00  0.00    +0.035 A 
ATOM     23  C   UNL     1      -0.645  -3.546 -10.983  0.00  0.00    +0.130 A 
ATOM     24  C   UNL     1      -1.696  -4.391 -10.683  0.00  0.00    +0.081 A 
ATOM     25  C   UNL     1      -2.644  -4.011  -9.747  0.00  0.00    +0.159 A 
ATOM     26  O   UNL     1      -3.757  -4.613  -9.260  0.00  0.00    -0.407 OA
ATOM     27  C   UNL     1      -4.332  -3.810  -8.352  0.00  0.00    +0.422 A 
ATOM     28  O   UNL     1      -5.344  -4.066  -7.729  0.00  0.00    -0.223 OA
BRANCH  23  29
ATOM     29  N   UNL     1       0.367  -3.954 -11.983  0.00  0.00    +0.057 N 
ATOM     30  O   UNL     1       1.287  -3.216 -12.247  0.00  0.00    -0.126 OA
ATOM     31  O   UNL     1       0.273  -5.025 -12.535  0.00  0.00    -0.126 OA
ENDBRANCH  23  29
ENDBRANCH  18  19
ENDBRANCH   7  18
TORSDOF 5
