REMARK  Name = ZINC63775726
REMARK  10 active torsions:
REMARK  status: ('A' for Active; 'I' for Inactive)
REMARK    1  A    between atoms: C_1  and  C_2
REMARK    2  A    between atoms: C_7  and  C_10
REMARK    3  A    between atoms: C_11  and  C_13
REMARK    4  A    between atoms: C_13  and  O_14
REMARK    5  A    between atoms: O_14  and  C_15
REMARK    6  A    between atoms: C_15  and  C_17
REMARK    7  A    between atoms: C_17  and  C_19
REMARK    8  A    between atoms: C_17  and  N_29
REMARK    9  A    between atoms: C_19  and  C_20
REMARK   10  A    between atoms: C_30  and  C_32
REMARK                            x       y       z     vdW  Elec       q    Type
REMARK                         _______ _______ _______ _____ _____    ______ ____
ROOT
ATOM      1  C   UNL     1      -3.673  -7.058  -2.383  0.00  0.00    +0.186 C 
ENDROOT
BRANCH   1   2
ATOM      2  N   UNL     1      -3.565  -8.496  -2.124  0.00  0.00    -0.298 N 
ATOM      3  C   UNL     1      -3.762  -9.378  -3.124  0.00  0.00    +0.245 C 
ATOM      4  O   UNL     1      -4.029  -8.980  -4.241  0.00  0.00    -0.270 OA
ATOM      5  H   UNL     1      -3.352  -8.813  -1.232  0.00  0.00    +0.150 HD
BRANCH   3   6
ATOM      6  C   UNL     1      -3.653 -10.828  -2.862  0.00  0.00    +0.037 A 
ATOM      7  C   UNL     1      -3.352 -11.288  -1.579  0.00  0.00    +0.014 A 
ATOM      8  C   UNL     1      -3.252 -12.643  -1.341  0.00  0.00    +0.021 A 
ATOM      9  C   UNL     1      -3.449 -13.546  -2.372  0.00  0.00    +0.041 A 
ATOM     10  C   UNL     1      -3.748 -13.096  -3.647  0.00  0.00    +0.021 A 
ATOM     11  C   UNL     1      -3.856 -11.744  -3.896  0.00  0.00    +0.014 A 
ATOM     12 CL   UNL     1      -3.321 -15.250  -2.065  0.00  0.00    -0.084 Cl
ENDBRANCH   3   6
ENDBRANCH   1   2
BRANCH   1  13
ATOM     13  C   UNL     1      -2.853  -6.302  -1.370  0.00  0.00    +0.328 C 
ATOM     14  O   UNL     1      -2.241  -6.902  -0.518  0.00  0.00    -0.249 OA
BRANCH  13  15
ATOM     15  O   UNL     1      -2.802  -4.961  -1.413  0.00  0.00    -0.454 OA
BRANCH  15  16
ATOM     16  C   UNL     1      -2.005  -4.310  -0.422  0.00  0.00    +0.327 C 
BRANCH  16  25
ATOM     17  C   UNL     1      -0.019   1.526   0.010  0.00  0.00    +0.039 C 
ATOM     18  C   UNL     1       0.002  -0.004   0.002  0.00  0.00    +0.133 C 
ATOM     19  C   UNL     1      -1.436  -0.536   0.015  0.00  0.00    +0.139 C 
ATOM     20  N   UNL     1      -1.389  -1.995   0.196  0.00  0.00    -0.294 N 
ATOM     21  C   UNL     1      -0.578  -2.530   1.302  0.00  0.00    +0.139 C 
ATOM     22  C   UNL     1       0.818  -1.901   1.226  0.00  0.00    +0.133 C 
ATOM     23  O   UNL     1       0.691  -0.479   1.161  0.00  0.00    -0.371 OA
ATOM     24  C   UNL     1       1.621  -2.288   2.469  0.00  0.00    +0.039 C 
ATOM     25  C   UNL     1      -2.068  -2.818  -0.627  0.00  0.00    +0.253 C 
ATOM     26  O   UNL     1      -2.731  -2.358  -1.533  0.00  0.00    -0.272 OA
ENDBRANCH  16  25
ENDBRANCH  15  16
ENDBRANCH  13  15
ENDBRANCH   1  13
BRANCH   1  27
ATOM     27  C   UNL     1      -5.138  -6.629  -2.276  0.00  0.00    +0.067 C 
BRANCH  27  28
ATOM     28  C   UNL     1      -5.936  -7.293  -3.368  0.00  0.00    -0.039 C 
ATOM     29  C   UNL     1      -6.647  -8.440  -3.274  0.00  0.00    -0.001 A 
ATOM     30  C   UNL     1      -6.878  -9.378  -2.169  0.00  0.00    +0.010 A 
ATOM     31  C   UNL     1      -7.654 -10.465  -2.384  0.00  0.00    +0.001 A 
ATOM     32  C   UNL     1      -8.240 -10.718  -3.632  0.00  0.00    +0.002 A 
ATOM     33  C   UNL     1      -8.073  -9.902  -4.694  0.00  0.00    +0.026 A 
ATOM     34  C   UNL     1      -7.277  -8.729  -4.582  0.00  0.00    +0.043 A 
ATOM     35  N   UNL     1      -6.969  -7.797  -5.451  0.00  0.00    -0.380 N 
ATOM     36  C   UNL     1      -6.112  -6.807  -4.790  0.00  0.00    +0.144 C 
ATOM     37  H   UNL     1      -7.262  -7.765  -6.375  0.00  0.00    +0.160 HD
ENDBRANCH  27  28
ENDBRANCH   1  27
TORSDOF 8
