REMARK  Name = ZINC41213686
REMARK  7 active torsions:
REMARK  status: ('A' for Active; 'I' for Inactive)
REMARK    1  A    between atoms: C_1  and  C_2
REMARK    2  A    between atoms: C_2  and  O_3
REMARK    3  A    between atoms: O_3  and  C_4
REMARK    4  A    between atoms: C_6  and  C_12
REMARK    5  A    between atoms: C_9  and  O_10
REMARK    6  A    between atoms: N_13  and  N_14
REMARK    7  A    between atoms: C_19  and  C_22
REMARK                            x       y       z     vdW  Elec       q    Type
REMARK                         _______ _______ _______ _____ _____    ______ ____
ROOT
ATOM      1  C   UNL     1      -0.212  -4.964   0.449  0.00  0.00    +0.138 C 
ATOM      2  N   UNL     1      -0.109  -6.247   0.289  0.00  0.00    -0.188 NA
ENDROOT
BRANCH   2   3
ATOM      3  N   UNL     1      -0.647  -7.118   1.246  0.00  0.00    -0.205 N 
ATOM      4  C   UNL     1      -0.538  -8.474   1.078  0.00  0.00    +0.233 A 
ATOM      5  N   UNL     1       0.080  -8.947   0.013  0.00  0.00    -0.173 NA
ATOM      6  C   UNL     1       0.200 -10.266  -0.174  0.00  0.00    +0.296 A 
ATOM      7  O   UNL     1       0.774 -10.699  -1.162  0.00  0.00    -0.264 OA
ATOM      8  C   UNL     1      -0.363 -11.188   0.817  0.00  0.00    +0.124 A 
ATOM      9  N   UNL     1      -0.970 -10.696   1.863  0.00  0.00    -0.171 NA
ATOM     10  N   UNL     1      -1.063  -9.306   2.013  0.00  0.00    -0.247 N 
ATOM     11  C   UNL     1      -0.243 -12.679   0.631  0.00  0.00    +0.073 C 
ATOM     12  H   UNL     1      -1.096  -6.761   2.028  0.00  0.00    +0.177 HD
ATOM     13  H   UNL     1      -1.510  -8.936   2.790  0.00  0.00    +0.192 HD
ENDBRANCH   2   3
BRANCH   1  16
ATOM     14  C   UNL     1       0.777  -1.811  -1.336  0.00  0.00    +0.163 A 
ATOM     15  C   UNL     1       0.244  -2.666  -0.389  0.00  0.00    +0.059 A 
ATOM     16  C   UNL     1       0.354  -4.048  -0.559  0.00  0.00    -0.001 A 
ATOM     17  C   UNL     1       1.002  -4.560  -1.686  0.00  0.00    +0.028 A 
ATOM     18  C   UNL     1       1.531  -3.701  -2.627  0.00  0.00    +0.063 A 
ATOM     19  C   UNL     1       1.417  -2.328  -2.460  0.00  0.00    +0.173 A 
ATOM     20 BR   UNL     1       2.408  -4.397  -4.151  0.00  0.00    -0.046 Br
BRANCH  19  21
ATOM     21  O   UNL     1       1.935  -1.486  -3.393  0.00  0.00    -0.503 OA
ATOM     22  H   UNL     1       2.854  -1.234  -3.228  0.00  0.00    +0.292 HD
ENDBRANCH  19  21
BRANCH  14  23
ATOM     23  O   UNL     1       0.671  -0.465  -1.174  0.00  0.00    -0.489 OA
BRANCH  23  25
ATOM     24  C   UNL     1      -0.019   1.526   0.010  0.00  0.00    +0.048 C 
ATOM     25  C   UNL     1       0.002  -0.004   0.002  0.00  0.00    +0.226 C 
ENDBRANCH  23  25
ENDBRANCH  14  23
ENDBRANCH   1  16
TORSDOF 5
