REMARK  Name = ZINC14476029
REMARK  7 active torsions:
REMARK  status: ('A' for Active; 'I' for Inactive)
REMARK    1  A    between atoms: C_1  and  C_2
REMARK    2  A    between atoms: C_2  and  C_3
REMARK    3  A    between atoms: C_3  and  N_4
REMARK    4  A    between atoms: C_5  and  C_7
REMARK    5  A    between atoms: C_14  and  C_23
REMARK    6  A    between atoms: C_25  and  N_30
REMARK    7  A    between atoms: C_28  and  O_29
REMARK                            x       y       z     vdW  Elec       q    Type
REMARK                         _______ _______ _______ _____ _____    ______ ____
ROOT
ATOM      1  C   UNL     1       1.384  -4.121   2.227  0.00  0.00    +0.058 A 
ATOM      2  C   UNL     1       0.696  -4.826   1.237  0.00  0.00    +0.015 A 
ATOM      3  C   UNL     1       0.723  -6.203   1.237  0.00  0.00    +0.001 A 
ATOM      4  C   UNL     1       1.432  -6.888   2.208  0.00  0.00    +0.006 A 
ATOM      5  C   UNL     1       2.123  -6.206   3.197  0.00  0.00    -0.019 A 
ATOM      6  C   UNL     1       2.101  -4.823   3.213  0.00  0.00    +0.044 A 
ATOM      7  N   UNL     1       2.759  -4.112   4.199  0.00  0.00    -0.336 N 
ATOM      8  C   UNL     1       3.486  -4.750   5.276  0.00  0.00    +0.108 C 
ATOM      9  C   UNL     1       3.896  -6.166   4.999  0.00  0.00    +0.029 C 
ATOM     10  C   UNL     1       2.891  -7.007   4.212  0.00  0.00    +0.049 C 
ATOM     11  C   UNL     1       3.768  -7.993   3.456  0.00  0.00    -0.023 C 
ATOM     12  C   UNL     1       5.004  -7.570   3.411  0.00  0.00    -0.030 C 
ATOM     13  C   UNL     1       5.159  -6.247   4.117  0.00  0.00    +0.033 C 
ATOM     14  H   UNL     1       2.732  -3.143   4.168  0.00  0.00    +0.147 HD
ENDROOT
BRANCH   8  15
ATOM     15  C   UNL     1       2.620  -4.740   6.509  0.00  0.00    +0.017 A 
ATOM     16  C   UNL     1       1.245  -4.682   6.387  0.00  0.00    +0.041 A 
ATOM     17  C   UNL     1       0.449  -4.673   7.517  0.00  0.00    +0.127 A 
ATOM     18  C   UNL     1       1.027  -4.722   8.773  0.00  0.00    +0.036 A 
ATOM     19  C   UNL     1       2.401  -4.780   8.900  0.00  0.00    +0.048 A 
ATOM     20  C   UNL     1       3.202  -4.795   7.766  0.00  0.00    +0.122 A 
BRANCH  17  21
ATOM     21  N   UNL     1      -1.024  -4.610   7.384  0.00  0.00    +0.056 N 
ATOM     22  O   UNL     1      -1.530  -4.567   6.287  0.00  0.00    -0.126 OA
ATOM     23  O   UNL     1      -1.720  -4.602   8.372  0.00  0.00    -0.126 OA
ENDBRANCH  17  21
BRANCH  20  24
ATOM     24  O   UNL     1       4.554  -4.857   7.889  0.00  0.00    -0.506 OA
ATOM     25  H   UNL     1       4.984  -3.993   7.945  0.00  0.00    +0.292 HD
ENDBRANCH  20  24
ENDBRANCH   8  15
BRANCH   1  27
ATOM     26  N   UNL     1       0.788  -1.975   1.218  0.00  0.00    -0.311 N 
ATOM     27  C   UNL     1       1.364  -2.647   2.235  0.00  0.00    +0.246 C 
ATOM     28  O   UNL     1       1.868  -2.037   3.159  0.00  0.00    -0.270 OA
ATOM     29  H   UNL     1       0.387  -2.462   0.482  0.00  0.00    +0.149 HD
BRANCH  26  30
ATOM     30  C   UNL     1       0.768  -0.510   1.227  0.00  0.00    +0.104 C 
BRANCH  30  32
ATOM     31  C   UNL     1       0.040   1.527  -0.023  0.00  0.00    +0.005 C 
ATOM     32  C   UNL     1       0.060  -0.003  -0.031  0.00  0.00    +0.015 C 
ENDBRANCH  30  32
ENDBRANCH  26  30
ENDBRANCH   1  27
TORSDOF 6
