REMARK  Name = ZINC16887148
REMARK  10 active torsions:
REMARK  status: ('A' for Active; 'I' for Inactive)
REMARK    1  A    between atoms: C_1  and  C_2
REMARK    2  A    between atoms: C_5  and  S_8
REMARK    3  A    between atoms: S_8  and  N_11
REMARK    4  A    between atoms: C_14  and  C_31
REMARK    5  A    between atoms: C_15  and  C_17
REMARK    6  A    between atoms: N_19  and  N_20
REMARK    7  A    between atoms: C_21  and  C_22
REMARK    8  A    between atoms: C_21  and  C_23
REMARK    9  A    between atoms: C_24  and  C_30
REMARK   10  A    between atoms: N_25  and  C_29
REMARK                            x       y       z     vdW  Elec       q    Type
REMARK                         _______ _______ _______ _____ _____    ______ ____
ROOT
ATOM      1  N   UNL     1       2.561  -1.040  -1.232  0.00  0.00    -0.194 N 
ATOM      2  C   UNL     1       1.791   0.101  -1.171  0.00  0.00    +0.178 A 
ATOM      3  N   UNL     1       2.167   1.363  -1.317  0.00  0.00    -0.228 NA
ATOM      4  C   UNL     1       1.309   2.347  -1.232  0.00  0.00    +0.060 A 
ATOM      5  C   UNL     1      -0.018   2.028  -0.981  0.00  0.00    +0.100 A 
ATOM      6  S   UNL     1       0.085   0.246  -0.885  0.00  0.00    -0.046 S 
ATOM      7  C   UNL     1       1.747   3.779  -1.400  0.00  0.00    +0.067 C 
ATOM      8  H   UNL     1       3.514  -0.974  -1.401  0.00  0.00    +0.176 HD
ENDROOT
BRANCH   5   9
ATOM      9  C   UNL     1      -1.179   2.905  -0.842  0.00  0.00    +0.272 C 
ATOM     10  O   UNL     1      -1.046   4.112  -0.941  0.00  0.00    -0.268 OA
ATOM     11  N   UNL     1      -2.397   2.379  -0.602  0.00  0.00    -0.202 N 
ATOM     12  H   UNL     1      -2.503   1.418  -0.522  0.00  0.00    +0.178 HD
BRANCH  11  13
ATOM     13  N   UNL     1      -3.509   3.220  -0.468  0.00  0.00    -0.184 NA
ATOM     14  C   UNL     1      -4.684   2.712  -0.237  0.00  0.00    +0.072 C 
ATOM     15  C   UNL     1      -4.848   1.219  -0.114  0.00  0.00    +0.068 C 
BRANCH  14  16
ATOM     16  C   UNL     1      -5.850   3.593  -0.097  0.00  0.00    +0.056 A 
ATOM     17  C   UNL     1      -5.916   4.946  -0.173  0.00  0.00    +0.032 A 
ATOM     18  N   UNL     1      -7.109   5.565  -0.011  0.00  0.00    -0.335 N 
ATOM     19  C   UNL     1      -8.220   4.825   0.224  0.00  0.00    +0.126 A 
ATOM     20  S   UNL     1      -9.834   5.344   0.463  0.00  0.00    -0.025 S 
ATOM     21  S   UNL     1      -7.557   3.167   0.211  0.00  0.00    -0.060 S 
ATOM     22  C   UNL     1      -7.198   7.025  -0.089  0.00  0.00    +0.150 C 
ATOM     23  C   UNL     1      -4.672   5.753  -0.435  0.00  0.00    +0.065 C 
ENDBRANCH  14  16
ENDBRANCH  11  13
ENDBRANCH   5   9
BRANCH   1  24
ATOM     24  S   UNL     1       1.860  -2.525  -1.015  0.00  0.00    +0.074 S 
ATOM     25  O   UNL     1       2.895  -3.488  -1.160  0.00  0.00    -0.150 OA
ATOM     26  O   UNL     1       1.066  -2.431   0.160  0.00  0.00    -0.150 OA
BRANCH  24  31
ATOM     27  C   UNL     1      -1.954  -3.385  -5.610  0.00  0.00    +0.044 C 
ATOM     28  C   UNL     1      -1.002  -3.171  -4.462  0.00  0.00    -0.050 A 
ATOM     29  C   UNL     1       0.315  -3.579  -4.571  0.00  0.00    +0.005 A 
ATOM     30  C   UNL     1       1.188  -3.382  -3.518  0.00  0.00    +0.029 A 
ATOM     31  C   UNL     1       0.746  -2.776  -2.357  0.00  0.00    +0.109 A 
ATOM     32  C   UNL     1      -0.571  -2.372  -2.246  0.00  0.00    +0.029 A 
ATOM     33  C   UNL     1      -1.444  -2.565  -3.301  0.00  0.00    +0.005 A 
ENDBRANCH  24  31
ENDBRANCH   1  24
TORSDOF 5
