REMARK  Name = ZINC33260837
REMARK  8 active torsions:
REMARK  status: ('A' for Active; 'I' for Inactive)
REMARK    1  A    between atoms: C_1  and  C_2
REMARK    2  A    between atoms: C_2  and  C_3
REMARK    3  A    between atoms: C_3  and  N_4
REMARK    4  A    between atoms: C_5  and  C_7
REMARK    5  A    between atoms: C_7  and  N_8
REMARK    6  A    between atoms: C_16  and  C_30
REMARK    7  A    between atoms: C_19  and  N_24
REMARK    8  A    between atoms: C_25  and  C_27
REMARK                            x       y       z     vdW  Elec       q    Type
REMARK                         _______ _______ _______ _____ _____    ______ ____
ROOT
ATOM      1  N   UNL     1       1.673  -4.122   3.583  0.00  0.00    -0.291 NA
ATOM      2  C   UNL     1       1.016  -3.896   4.877  0.00  0.00    +0.104 C 
ATOM      3  C   UNL     1       1.953  -4.337   6.007  0.00  0.00    +0.122 C 
ATOM      4  N   UNL     1       2.368  -5.725   5.754  0.00  0.00    -0.314 N 
ATOM      5  C   UNL     1       2.911  -6.059   4.429  0.00  0.00    +0.122 C 
ATOM      6  C   UNL     1       1.936  -5.550   3.361  0.00  0.00    +0.104 C 
ATOM      7  C   UNL     1       2.251  -6.694   6.741  0.00  0.00    +0.100 A 
ATOM      8  C   UNL     1       1.841  -6.306   8.024  0.00  0.00    +0.057 A 
ATOM      9  C   UNL     1       1.719  -7.267   9.020  0.00  0.00    +0.075 A 
ATOM     10  C   UNL     1       2.034  -8.651   8.660  0.00  0.00    +0.014 A 
ATOM     11  C   UNL     1       1.941  -9.686   9.594  0.00  0.00    +0.034 A 
ATOM     12  C   UNL     1       2.248 -10.976   9.210  0.00  0.00    +0.034 A 
ATOM     13  C   UNL     1       2.648 -11.250   7.898  0.00  0.00    +0.025 A 
ATOM     14  C   UNL     1       2.745 -10.258   6.974  0.00  0.00    +0.028 A 
ATOM     15  C   UNL     1       2.440  -8.932   7.332  0.00  0.00    +0.049 A 
ATOM     16  N   UNL     1       2.524  -7.943   6.437  0.00  0.00    -0.343 N 
ATOM     17  H   UNL     1       2.799  -8.154   5.532  0.00  0.00    +0.167 HD
ENDROOT
BRANCH  12  18
ATOM     18  N   UNL     1       2.157 -12.016  10.140  0.00  0.00    -0.285 N 
ATOM     19  C   UNL     1       3.036 -13.037  10.097  0.00  0.00    +0.220 C 
ATOM     20  O   UNL     1       3.857 -13.093   9.206  0.00  0.00    -0.275 OA
ATOM     21  H   UNL     1       1.462 -12.003  10.816  0.00  0.00    +0.155 HD
BRANCH  19  22
ATOM     22  C   UNL     1       2.998 -14.109  11.155  0.00  0.00    +0.075 C 
ATOM     23  C   UNL     1       4.170 -14.174  12.136  0.00  0.00    +0.013 C 
ATOM     24  C   UNL     1       4.022 -15.241  11.050  0.00  0.00    +0.013 C 
ENDBRANCH  19  22
ENDBRANCH  12  18
BRANCH   9  25
ATOM     25  C   UNL     1       1.291  -6.907  10.386  0.00  0.00    +0.387 C 
ATOM     26  O   UNL     1       0.939  -5.762  10.634  0.00  0.00    -0.241 OA
ATOM     27  O   UNL     1       1.289  -7.753  11.268  0.00  0.00    -0.241 OA
ENDBRANCH   9  25
BRANCH   1  28
ATOM     28  C   UNL     1       0.881  -3.555   2.484  0.00  0.00    +0.180 C 
BRANCH  28  30
ATOM     29  N   UNL     1       0.165  -1.316   1.712  0.00  0.00    -0.314 N 
ATOM     30  C   UNL     1       0.840  -2.054   2.616  0.00  0.00    +0.227 C 
ATOM     31  O   UNL     1       1.414  -1.510   3.536  0.00  0.00    -0.274 OA
ATOM     32  H   UNL     1      -0.294  -1.751   0.977  0.00  0.00    +0.149 HD
BRANCH  29  33
ATOM     33  C   UNL     1       0.124   0.142   1.841  0.00  0.00    +0.104 C 
BRANCH  33  35
ATOM     34  C   UNL     1      -0.743   2.256   0.830  0.00  0.00    +0.005 C 
ATOM     35  C   UNL     1      -0.701   0.733   0.696  0.00  0.00    +0.015 C 
ENDBRANCH  33  35
ENDBRANCH  29  33
ENDBRANCH  28  30
ENDBRANCH   1  28
TORSDOF 7
