REMARK  Name = ZINC15853041
REMARK  11 active torsions:
REMARK  status: ('A' for Active; 'I' for Inactive)
REMARK    1  A    between atoms: C_1  and  C_2
REMARK    2  A    between atoms: C_2  and  C_4
REMARK    3  A    between atoms: C_2  and  O_13
REMARK    4  A    between atoms: N_9  and  C_10
REMARK    5  A    between atoms: C_10  and  C_11
REMARK    6  A    between atoms: C_10  and  C_12
REMARK    7  A    between atoms: O_13  and  C_14
REMARK    8  A    between atoms: C_14  and  C_16
REMARK    9  A    between atoms: C_17  and  C_18
REMARK   10  A    between atoms: C_21  and  S_24
REMARK   11  A    between atoms: S_24  and  N_27
REMARK                            x       y       z     vdW  Elec       q    Type
REMARK                         _______ _______ _______ _____ _____    ______ ____
ROOT
ATOM      1  C   UNL     1       0.595  -1.183   3.489  0.00  0.00    +0.092 C 
ATOM      2  C   UNL     1      -0.144  -1.403   4.596  0.00  0.00    +0.015 C 
ENDROOT
BRANCH   2   3
ATOM      3  C   UNL     1       0.500  -1.891   5.826  0.00  0.00    -0.025 A 
ATOM      4  C   UNL     1       1.879  -2.122   5.852  0.00  0.00    +0.010 A 
ATOM      5  C   UNL     1       2.476  -2.579   7.009  0.00  0.00    +0.029 A 
ATOM      6  C   UNL     1       1.714  -2.809   8.141  0.00  0.00    +0.109 A 
ATOM      7  C   UNL     1       0.348  -2.583   8.122  0.00  0.00    +0.029 A 
ATOM      8  C   UNL     1      -0.262  -2.120   6.975  0.00  0.00    +0.010 A 
BRANCH   6   9
ATOM      9  S   UNL     1       2.485  -3.394   9.613  0.00  0.00    +0.075 S 
ATOM     10  O   UNL     1       1.475  -4.050  10.367  0.00  0.00    -0.150 OA
ATOM     11  O   UNL     1       3.682  -4.046   9.212  0.00  0.00    -0.150 OA
BRANCH   9  12
ATOM     12  N   UNL     1       2.941  -2.064  10.488  0.00  0.00    -0.202 N 
ATOM     13  C   UNL     1       4.234  -1.384  10.371  0.00  0.00    +0.136 C 
ATOM     14  C   UNL     1       4.173  -0.225  11.378  0.00  0.00    +0.058 C 
ATOM     15  C   UNL     1       2.803  -0.342  12.009  0.00  0.00    -0.023 A 
ATOM     16  C   UNL     1       2.147  -1.423  11.441  0.00  0.00    +0.054 A 
ATOM     17  C   UNL     1       0.852  -1.729  11.864  0.00  0.00    +0.025 A 
ATOM     18  C   UNL     1       0.237  -0.961  12.830  0.00  0.00    +0.002 A 
ATOM     19  C   UNL     1       0.898   0.118  13.387  0.00  0.00    +0.000 A 
ATOM     20  C   UNL     1       2.185   0.421  12.980  0.00  0.00    +0.005 A 
ENDBRANCH   9  12
ENDBRANCH   6   9
ENDBRANCH   2   3
BRANCH   1  21
ATOM     21  C   UNL     1      -0.046  -0.698   2.267  0.00  0.00    +0.333 C 
ATOM     22  O   UNL     1      -1.244  -0.493   2.248  0.00  0.00    -0.246 OA
BRANCH  21  23
ATOM     23  O   UNL     1       0.693  -0.477   1.160  0.00  0.00    -0.449 OA
BRANCH  23  25
ATOM     24  C   UNL     1      -0.019   1.526   0.010  0.00  0.00    +0.062 C 
ATOM     25  C   UNL     1       0.002  -0.004   0.002  0.00  0.00    +0.259 C 
BRANCH  25  26
ATOM     26  C   UNL     1       0.707  -0.490  -1.238  0.00  0.00    +0.261 C 
ATOM     27  O   UNL     1       1.753  -1.097  -1.142  0.00  0.00    -0.271 OA
ATOM     28  N   UNL     1       0.176  -0.250  -2.453  0.00  0.00    -0.237 N 
ATOM     29  C   UNL     1       0.807  -0.685  -3.562  0.00  0.00    +0.306 C 
ATOM     30  O   UNL     1       1.855  -1.293  -3.466  0.00  0.00    -0.252 OA
ATOM     31  N   UNL     1       0.276  -0.445  -4.777  0.00  0.00    -0.297 N 
ATOM     32  H   UNL     1      -0.660   0.235  -2.530  0.00  0.00    +0.159 HD
ATOM     33  H   UNL     1      -0.560   0.041  -4.854  0.00  0.00    +0.151 HD
BRANCH  31  34
ATOM     34  C   UNL     1       0.962  -0.917  -5.983  0.00  0.00    +0.068 C 
ATOM     35  C   UNL     1      -0.055  -1.095  -7.112  0.00  0.00    +0.027 C 
ATOM     36  C   UNL     1       2.017   0.107  -6.404  0.00  0.00    +0.027 C 
ENDBRANCH  31  34
ENDBRANCH  25  26
ENDBRANCH  23  25
ENDBRANCH  21  23
ENDBRANCH   1  21
TORSDOF 8
