REMARK  Name = ZINC02194863
REMARK  12 active torsions:
REMARK  status: ('A' for Active; 'I' for Inactive)
REMARK    1  A    between atoms: C_1  and  C_2
REMARK    2  A    between atoms: C_2  and  C_3
REMARK    3  A    between atoms: C_3  and  N_60
REMARK    4  A    between atoms: C_4  and  C_5
REMARK    5  A    between atoms: C_4  and  N_60
REMARK    6  A    between atoms: C_5  and  C_6
REMARK    7  A    between atoms: C_7  and  N_8
REMARK    8  A    between atoms: C_7  and  N_60
REMARK    9  A    between atoms: N_16  and  N_17
REMARK   10  A    between atoms: C_18  and  C_20
REMARK   11  A    between atoms: C_20  and  S_21
REMARK   12  A    between atoms: S_21  and  C_22
REMARK                            x       y       z     vdW  Elec       q    Type
REMARK                         _______ _______ _______ _____ _____    ______ ____
ROOT
ATOM      1  N   UNL     1      -2.303   4.231  -0.019  0.00  0.00    -0.282 N 
ATOM      2  C   UNL     1      -1.139   3.479  -0.137  0.00  0.00    +0.044 A 
ATOM      3  C   UNL     1      -0.931   2.107  -0.227  0.00  0.00    +0.024 A 
ATOM      4  C   UNL     1       0.350   1.606  -0.335  0.00  0.00    +0.002 A 
ATOM      5  C   UNL     1       1.440   2.459  -0.365  0.00  0.00    +0.001 A 
ATOM      6  C   UNL     1       1.253   3.824  -0.283  0.00  0.00    +0.012 A 
ATOM      7  C   UNL     1      -0.034   4.338  -0.169  0.00  0.00    +0.028 A 
ATOM      8  C   UNL     1      -0.570   5.715  -0.061  0.00  0.00    +0.153 C 
ATOM      9  N   UNL     1       0.107   6.837  -0.051  0.00  0.00    -0.175 NA
ATOM     10  C   UNL     1      -2.035   5.547   0.030  0.00  0.00    +0.270 C 
ATOM     11  O   UNL     1      -2.854   6.441   0.132  0.00  0.00    -0.268 OA
ENDROOT
BRANCH   9  12
ATOM     12  N   UNL     1      -0.567   8.061   0.058  0.00  0.00    -0.206 N 
ATOM     13  C   UNL     1       0.129   9.215   0.069  0.00  0.00    +0.243 C 
ATOM     14  O   UNL     1       1.339   9.194  -0.015  0.00  0.00    -0.273 OA
ATOM     15  H   UNL     1      -1.534   8.077   0.126  0.00  0.00    +0.177 HD
BRANCH  13  16
ATOM     16  C   UNL     1      -0.595  10.531   0.186  0.00  0.00    +0.176 C 
BRANCH  16  17
ATOM     17  S   UNL     1       0.606  11.884   0.173  0.00  0.00    -0.058 S 
BRANCH  17  18
ATOM     18  C   UNL     1      -0.483  13.262   0.318  0.00  0.00    +0.258 A 
ATOM     19  N   UNL     1      -0.107  14.515   0.356  0.00  0.00    -0.203 NA
ATOM     20  C   UNL     1      -1.213  15.300   0.471  0.00  0.00    +0.110 A 
ATOM     21  C   UNL     1      -1.412  16.679   0.555  0.00  0.00    +0.031 A 
ATOM     22  C   UNL     1      -2.691  17.179   0.668  0.00  0.00    +0.002 A 
ATOM     23  C   UNL     1      -3.780  16.321   0.698  0.00  0.00    +0.004 A 
ATOM     24  C   UNL     1      -3.597  14.955   0.616  0.00  0.00    +0.048 A 
ATOM     25  C   UNL     1      -2.317  14.435   0.502  0.00  0.00    +0.156 A 
ATOM     26  O   UNL     1      -1.823  13.180   0.400  0.00  0.00    -0.431 OA
ENDBRANCH  17  18
ENDBRANCH  16  17
ENDBRANCH  13  16
ENDBRANCH   9  12
BRANCH   1  27
ATOM     27  C   UNL     1      -3.651   3.661   0.044  0.00  0.00    +0.039 C 
BRANCH  27  28
ATOM     28  N   UNL     1      -4.185   3.562  -1.331  0.00  0.00    +0.390 N 
ATOM     29  H   UNL     1      -3.807   4.334  -1.892  0.00  0.00    -0.080 HD
BRANCH  28  30
ATOM     30  C   UNL     1      -3.776   2.279  -1.941  0.00  0.00    -0.077 C 
BRANCH  30  32
ATOM     31  C   UNL     1      -4.047  -0.204  -1.900  0.00  0.00    +0.002 C 
ATOM     32  C   UNL     1      -4.403   1.103  -1.189  0.00  0.00    -0.022 C 
ENDBRANCH  30  32
ENDBRANCH  28  30
BRANCH  28  33
ATOM     33  C   UNL     1      -5.660   3.663  -1.309  0.00  0.00    -0.077 C 
BRANCH  33  34
ATOM     34  C   UNL     1      -6.176   3.681  -2.749  0.00  0.00    -0.022 C 
ATOM     35  C   UNL     1      -7.684   3.943  -2.746  0.00  0.00    +0.002 C 
ENDBRANCH  33  34
ENDBRANCH  28  33
ENDBRANCH  27  28
ENDBRANCH   1  27
TORSDOF 10
