REMARK  Name = ZINC28847962
REMARK  13 active torsions:
REMARK  status: ('A' for Active; 'I' for Inactive)
REMARK    1  A    between atoms: C_1  and  C_2
REMARK    2  A    between atoms: C_2  and  C_3
REMARK    3  A    between atoms: C_2  and  C_4
REMARK    4  A    between atoms: C_4  and  N_5
REMARK    5  A    between atoms: C_6  and  N_33
REMARK    6  A    between atoms: C_7  and  N_14
REMARK    7  A    between atoms: N_14  and  C_15
REMARK    8  A    between atoms: C_15  and  C_16
REMARK    9  A    between atoms: C_16  and  C_17
REMARK   10  A    between atoms: C_16  and  C_18
REMARK   11  A    between atoms: C_19  and  C_21
REMARK   12  A    between atoms: C_21  and  S_22
REMARK   13  A    between atoms: S_22  and  C_23
REMARK                            x       y       z     vdW  Elec       q    Type
REMARK                         _______ _______ _______ _____ _____    ______ ____
ROOT
ATOM      1  N   UNL     1       5.126  -4.372  -0.237  0.00  0.00    -0.263 N 
ATOM      2  C   UNL     1       3.889  -3.849  -0.374  0.00  0.00    +0.230 C 
ATOM      3  O   UNL     1       2.992  -4.524  -0.833  0.00  0.00    -0.274 OA
ENDROOT
BRANCH   1   6
ATOM      4  N   UNL     1       4.941  -8.041  -0.156  0.00  0.00    -0.280 N 
ATOM      5  C   UNL     1       4.698  -6.725   0.161  0.00  0.00    +0.127 A 
ATOM      6  C   UNL     1       5.354  -5.732  -0.538  0.00  0.00    +0.140 A 
ATOM      7  C   UNL     1       6.250  -6.098  -1.560  0.00  0.00    +0.277 A 
ATOM      8  O   UNL     1       6.839  -5.241  -2.196  0.00  0.00    -0.266 OA
ATOM      9  N   UNL     1       6.456  -7.403  -1.826  0.00  0.00    -0.273 N 
ATOM     10  H   UNL     1       7.162  -7.697  -2.617  0.00  0.00    +0.173 HD
ATOM     11  C   UNL     1       5.808  -8.357  -1.135  0.00  0.00    +0.331 A 
ATOM     12  O   UNL     1       6.009  -9.526  -1.399  0.00  0.00    -0.246 OA
BRANCH   5  13
ATOM     13  N   UNL     1       3.812  -6.402   1.161  0.00  0.00    -0.343 N 
ATOM     14  H   UNL     1       3.623  -5.347   1.409  0.00  0.00    +0.144 HD
ATOM     15  H   UNL     1       3.293  -7.199   1.714  0.00  0.00    +0.144 HD
ENDBRANCH   5  13
BRANCH   4  16
ATOM     16  C   UNL     1       4.251  -9.105   0.577  0.00  0.00    +0.131 C 
BRANCH  16  18
ATOM     17  C   UNL     1       2.277 -10.637   0.562  0.00  0.00    +0.009 C 
ATOM     18  C   UNL     1       2.937  -9.443  -0.130  0.00  0.00    +0.003 C 
ATOM     19  C   UNL     1       1.999  -8.235  -0.068  0.00  0.00    +0.009 C 
ENDBRANCH  16  18
ENDBRANCH   4  16
ENDBRANCH   1   6
BRANCH   1  20
ATOM     20  C   UNL     1       6.231  -3.529   0.225  0.00  0.00    +0.117 C 
BRANCH  20  21
ATOM     21  C   UNL     1       6.252  -3.507   1.754  0.00  0.00    +0.001 C 
ATOM     22  C   UNL     1       6.577  -4.906   2.280  0.00  0.00    +0.009 C 
ATOM     23  C   UNL     1       7.318  -2.521   2.236  0.00  0.00    +0.009 C 
ENDBRANCH  20  21
ENDBRANCH   1  20
BRANCH   2  24
ATOM     24  C   UNL     1       3.623  -2.425   0.044  0.00  0.00    +0.172 C 
BRANCH  24  25
ATOM     25  S   UNL     1       1.886  -2.022  -0.262  0.00  0.00    -0.096 S 
BRANCH  25  26
ATOM     26  C   UNL     1       1.856  -0.352   0.299  0.00  0.00    +0.108 A 
ATOM     27  C   UNL     1       0.662   0.410   0.255  0.00  0.00    +0.032 A 
ATOM     28  C   UNL     1      -0.539  -0.117  -0.231  0.00  0.00    +0.012 A 
ATOM     29  C   UNL     1      -1.657   0.664  -0.249  0.00  0.00    +0.001 A 
ATOM     30  C   UNL     1      -1.618   1.978   0.208  0.00  0.00    +0.002 A 
ATOM     31  C   UNL     1      -0.464   2.520   0.692  0.00  0.00    +0.028 A 
ATOM     32  C   UNL     1       0.704   1.746   0.721  0.00  0.00    +0.075 A 
ATOM     33  N   UNL     1       1.867   2.232   1.182  0.00  0.00    -0.235 NA
ATOM     34  C   UNL     1       2.942   1.480   1.200  0.00  0.00    +0.223 A 
ATOM     35  N   UNL     1       2.951   0.227   0.776  0.00  0.00    -0.229 NA
ENDBRANCH  25  26
ENDBRANCH  24  25
ENDBRANCH   2  24
TORSDOF 9
