REMARK  Name = ZINC12567097
REMARK  5 active torsions:
REMARK  status: ('A' for Active; 'I' for Inactive)
REMARK    1  A    between atoms: C_3  and  C_6
REMARK    2  A    between atoms: C_15  and  C_17
REMARK    3  A    between atoms: C_17  and  S_18
REMARK    4  A    between atoms: S_18  and  C_19
REMARK    5  A    between atoms: N_23  and  C_24
REMARK                            x       y       z     vdW  Elec       q    Type
REMARK                         _______ _______ _______ _____ _____    ______ ____
ROOT
ATOM      1  C   UNL     1      -2.619   1.400   0.022  0.00  0.00    +0.039 A 
ATOM      2  C   UNL     1      -3.654   2.278   0.032  0.00  0.00    +0.059 A 
ATOM      3  S   UNL     1      -2.847   3.868   0.048  0.00  0.00    -0.076 S 
ATOM      4  C   UNL     1      -1.158   3.325   0.031  0.00  0.00    +0.116 A 
ATOM      5  C   UNL     1      -1.257   1.924   0.018  0.00  0.00    +0.083 A 
ATOM      6  C   UNL     1      -0.015   1.215   0.009  0.00  0.00    +0.260 A 
ATOM      7  O   UNL     1       0.002  -0.004   0.002  0.00  0.00    -0.267 OA
ATOM      8  N   UNL     1       1.136   1.914   0.002  0.00  0.00    -0.310 N 
ATOM      9  H   UNL     1       1.981   1.438  -0.009  0.00  0.00    +0.170 HD
ATOM     10  C   UNL     1       1.136   3.271   0.009  0.00  0.00    +0.121 A 
ATOM     11  N   UNL     1       0.018   3.947   0.023  0.00  0.00    -0.226 NA
ENDROOT
BRANCH   1  14
ATOM     12  C   UNL     1      -3.623  -2.090   0.498  0.00  0.00    +0.042 A 
ATOM     13  C   UNL     1      -3.689  -0.729   0.863  0.00  0.00    +0.050 A 
ATOM     14  C   UNL     1      -2.866  -0.056   0.015  0.00  0.00    +0.136 A 
ATOM     15  O   UNL     1      -2.311  -0.948  -0.827  0.00  0.00    -0.463 OA
ATOM     16  C   UNL     1      -2.767  -2.179  -0.538  0.00  0.00    +0.196 A 
ENDBRANCH   1  14
BRANCH  10  17
ATOM     17  C   UNL     1       2.449   4.012   0.001  0.00  0.00    +0.151 C 
BRANCH  17  18
ATOM     18  S   UNL     1       2.136   5.795   0.014  0.00  0.00    -0.077 S 
BRANCH  18  19
ATOM     19  C   UNL     1       3.792   6.396   0.002  0.00  0.00    +0.210 A 
ATOM     20  N   UNL     1       4.888   5.668  -0.006  0.00  0.00    -0.101 NA
ATOM     21  N   UNL     1       5.928   6.421  -0.018  0.00  0.00    -0.022 NA
ATOM     22  N   UNL     1       5.582   7.663  -0.007  0.00  0.00    -0.043 NA
ATOM     23  N   UNL     1       4.177   7.694   0.006  0.00  0.00    -0.217 N 
BRANCH  23  24
ATOM     24  C   UNL     1       3.313   8.877   0.022  0.00  0.00    +0.112 C 
ATOM     25  C   UNL     1       3.583   9.722  -1.225  0.00  0.00    +0.027 C 
ATOM     26  C   UNL     1       2.681  10.958  -1.209  0.00  0.00    +0.002 C 
ATOM     27  C   UNL     1       2.976  11.787   0.042  0.00  0.00    +0.000 C 
ATOM     28  C   UNL     1       2.706  10.943   1.289  0.00  0.00    +0.002 C 
ATOM     29  C   UNL     1       3.608   9.707   1.273  0.00  0.00    +0.027 C 
ENDBRANCH  23  24
ENDBRANCH  18  19
ENDBRANCH  17  18
ENDBRANCH  10  17
TORSDOF 5
