REMARK  Name = ZINC09185669
REMARK  5 active torsions:
REMARK  status: ('A' for Active; 'I' for Inactive)
REMARK    1  A    between atoms: C_1  and  C_2
REMARK    2  A    between atoms: C_8  and  C_22
REMARK    3  A    between atoms: C_10  and  C_15
REMARK    4  A    between atoms: C_15  and  C_17
REMARK    5  A    between atoms: C_26  and  N_28
REMARK                            x       y       z     vdW  Elec       q    Type
REMARK                         _______ _______ _______ _____ _____    ______ ____
ROOT
ATOM      1  C   UNL     1      -0.090   1.466  -0.090  0.00  0.00    +0.089 C 
ATOM      2  C   UNL     1      -0.080  -0.041  -0.070  0.00  0.00    +0.136 A 
ATOM      3  C   UNL     1      -0.011  -0.835   1.023  0.00  0.00    +0.091 A 
ATOM      4  C   UNL     1      -0.035  -2.152   0.492  0.00  0.00    +0.172 A 
ATOM      5  N   UNL     1      -0.113  -2.021  -0.807  0.00  0.00    -0.063 NA
ATOM      6  O   UNL     1      -0.144  -0.857  -1.133  0.00  0.00    -0.358 OA
ATOM      7  N   UNL     1       0.014  -3.345   1.211  0.00  0.00    -0.235 N 
ATOM      8  C   UNL     1      -0.003  -3.474   2.673  0.00  0.00    +0.151 C 
ATOM      9  C   UNL     1       0.067  -4.955   2.965  0.00  0.00    +0.077 C 
ATOM     10  C   UNL     1       0.117  -5.586   1.770  0.00  0.00    +0.250 C 
ATOM     11  C   UNL     1       0.079  -4.583   0.688  0.00  0.00    +0.293 C 
ATOM     12  O   UNL     1       0.104  -4.837  -0.500  0.00  0.00    -0.266 OA
ATOM     13  O   UNL     1       0.187  -6.927   1.594  0.00  0.00    -0.282 OA
ENDROOT
BRANCH   8  14
ATOM     14  C   UNL     1       1.190  -2.770   3.269  0.00  0.00    -0.020 A 
ATOM     15  C   UNL     1       2.444  -2.944   2.713  0.00  0.00    +0.006 A 
ATOM     16  C   UNL     1       3.537  -2.299   3.259  0.00  0.00    +0.003 A 
ATOM     17  C   UNL     1       3.377  -1.479   4.361  0.00  0.00    +0.033 A 
ATOM     18  C   UNL     1       2.123  -1.305   4.916  0.00  0.00    +0.127 A 
ATOM     19  C   UNL     1       1.028  -1.946   4.367  0.00  0.00    +0.038 A 
BRANCH  18  20
ATOM     20  N   UNL     1       1.951  -0.428   6.096  0.00  0.00    +0.056 N 
ATOM     21  O   UNL     1       2.915   0.140   6.578  0.00  0.00    -0.126 OA
ATOM     22  O   UNL     1       0.846  -0.275   6.586  0.00  0.00    -0.126 OA
ENDBRANCH  18  20
ENDBRANCH   8  14
BRANCH   9  23
ATOM     23  C   UNL     1       0.078  -5.586   4.290  0.00  0.00    +0.202 C 
ATOM     24  O   UNL     1       1.066  -6.191   4.668  0.00  0.00    -0.286 OA
BRANCH  23  25
ATOM     25  C   UNL     1      -1.099  -5.489   5.158  0.00  0.00    +0.059 A 
ATOM     26  C   UNL     1      -1.260  -5.927   6.466  0.00  0.00    +0.019 A 
ATOM     27  C   UNL     1      -2.479  -5.703   7.053  0.00  0.00    +0.008 A 
ATOM     28  C   UNL     1      -3.457  -5.085   6.337  0.00  0.00    +0.046 A 
ATOM     29  S   UNL     1      -2.700  -4.785   4.807  0.00  0.00    -0.093 S 
ENDBRANCH  23  25
ENDBRANCH   9  23
TORSDOF 4
