REMARK  Name = ZINC09595308
REMARK  10 active torsions:
REMARK  status: ('A' for Active; 'I' for Inactive)
REMARK    1  A    between atoms: C_1  and  C_2
REMARK    2  A    between atoms: C_5  and  N_8
REMARK    3  A    between atoms: N_8  and  S_9
REMARK    4  A    between atoms: S_9  and  C_12
REMARK    5  A    between atoms: C_15  and  N_21
REMARK    6  A    between atoms: C_16  and  N_18
REMARK    7  A    between atoms: N_21  and  C_22
REMARK    8  A    between atoms: C_22  and  C_23
REMARK    9  A    between atoms: C_26  and  C_29
REMARK   10  A    between atoms: C_29  and  N_30
REMARK                            x       y       z     vdW  Elec       q    Type
REMARK                         _______ _______ _______ _____ _____    ______ ____
ROOT
ATOM      1  C   UNL     1      -1.853   2.164  -4.294  0.00  0.00    +0.108 A 
ATOM      2  C   UNL     1      -1.067   2.861  -5.194  0.00  0.00    +0.030 A 
ATOM      3  C   UNL     1      -1.514   4.055  -5.723  0.00  0.00    +0.027 A 
ATOM      4  C   UNL     1      -2.755   4.556  -5.352  0.00  0.00    +0.058 A 
ATOM      5  C   UNL     1      -3.542   3.854  -4.449  0.00  0.00    +0.149 A 
ATOM      6  C   UNL     1      -3.091   2.657  -3.927  0.00  0.00    +0.063 A 
ENDROOT
BRANCH   1   7
ATOM      7  S   UNL     1      -1.279   0.640  -3.621  0.00  0.00    +0.059 S 
ATOM      8  O   UNL     1      -0.331   0.121  -4.543  0.00  0.00    -0.153 OA
ATOM      9  O   UNL     1      -2.432  -0.088  -3.223  0.00  0.00    -0.153 OA
BRANCH   7  10
ATOM     10  N   UNL     1      -0.444   1.000  -2.237  0.00  0.00    -0.187 NA
ATOM     11  H   UNL     1       0.508   0.824  -2.185  0.00  0.00    +0.148 HD
BRANCH  10  16
ATOM     12  C   UNL     1      -1.858   3.798   2.559  0.00  0.00    +0.007 C 
ATOM     13  C   UNL     1      -1.127   3.188   1.362  0.00  0.00    -0.014 C 
ATOM     14  C   UNL     1      -1.262   1.664   1.404  0.00  0.00    +0.005 C 
ATOM     15  C   UNL     1      -0.531   1.054   0.207  0.00  0.00    +0.020 C 
ATOM     16  C   UNL     1      -1.145   1.585  -1.090  0.00  0.00    +0.077 C 
ATOM     17  C   UNL     1      -1.009   3.108  -1.133  0.00  0.00    +0.020 C 
ATOM     18  C   UNL     1      -1.741   3.718   0.065  0.00  0.00    +0.005 C 
ENDBRANCH  10  16
ENDBRANCH   7  10
ENDBRANCH   1   7
BRANCH   5  19
ATOM     19  N   UNL     1      -4.866   4.384  -4.050  0.00  0.00    +0.058 N 
ATOM     20  O   UNL     1      -5.508   3.825  -3.180  0.00  0.00    -0.126 OA
ATOM     21  O   UNL     1      -5.312   5.379  -4.593  0.00  0.00    -0.126 OA
ENDBRANCH   5  19
BRANCH   4  22
ATOM     22  N   UNL     1      -3.211   5.764  -5.886  0.00  0.00    -0.338 N 
ATOM     23  H   UNL     1      -4.110   6.072  -5.691  0.00  0.00    +0.146 HD
BRANCH  22  24
ATOM     24  C   UNL     1      -2.332   6.565  -6.742  0.00  0.00    +0.137 C 
BRANCH  24  25
ATOM     25  C   UNL     1      -3.058   7.809  -7.183  0.00  0.00    -0.030 A 
ATOM     26  C   UNL     1      -3.795   7.801  -8.353  0.00  0.00    +0.005 A 
ATOM     27  C   UNL     1      -4.464   8.941  -8.756  0.00  0.00    +0.006 A 
ATOM     28  C   UNL     1      -4.389  10.092  -7.994  0.00  0.00    -0.028 A 
ATOM     29  C   UNL     1      -3.648  10.102  -6.827  0.00  0.00    +0.006 A 
ATOM     30  C   UNL     1      -2.982   8.960  -6.422  0.00  0.00    +0.005 A 
BRANCH  28  31
ATOM     31  C   UNL     1      -5.117  11.336  -8.436  0.00  0.00    +0.157 C 
BRANCH  31  32
ATOM     32  N   UNL     1      -4.237  12.138  -9.290  0.00  0.00    -0.332 N 
ATOM     33  C   UNL     1      -4.125  12.049 -10.651  0.00  0.00    +0.107 A 
ATOM     34  C   UNL     1      -3.210  12.962 -11.028  0.00  0.00    +0.130 A 
ATOM     35  N   UNL     1      -2.775  13.592  -9.927  0.00  0.00    -0.244 NA
ATOM     36  C   UNL     1      -3.391  13.108  -8.883  0.00  0.00    +0.199 A 
ENDBRANCH  31  32
ENDBRANCH  28  31
ENDBRANCH  24  25
ENDBRANCH  22  24
ENDBRANCH   4  22
TORSDOF 9
