REMARK  Name = ZINC16904338
REMARK  5 active torsions:
REMARK  status: ('A' for Active; 'I' for Inactive)
REMARK    1  A    between atoms: C_1  and  C_2
REMARK    2  A    between atoms: C_2  and  N_3
REMARK    3  A    between atoms: C_7  and  C_8
REMARK    4  A    between atoms: N_15  and  C_16
REMARK    5  A    between atoms: C_20  and  O_22
REMARK                            x       y       z     vdW  Elec       q    Type
REMARK                         _______ _______ _______ _____ _____    ______ ____
ROOT
ATOM      1  N   UNL     1      -0.756   7.970   0.052  0.00  0.00    -0.246 N 
ATOM      2  C   UNL     1      -1.561   6.921   0.049  0.00  0.00    +0.259 C 
ATOM      3  O   UNL     1      -2.772   7.050   0.056  0.00  0.00    -0.269 OA
ATOM      4  C   UNL     1      -0.929   5.592   0.041  0.00  0.00    +0.081 C 
ATOM      5  C   UNL     1      -1.509   4.359   0.040  0.00  0.00    +0.066 C 
ATOM      6  S   UNL     1       0.804   6.030   0.026  0.00  0.00    -0.049 S 
ATOM      7  C   UNL     1       0.612   7.805   0.037  0.00  0.00    +0.168 C 
ATOM      8  N   UNL     1       1.548   8.729   0.032  0.00  0.00    -0.225 NA
ENDROOT
BRANCH   8   9
ATOM      9  C   UNL     1       2.867   8.367   0.017  0.00  0.00    +0.070 A 
ATOM     10  C   UNL     1       3.326   7.353   0.861  0.00  0.00    +0.028 A 
ATOM     11  C   UNL     1       4.656   6.990   0.843  0.00  0.00    +0.006 A 
ATOM     12  C   UNL     1       5.539   7.627  -0.010  0.00  0.00    +0.045 A 
ATOM     13  C   UNL     1       5.093   8.636  -0.854  0.00  0.00    +0.119 A 
ATOM     14  C   UNL     1       3.758   9.005  -0.847  0.00  0.00    +0.073 A 
BRANCH  13  15
ATOM     15  O   UNL     1       5.965   9.258  -1.690  0.00  0.00    -0.507 OA
ATOM     16  H   UNL     1       6.045   8.838  -2.557  0.00  0.00    +0.292 HD
ENDBRANCH  13  15
ENDBRANCH   8   9
BRANCH   5  17
ATOM     17  C   UNL     1      -0.702   3.198   0.026  0.00  0.00    +0.129 A 
ATOM     18  C   UNL     1      -1.154   1.893   0.017  0.00  0.00    +0.049 A 
ATOM     19  C   UNL     1      -0.013   1.076   0.008  0.00  0.00    +0.042 A 
ATOM     20  C   UNL     1       1.064   1.892   0.002  0.00  0.00    +0.195 A 
ATOM     21  O   UNL     1       0.647   3.167   0.013  0.00  0.00    -0.463 OA
ENDBRANCH   5  17
BRANCH   1  23
ATOM     22  C   UNL     1      -1.536   9.799  -1.373  0.00  0.00    +0.025 C 
ATOM     23  C   UNL     1      -1.323   9.321   0.065  0.00  0.00    +0.112 C 
ENDBRANCH   1  23
TORSDOF 4
