REMARK  Name = ZINC23010536
REMARK  11 active torsions:
REMARK  status: ('A' for Active; 'I' for Inactive)
REMARK    1  A    between atoms: C_4  and  C_7
REMARK    2  A    between atoms: C_7  and  C_8
REMARK    3  A    between atoms: C_8  and  C_9
REMARK    4  A    between atoms: C_9  and  C_10
REMARK    5  A    between atoms: C_10  and  C_12
REMARK    6  A    between atoms: C_10  and  N_18
REMARK    7  A    between atoms: C_19  and  C_21
REMARK    8  A    between atoms: C_21  and  C_22
REMARK    9  A    between atoms: C_22  and  N_23
REMARK   10  A    between atoms: C_27  and  S_33
REMARK   11  A    between atoms: S_33  and  N_36
REMARK                            x       y       z     vdW  Elec       q    Type
REMARK                         _______ _______ _______ _____ _____    ______ ____
ROOT
ATOM      1  N   UNL     1      -9.820  -2.557  -2.358  0.00  0.00    -0.308 N 
ATOM      2  C   UNL     1      -8.642  -3.051  -1.929  0.00  0.00    +0.215 C 
ATOM      3  O   UNL     1      -8.254  -4.127  -2.331  0.00  0.00    -0.276 OA
ATOM      4  H   UNL     1     -10.172  -1.581  -1.993  0.00  0.00    +0.149 HD
ENDROOT
BRANCH   1   5
ATOM      5  C   UNL     1     -10.631  -3.319  -3.311  0.00  0.00    +0.103 C 
BRANCH   5   6
ATOM      6  C   UNL     1     -11.485  -4.310  -2.563  0.00  0.00    -0.027 A 
ATOM      7  C   UNL     1     -12.077  -3.950  -1.367  0.00  0.00    +0.005 A 
ATOM      8  C   UNL     1     -12.863  -4.858  -0.683  0.00  0.00    +0.000 A 
ATOM      9  C   UNL     1     -13.050  -6.130  -1.191  0.00  0.00    +0.000 A 
ATOM     10  C   UNL     1     -12.454  -6.492  -2.385  0.00  0.00    +0.000 A 
ATOM     11  C   UNL     1     -11.671  -5.583  -3.070  0.00  0.00    +0.005 A 
ENDBRANCH   5   6
BRANCH   5  12
ATOM     12  C   UNL     1     -11.530  -2.361  -4.095  0.00  0.00    +0.027 C 
BRANCH  12  13
ATOM     13  C   UNL     1     -10.665  -1.435  -4.951  0.00  0.00    +0.007 C 
BRANCH  13  14
ATOM     14  C   UNL     1     -11.564  -0.477  -5.736  0.00  0.00    +0.035 C 
BRANCH  14  18
ATOM     15  C   UNL     1      -9.147   2.110  -8.126  0.00  0.00    +0.000 A 
ATOM     16  C   UNL     1      -9.588   0.906  -8.640  0.00  0.00    +0.000 A 
ATOM     17  C   UNL     1     -10.370   0.068  -7.867  0.00  0.00    +0.003 A 
ATOM     18  C   UNL     1     -10.711   0.435  -6.579  0.00  0.00    -0.047 A 
ATOM     19  C   UNL     1     -10.274   1.643  -6.066  0.00  0.00    +0.003 A 
ATOM     20  C   UNL     1      -9.488   2.478  -6.837  0.00  0.00    +0.000 A 
ENDBRANCH  14  18
ENDBRANCH  13  14
ENDBRANCH  12  13
ENDBRANCH   5  12
ENDBRANCH   1   5
BRANCH   2  21
ATOM     21  C   UNL     1      -7.808  -2.267  -0.949  0.00  0.00    +0.117 C 
BRANCH  21  22
ATOM     22  C   UNL     1      -6.531  -3.046  -0.628  0.00  0.00    +0.138 C 
BRANCH  22  23
ATOM     23  N   UNL     1      -5.720  -2.284   0.325  0.00  0.00    -0.274 N 
ATOM     24  C   UNL     1      -4.737  -1.347   0.007  0.00  0.00    +0.090 A 
ATOM     25  C   UNL     1      -4.238  -0.861  -1.191  0.00  0.00    +0.031 A 
ATOM     26  C   UNL     1      -3.241   0.095  -1.183  0.00  0.00    +0.031 A 
ATOM     27  C   UNL     1      -2.733   0.560   0.018  0.00  0.00    +0.109 A 
ATOM     28  C   UNL     1      -3.225   0.079   1.216  0.00  0.00    +0.077 A 
ATOM     29  C   UNL     1      -4.229  -0.876   1.217  0.00  0.00    +0.159 A 
ATOM     30  O   UNL     1      -4.894  -1.518   2.209  0.00  0.00    -0.407 OA
ATOM     31  C   UNL     1      -5.787  -2.361   1.669  0.00  0.00    +0.421 A 
ATOM     32  O   UNL     1      -6.538  -3.084   2.294  0.00  0.00    -0.223 OA
BRANCH  27  33
ATOM     33  S   UNL     1      -1.456   1.774   0.019  0.00  0.00    +0.056 S 
ATOM     34  O   UNL     1      -1.536   2.446   1.268  0.00  0.00    -0.153 OA
ATOM     35  O   UNL     1      -1.548   2.460  -1.223  0.00  0.00    -0.153 OA
BRANCH  33  36
ATOM     36  N   UNL     1      -0.011   0.966   0.007  0.00  0.00    -0.204 NA
ATOM     37  H   UNL     1       0.815   1.692   0.007  0.00  0.00    +0.144 HD
ATOM     38  H   UNL     1       0.051   0.339  -0.894  0.00  0.00    +0.144 HD
ENDBRANCH  33  36
ENDBRANCH  27  33
ENDBRANCH  22  23
ENDBRANCH  21  22
ENDBRANCH   2  21
TORSDOF 11
