REMARK  Name = ZINC08562421
REMARK  7 active torsions:
REMARK  status: ('A' for Active; 'I' for Inactive)
REMARK    1  A    between atoms: C_1  and  C_2
REMARK    2  A    between atoms: C_2  and  C_4
REMARK    3  A    between atoms: C_2  and  O_22
REMARK    4  A    between atoms: N_6  and  C_7
REMARK    5  A    between atoms: C_12  and  C_13
REMARK    6  A    between atoms: O_22  and  C_23
REMARK    7  A    between atoms: C_26  and  N_29
REMARK                            x       y       z     vdW  Elec       q    Type
REMARK                         _______ _______ _______ _____ _____    ______ ____
ROOT
ATOM      1  C   UNL     1      -5.954   5.729   2.363  0.00  0.00    +0.258 C 
ATOM      2  O   UNL     1      -6.164   5.683   3.557  0.00  0.00    -0.271 OA
ATOM      3  N   UNL     1      -4.944   5.016   1.828  0.00  0.00    -0.282 N 
ATOM      4  H   UNL     1      -4.825   4.989   0.866  0.00  0.00    +0.155 HD
ENDROOT
BRANCH   3   5
ATOM      5  C   UNL     1      -4.069   4.317   2.658  0.00  0.00    +0.046 A 
ATOM      6  C   UNL     1      -3.880   4.723   3.972  0.00  0.00    +0.024 A 
ATOM      7  C   UNL     1      -3.014   4.028   4.792  0.00  0.00    +0.002 A 
ATOM      8  C   UNL     1      -2.328   2.924   4.313  0.00  0.00    +0.001 A 
ATOM      9  C   UNL     1      -2.506   2.505   3.012  0.00  0.00    +0.015 A 
ATOM     10  C   UNL     1      -3.376   3.200   2.169  0.00  0.00    +0.058 A 
BRANCH  10  11
ATOM     11  C   UNL     1      -3.568   2.759   0.774  0.00  0.00    +0.248 C 
ATOM     12  O   UNL     1      -4.686   2.517   0.362  0.00  0.00    -0.270 OA
ATOM     13  N   UNL     1      -2.505   2.625  -0.043  0.00  0.00    -0.297 N 
ATOM     14  C   UNL     1      -1.205   3.038   0.438  0.00  0.00    +0.108 C 
ATOM     15  C   UNL     1      -0.982   4.531   0.101  0.00  0.00    +0.019 C 
ATOM     16  C   UNL     1      -0.774   4.707  -1.344  0.00  0.00    +0.002 C 
ATOM     17  C   UNL     1      -1.970   4.304  -2.202  0.00  0.00    +0.002 C 
ATOM     18  C   UNL     1      -1.917   2.820  -2.467  0.00  0.00    +0.019 C 
ATOM     19  C   UNL     1      -2.715   2.061  -1.391  0.00  0.00    +0.108 C 
ENDBRANCH  10  11
ENDBRANCH   3   5
BRANCH   1  21
ATOM     20  C   UNL     1      -7.602   5.692   0.510  0.00  0.00    +0.062 C 
ATOM     21  C   UNL     1      -6.823   6.585   1.478  0.00  0.00    +0.256 C 
BRANCH  21  22
ATOM     22  O   UNL     1      -7.741   7.327   2.285  0.00  0.00    -0.480 OA
BRANCH  22  23
ATOM     23  C   UNL     1      -8.220   8.488   1.766  0.00  0.00    +0.122 A 
ATOM     24  C   UNL     1      -7.895   8.855   0.468  0.00  0.00    +0.048 A 
ATOM     25  C   UNL     1      -8.387  10.033  -0.059  0.00  0.00    +0.036 A 
ATOM     26  C   UNL     1      -9.194  10.852   0.710  0.00  0.00    +0.126 A 
ATOM     27  C   UNL     1      -9.515  10.491   2.005  0.00  0.00    +0.036 A 
ATOM     28  C   UNL     1      -9.030   9.311   2.535  0.00  0.00    +0.048 A 
BRANCH  26  29
ATOM     29  N   UNL     1      -9.715  12.117   0.144  0.00  0.00    +0.056 N 
ATOM     30  O   UNL     1     -10.426  12.838   0.821  0.00  0.00    -0.126 OA
ATOM     31  O   UNL     1      -9.433  12.436  -0.997  0.00  0.00    -0.126 OA
ENDBRANCH  26  29
ENDBRANCH  22  23
ENDBRANCH  21  22
ENDBRANCH   1  21
TORSDOF 6
