REMARK  Name = ZINC42866351
REMARK  10 active torsions:
REMARK  status: ('A' for Active; 'I' for Inactive)
REMARK    1  A    between atoms: C_1  and  C_2
REMARK    2  A    between atoms: C_8  and  N_10
REMARK    3  A    between atoms: C_11  and  C_13
REMARK    4  A    between atoms: C_13  and  C_15
REMARK    5  A    between atoms: C_13  and  S_18
REMARK    6  A    between atoms: C_15  and  C_16
REMARK    7  A    between atoms: C_15  and  C_17
REMARK    8  A    between atoms: S_18  and  C_19
REMARK    9  A    between atoms: C_22  and  C_25
REMARK   10  A    between atoms: N_23  and  N_24
REMARK                            x       y       z     vdW  Elec       q    Type
REMARK                         _______ _______ _______ _____ _____    ______ ____
ROOT
ATOM      1  C   UNL     1       4.259   0.731   2.386  0.00  0.00    +0.143 C 
ENDROOT
BRANCH   1   3
ATOM      2  N   UNL     1       2.269  -0.124   1.192  0.00  0.00    -0.311 N 
ATOM      3  C   UNL     1       2.895   0.090   2.366  0.00  0.00    +0.227 C 
ATOM      4  O   UNL     1       2.361  -0.232   3.406  0.00  0.00    -0.275 OA
ATOM      5  H   UNL     1       2.696   0.134   0.360  0.00  0.00    +0.149 HD
BRANCH   2  12
ATOM      6  C   UNL     1       0.053   1.191  -0.132  0.00  0.00    +0.009 C 
ATOM      7  C   UNL     1       0.204  -0.331  -0.102  0.00  0.00    +0.006 C 
ATOM      8  C   UNL     1       1.001  -0.789  -1.326  0.00  0.00    +0.005 C 
ATOM      9  C   UNL     1       1.151  -2.311  -1.296  0.00  0.00    +0.000 C 
ATOM     10  C   UNL     1       1.891  -2.726  -0.022  0.00  0.00    +0.002 C 
ATOM     11  C   UNL     1       1.094  -2.268   1.201  0.00  0.00    +0.022 C 
ATOM     12  C   UNL     1       0.943  -0.746   1.172  0.00  0.00    +0.076 C 
ENDBRANCH   2  12
ENDBRANCH   1   3
BRANCH   1  13
ATOM     13  C   UNL     1       4.109   2.253   2.357  0.00  0.00    +0.005 C 
ATOM     14  C   UNL     1       5.494   2.903   2.357  0.00  0.00    +0.009 C 
ATOM     15  C   UNL     1       3.351   2.666   1.093  0.00  0.00    +0.009 C 
ENDBRANCH   1  13
BRANCH   1  16
ATOM     16  S   UNL     1       5.136   0.239   3.897  0.00  0.00    -0.071 S 
BRANCH  16  17
ATOM     17  C   UNL     1       5.428  -1.485   3.678  0.00  0.00    +0.209 A 
ATOM     18  N   UNL     1       5.006  -2.226   2.679  0.00  0.00    -0.121 NA
ATOM     19  N   UNL     1       5.398  -3.440   2.831  0.00  0.00    -0.126 NA
ATOM     20  C   UNL     1       6.097  -3.550   3.940  0.00  0.00    +0.188 A 
ATOM     21  N   UNL     1       6.142  -2.299   4.513  0.00  0.00    -0.223 N 
BRANCH  20  22
ATOM     22  C   UNL     1       6.718  -4.777   4.465  0.00  0.00    +0.058 A 
ATOM     23  C   UNL     1       6.960  -5.966   3.825  0.00  0.00    +0.019 A 
ATOM     24  C   UNL     1       7.560  -6.985   4.529  0.00  0.00    +0.008 A 
ATOM     25  C   UNL     1       7.893  -6.784   5.830  0.00  0.00    +0.046 A 
ATOM     26  S   UNL     1       7.359  -5.102   6.099  0.00  0.00    -0.093 S 
ENDBRANCH  20  22
BRANCH  21  27
ATOM     27  N   UNL     1       6.768  -1.945   5.675  0.00  0.00    -0.295 N 
ATOM     28  H   UNL     1       6.147  -2.046   6.465  0.00  0.00    +0.163 HD
ATOM     29  H   UNL     1       7.613  -2.480   5.808  0.00  0.00    +0.163 HD
ENDBRANCH  21  27
ENDBRANCH  16  17
ENDBRANCH   1  16
TORSDOF 7
