REMARK  Name = ZINC08828683
REMARK  6 active torsions:
REMARK  status: ('A' for Active; 'I' for Inactive)
REMARK    1  A    between atoms: C_4  and  C_7
REMARK    2  A    between atoms: C_13  and  S_16
REMARK    3  A    between atoms: S_16  and  C_17
REMARK    4  A    between atoms: C_17  and  C_18
REMARK    5  A    between atoms: N_20  and  C_21
REMARK    6  A    between atoms: C_21  and  C_22
REMARK                            x       y       z     vdW  Elec       q    Type
REMARK                         _______ _______ _______ _____ _____    ______ ____
ROOT
ATOM      1  S   UNL     1       2.426  -5.565   1.256  0.00  0.00    -0.095 S 
ENDROOT
BRANCH   1   8
ATOM      2  C   UNL     1       3.695  -0.684  -0.038  0.00  0.00    +0.185 A 
ATOM      3  N   UNL     1       4.876  -0.164  -0.318  0.00  0.00    -0.127 NA
ATOM      4  N   UNL     1       5.787  -1.069  -0.240  0.00  0.00    -0.128 NA
ATOM      5  C   UNL     1       5.236  -2.227   0.096  0.00  0.00    +0.178 A 
ATOM      6  N   UNL     1       3.889  -2.005   0.237  0.00  0.00    -0.192 N 
ATOM      7  N   UNL     1       3.039  -3.054   0.596  0.00  0.00    -0.157 NA
ATOM      8  C   UNL     1       3.519  -4.258   0.804  0.00  0.00    +0.118 A 
ATOM      9  C   UNL     1       4.897  -4.518   0.671  0.00  0.00    +0.040 A 
ATOM     10  C   UNL     1       5.748  -3.519   0.315  0.00  0.00    +0.053 A 
BRANCH   2  14
ATOM     11  C   UNL     1      -0.017   1.379   0.010  0.00  0.00    +0.000 A 
ATOM     12  C   UNL     1       1.168   2.094   0.002  0.00  0.00    +0.001 A 
ATOM     13  C   UNL     1       2.377   1.430  -0.013  0.00  0.00    +0.011 A 
ATOM     14  C   UNL     1       2.404   0.034  -0.021  0.00  0.00    +0.021 A 
ATOM     15  C   UNL     1       1.204  -0.681  -0.013  0.00  0.00    +0.011 A 
ATOM     16  C   UNL     1       0.002  -0.004   0.002  0.00  0.00    +0.001 A 
ENDBRANCH   2  14
ENDBRANCH   1   8
BRANCH   1  17
ATOM     17  C   UNL     1       0.794  -4.775   1.304  0.00  0.00    +0.171 C 
BRANCH  17  18
ATOM     18  C   UNL     1      -0.247  -5.796   1.684  0.00  0.00    +0.224 C 
ATOM     19  O   UNL     1       0.080  -6.944   1.900  0.00  0.00    -0.275 OA
ATOM     20  N   UNL     1      -1.542  -5.434   1.782  0.00  0.00    -0.311 N 
ATOM     21  H   UNL     1      -1.803  -4.516   1.609  0.00  0.00    +0.149 HD
BRANCH  20  22
ATOM     22  C   UNL     1      -2.554  -6.427   2.151  0.00  0.00    +0.139 C 
BRANCH  22  23
ATOM     23  C   UNL     1      -3.910  -5.771   2.191  0.00  0.00    -0.027 A 
ATOM     24  C   UNL     1      -4.366  -5.200   3.365  0.00  0.00    +0.009 A 
ATOM     25  C   UNL     1      -5.609  -4.597   3.406  0.00  0.00    +0.050 A 
ATOM     26  C   UNL     1      -6.401  -4.562   2.270  0.00  0.00    +0.166 A 
ATOM     27  C   UNL     1      -5.942  -5.137   1.088  0.00  0.00    +0.167 A 
ATOM     28  C   UNL     1      -4.692  -5.735   1.052  0.00  0.00    +0.054 A 
ATOM     29  O   UNL     1      -6.895  -4.974   0.125  0.00  0.00    -0.453 OA
ATOM     30  C   UNL     1      -8.108  -4.657   0.834  0.00  0.00    +0.466 C 
ATOM     31  O   UNL     1      -7.642  -4.040   2.048  0.00  0.00    -0.453 OA
ENDBRANCH  22  23
ENDBRANCH  20  22
ENDBRANCH  17  18
ENDBRANCH   1  17
TORSDOF 6
