REMARK  Name = ZINC22834516
REMARK  10 active torsions:
REMARK  status: ('A' for Active; 'I' for Inactive)
REMARK    1  A    between atoms: C_1  and  C_2
REMARK    2  A    between atoms: C_2  and  O_3
REMARK    3  A    between atoms: O_3  and  C_4
REMARK    4  A    between atoms: C_4  and  C_6
REMARK    5  A    between atoms: C_7  and  C_21
REMARK    6  A    between atoms: C_12  and  C_14
REMARK    7  A    between atoms: C_21  and  N_22
REMARK    8  A    between atoms: N_25  and  C_28
REMARK    9  A    between atoms: C_28  and  C_29
REMARK   10  A    between atoms: C_32  and  C_35
REMARK                            x       y       z     vdW  Elec       q    Type
REMARK                         _______ _______ _______ _____ _____    ______ ____
ROOT
ATOM      1  C   UNL     1      -2.419   2.376  -0.025  0.00  0.00    +0.079 C 
ATOM      2  C   UNL     1      -1.845   2.276   1.192  0.00  0.00    +0.038 C 
ATOM      3  N   UNL     1      -0.574   1.797   1.335  0.00  0.00    -0.271 N 
ATOM      4  C   UNL     1       0.188   1.396   0.309  0.00  0.00    +0.304 C 
ATOM      5  O   UNL     1       1.309   0.983   0.535  0.00  0.00    -0.252 OA
ATOM      6  N   UNL     1      -0.247   1.436  -0.966  0.00  0.00    -0.288 N 
ATOM      7  C   UNL     1      -1.607   1.938  -1.227  0.00  0.00    +0.144 C 
ATOM      8  H   UNL     1      -0.122   1.723   2.335  0.00  0.00    +0.156 HD
ATOM      9  H   UNL     1       0.387   1.105  -1.802  0.00  0.00    +0.151 HD
ENDROOT
BRANCH   7  10
ATOM     10  C   UNL     1      -2.375   0.853  -1.936  0.00  0.00    -0.022 A 
ATOM     11  C   UNL     1      -2.275  -0.458  -1.507  0.00  0.00    +0.007 A 
ATOM     12  C   UNL     1      -2.983  -1.453  -2.153  0.00  0.00    +0.020 A 
ATOM     13  C   UNL     1      -3.784  -1.139  -3.237  0.00  0.00    +0.041 A 
ATOM     14  C   UNL     1      -3.879   0.171  -3.670  0.00  0.00    +0.020 A 
ATOM     15  C   UNL     1      -3.175   1.167  -3.019  0.00  0.00    +0.007 A 
ATOM     16 CL   UNL     1      -4.668  -2.390  -4.054  0.00  0.00    -0.084 Cl
ENDBRANCH   7  10
BRANCH   1  17
ATOM     17  C   UNL     1      -3.734   2.874  -0.174  0.00  0.00    +0.339 C 
ATOM     18  O   UNL     1      -4.327   3.325   0.789  0.00  0.00    -0.245 OA
BRANCH  17  19
ATOM     19  O   UNL     1      -4.333   2.849  -1.383  0.00  0.00    -0.462 OA
BRANCH  19  21
ATOM     20  C   UNL     1      -6.171   3.256  -2.898  0.00  0.00    +0.048 C 
ATOM     21  C   UNL     1      -5.662   3.368  -1.460  0.00  0.00    +0.229 C 
ENDBRANCH  19  21
ENDBRANCH  17  19
ENDBRANCH   1  17
BRANCH   2  22
ATOM     22  C   UNL     1      -2.618   2.700   2.414  0.00  0.00    +0.136 C 
BRANCH  22  23
ATOM     23  N   UNL     1      -2.464   4.148   2.612  0.00  0.00    -0.295 NA
ATOM     24  C   UNL     1      -1.075   4.489   2.946  0.00  0.00    +0.100 C 
ATOM     25  C   UNL     1      -0.940   6.009   3.066  0.00  0.00    +0.100 C 
ATOM     26  N   UNL     1      -1.863   6.500   4.099  0.00  0.00    -0.296 NA
ATOM     27  C   UNL     1      -3.252   6.159   3.765  0.00  0.00    +0.100 C 
ATOM     28  C   UNL     1      -3.387   4.639   3.646  0.00  0.00    +0.100 C 
BRANCH  26  29
ATOM     29  C   UNL     1      -1.709   7.947   4.298  0.00  0.00    +0.119 C 
BRANCH  29  30
ATOM     30  C   UNL     1      -0.244   8.289   4.394  0.00  0.00    -0.033 A 
ATOM     31  C   UNL     1       0.383   8.291   5.627  0.00  0.00    +0.006 A 
ATOM     32  C   UNL     1       1.724   8.598   5.721  0.00  0.00    +0.019 A 
ATOM     33  C   UNL     1       2.447   8.916   4.570  0.00  0.00    +0.052 A 
ATOM     34  C   UNL     1       1.807   8.917   3.329  0.00  0.00    +0.019 A 
ATOM     35  C   UNL     1       0.466   8.603   3.249  0.00  0.00    +0.006 A 
BRANCH  33  36
ATOM     36  C   UNL     1       3.839   9.241   4.661  0.00  0.00    +0.099 C 
ATOM     37  N   UNL     1       4.943   9.498   4.734  0.00  0.00    -0.191 NA
ENDBRANCH  33  36
ENDBRANCH  29  30
ENDBRANCH  26  29
ENDBRANCH  22  23
ENDBRANCH   2  22
TORSDOF 9
