REMARK  Name = ZINC59768635
REMARK  8 active torsions:
REMARK  status: ('A' for Active; 'I' for Inactive)
REMARK    1  A    between atoms: C_1  and  C_2
REMARK    2  A    between atoms: C_6  and  N_29
REMARK    3  A    between atoms: C_7  and  S_8
REMARK    4  A    between atoms: S_8  and  N_11
REMARK    5  A    between atoms: N_11  and  C_12
REMARK    6  A    between atoms: C_17  and  N_18
REMARK    7  A    between atoms: N_18  and  S_19
REMARK    8  A    between atoms: S_19  and  C_22
REMARK                            x       y       z     vdW  Elec       q    Type
REMARK                         _______ _______ _______ _____ _____    ______ ____
ROOT
ATOM      1  C   UNL     1      -1.892   0.744   4.433  0.00  0.00    +0.097 A 
ATOM      2  C   UNL     1      -0.811   1.539   4.785  0.00  0.00    +0.028 A 
ATOM      3  C   UNL     1      -0.880   2.341   5.909  0.00  0.00    +0.002 A 
ATOM      4  C   UNL     1      -2.025   2.355   6.684  0.00  0.00    +0.002 A 
ATOM      5  C   UNL     1      -3.107   1.565   6.341  0.00  0.00    +0.026 A 
ATOM      6  C   UNL     1      -3.048   0.761   5.213  0.00  0.00    +0.072 A 
ENDROOT
BRANCH   6   7
ATOM      7  N   UNL     1      -4.145  -0.035   4.860  0.00  0.00    -0.214 N 
ATOM      8  H   UNL     1      -4.002  -0.913   4.474  0.00  0.00    +0.174 HD
BRANCH   7   9
ATOM      9  S   UNL     1      -5.685   0.524   5.101  0.00  0.00    +0.072 S 
ATOM     10  O   UNL     1      -6.558  -0.412   4.483  0.00  0.00    -0.150 OA
ATOM     11  O   UNL     1      -5.783   0.864   6.477  0.00  0.00    -0.150 OA
BRANCH   9  12
ATOM     12  C   UNL     1      -5.840   2.029   4.197  0.00  0.00    +0.109 A 
ATOM     13  C   UNL     1      -5.524   3.232   4.800  0.00  0.00    +0.031 A 
ATOM     14  C   UNL     1      -5.645   4.413   4.093  0.00  0.00    +0.040 A 
ATOM     15  C   UNL     1      -6.084   4.391   2.780  0.00  0.00    +0.124 A 
ATOM     16  C   UNL     1      -6.401   3.185   2.177  0.00  0.00    +0.040 A 
ATOM     17  C   UNL     1      -6.274   2.005   2.885  0.00  0.00    +0.031 A 
ATOM     18  F   UNL     1      -6.203   5.545   2.087  0.00  0.00    -0.205 F 
ENDBRANCH   9  12
ENDBRANCH   7   9
ENDBRANCH   6   7
BRANCH   1  19
ATOM     19  N   UNL     1      -1.824  -0.069   3.295  0.00  0.00    -0.096 NA
BRANCH  19  20
ATOM     20  S   UNL     1      -0.450  -0.087   2.371  0.00  0.00    +0.094 S 
ATOM     21  O   UNL     1       0.573  -0.657   3.176  0.00  0.00    -0.148 OA
ATOM     22  O   UNL     1      -0.333   1.205   1.792  0.00  0.00    -0.148 OA
BRANCH  20  29
ATOM     23  C   UNL     1       1.026  -2.703   2.017  0.00  0.00    +0.046 C 
ATOM     24  C   UNL     1      -0.005  -2.385   0.966  0.00  0.00    -0.022 A 
ATOM     25  C   UNL     1      -0.229  -3.269  -0.073  0.00  0.00    +0.005 A 
ATOM     26  C   UNL     1      -1.175  -2.976  -1.038  0.00  0.00    +0.003 A 
ATOM     27  C   UNL     1      -1.897  -1.800  -0.964  0.00  0.00    +0.035 A 
ATOM     28  C   UNL     1      -1.674  -0.916   0.075  0.00  0.00    +0.153 A 
ATOM     29  C   UNL     1      -0.731  -1.211   1.043  0.00  0.00    +0.143 A 
BRANCH  28  30
ATOM     30  N   UNL     1      -2.446   0.344   0.155  0.00  0.00    +0.058 N 
ATOM     31  O   UNL     1      -3.166   0.670  -0.760  0.00  0.00    -0.126 OA
ATOM     32  O   UNL     1      -2.358   1.046   1.135  0.00  0.00    -0.126 OA
ENDBRANCH  28  30
ENDBRANCH  20  29
ENDBRANCH  19  20
ENDBRANCH   1  19
TORSDOF 7
