REMARK  Name = ZINC04087362
REMARK  6 active torsions:
REMARK  status: ('A' for Active; 'I' for Inactive)
REMARK    1  A    between atoms: C_1  and  C_2
REMARK    2  A    between atoms: C_3  and  C_18
REMARK    3  A    between atoms: C_5  and  N_10
REMARK    4  A    between atoms: C_6  and  C_7
REMARK    5  A    between atoms: C_11  and  C_13
REMARK    6  A    between atoms: C_18  and  C_19
REMARK                            x       y       z     vdW  Elec       q    Type
REMARK                         _______ _______ _______ _____ _____    ______ ____
ROOT
ATOM      1  C   UNL     1       3.617   4.224   1.710  0.00  0.00    +0.045 C 
ATOM      2  C   UNL     1       2.205   4.378   2.213  0.00  0.00    -0.026 A 
ATOM      3  C   UNL     1       1.148   4.090   1.433  0.00  0.00    -0.000 A 
ATOM      4  S   UNL     1      -0.245   4.429   2.490  0.00  0.00    -0.077 S 
ATOM      5  C   UNL     1       0.592   4.942   3.916  0.00  0.00    +0.085 A 
ATOM      6  C   UNL     1       1.930   4.844   3.552  0.00  0.00    +0.068 A 
ENDROOT
BRANCH   6   7
ATOM      7  C   UNL     1       3.008   5.191   4.482  0.00  0.00    +0.244 C 
ATOM      8  O   UNL     1       3.477   4.339   5.215  0.00  0.00    -0.270 OA
ATOM      9  N   UNL     1       3.480   6.452   4.527  0.00  0.00    -0.325 N 
ATOM     10  H   UNL     1       3.106   7.131   3.943  0.00  0.00    +0.145 HD
ATOM     11  H   UNL     1       4.193   6.682   5.143  0.00  0.00    +0.145 HD
ENDBRANCH   6   7
BRANCH   5  12
ATOM     12  N   UNL     1       0.057   5.353   5.126  0.00  0.00    -0.273 N 
ATOM     13  C   UNL     1      -1.279   5.384   5.297  0.00  0.00    +0.284 C 
ATOM     14  O   UNL     1      -2.017   5.051   4.388  0.00  0.00    -0.266 OA
ATOM     15  H   UNL     1       0.645   5.617   5.851  0.00  0.00    +0.156 HD
BRANCH  13  16
ATOM     16  C   UNL     1      -1.845   5.818   6.578  0.00  0.00    +0.189 A 
ATOM     17  C   UNL     1      -3.174   5.896   6.883  0.00  0.00    +0.054 A 
ATOM     18  C   UNL     1      -3.257   6.355   8.207  0.00  0.00    +0.042 A 
ATOM     19  C   UNL     1      -1.992   6.535   8.646  0.00  0.00    +0.196 A 
ATOM     20  O   UNL     1      -1.143   6.204   7.664  0.00  0.00    -0.458 OA
ENDBRANCH  13  16
ENDBRANCH   5  12
BRANCH   3  21
ATOM     21  C   UNL     1       1.143   3.595   0.010  0.00  0.00    +0.078 C 
BRANCH  21  22
ATOM     22  C   UNL     1       1.169   2.089   0.002  0.00  0.00    -0.039 A 
ATOM     23  C   UNL     1      -0.017   1.378   0.010  0.00  0.00    +0.008 A 
ATOM     24  C   UNL     1       0.002  -0.004   0.002  0.00  0.00    +0.050 A 
ATOM     25  C   UNL     1       1.211  -0.681  -0.013  0.00  0.00    +0.166 A 
ATOM     26  C   UNL     1       2.405   0.035  -0.021  0.00  0.00    +0.166 A 
ATOM     27  C   UNL     1       2.379   1.420  -0.012  0.00  0.00    +0.053 A 
ATOM     28  O   UNL     1       3.444  -0.851  -0.036  0.00  0.00    -0.453 OA
ATOM     29  C   UNL     1       2.873  -2.106  -0.450  0.00  0.00    +0.466 C 
ATOM     30  O   UNL     1       1.501  -2.015  -0.024  0.00  0.00    -0.453 OA
ENDBRANCH  21  22
ENDBRANCH   3  21
TORSDOF 5
