REMARK  Name = ZINC15277549
REMARK  7 active torsions:
REMARK  status: ('A' for Active; 'I' for Inactive)
REMARK    1  A    between atoms: C_1  and  C_2
REMARK    2  A    between atoms: C_2  and  C_3
REMARK    3  A    between atoms: C_3  and  C_4
REMARK    4  A    between atoms: C_4  and  C_33
REMARK    5  A    between atoms: C_9  and  C_11
REMARK    6  A    between atoms: C_16  and  O_17
REMARK    7  A    between atoms: N_20  and  C_23
REMARK                            x       y       z     vdW  Elec       q    Type
REMARK                         _______ _______ _______ _____ _____    ______ ____
ROOT
ATOM      1  C   UNL     1      -2.429   1.893  -0.533  0.00  0.00    +0.048 C 
ATOM      2  C   UNL     1      -1.091   2.127   0.064  0.00  0.00    +0.086 C 
ATOM      3  C   UNL     1      -0.571   3.335  -0.805  0.00  0.00    +0.077 C 
ATOM      4  C   UNL     1      -1.785   4.222  -0.676  0.00  0.00    -0.023 C 
ATOM      5  C   UNL     1       0.731   3.520  -0.126  0.00  0.00    +0.229 C 
ATOM      6  O   UNL     1       1.306   4.565   0.089  0.00  0.00    -0.275 OA
ATOM      7  N   UNL     1       1.147   2.258   0.210  0.00  0.00    -0.209 N 
ATOM      8  C   UNL     1       0.134   1.334   0.141  0.00  0.00    +0.229 C 
ATOM      9  O   UNL     1       0.234   0.126   0.138  0.00  0.00    -0.275 OA
ATOM     10  N   UNL     1      -2.902   3.257  -0.909  0.00  0.00    +0.396 N 
ATOM     11  H   UNL     1      -3.710   3.515  -0.330  0.00  0.00    -0.083 HD
ATOM     12  H   UNL     1      -3.171   3.270  -1.899  0.00  0.00    -0.083 HD
ENDROOT
BRANCH   7  13
ATOM     13  C   UNL     1       2.459   1.946   0.582  0.00  0.00    +0.052 A 
ATOM     14  C   UNL     1       3.381   1.572  -0.371  0.00  0.00    +0.024 A 
ATOM     15  C   UNL     1       4.690   1.264  -0.012  0.00  0.00    +0.002 A 
ATOM     16  C   UNL     1       5.093   1.313   1.287  0.00  0.00    +0.008 A 
ATOM     17  C   UNL     1       4.181   1.684   2.290  0.00  0.00    -0.016 A 
ATOM     18  C   UNL     1       2.847   2.005   1.937  0.00  0.00    +0.004 A 
ATOM     19  C   UNL     1       1.938   2.375   2.940  0.00  0.00    +0.010 A 
ATOM     20  C   UNL     1       2.348   2.421   4.237  0.00  0.00    +0.001 A 
ATOM     21  C   UNL     1       3.659   2.105   4.587  0.00  0.00    +0.001 A 
ATOM     22  C   UNL     1       4.568   1.742   3.641  0.00  0.00    +0.008 A 
ENDBRANCH   7  13
BRANCH   4  23
ATOM     23  C   UNL     1      -1.773   5.303  -1.727  0.00  0.00    -0.019 A 
ATOM     24  C   UNL     1      -0.936   5.194  -2.821  0.00  0.00    +0.005 A 
ATOM     25  C   UNL     1      -0.927   6.183  -3.787  0.00  0.00    +0.000 A 
ATOM     26  C   UNL     1      -1.748   7.287  -3.656  0.00  0.00    +0.004 A 
ATOM     27  C   UNL     1      -2.583   7.404  -2.562  0.00  0.00    +0.045 A 
ATOM     28  C   UNL     1      -2.597   6.410  -1.593  0.00  0.00    +0.118 A 
BRANCH  28  29
ATOM     29  O   UNL     1      -3.417   6.522  -0.516  0.00  0.00    -0.507 OA
ATOM     30  H   UNL     1      -3.046   7.043   0.209  0.00  0.00    +0.292 HD
ENDBRANCH  28  29
ENDBRANCH   4  23
BRANCH   1  31
ATOM     31  C   UNL     1      -2.309   1.019  -1.754  0.00  0.00    +0.346 C 
ATOM     32  O   UNL     1      -1.408   0.219  -1.839  0.00  0.00    -0.248 OA
ATOM     33  O   UNL     1      -3.205   1.129  -2.748  0.00  0.00    -0.248 OA
ENDBRANCH   1  31
BRANCH   1  34
ATOM     34  C   UNL     1      -3.372   1.258   0.490  0.00  0.00    -0.001 C 
BRANCH  34  36
ATOM     35  C   UNL     1      -5.708   0.469   0.897  0.00  0.00    +0.004 C 
ATOM     36  C   UNL     1      -4.764   1.105  -0.126  0.00  0.00    -0.004 C 
ENDBRANCH  34  36
ENDBRANCH   1  34
TORSDOF 6
