REMARK  Name = ZINC39595345
REMARK  7 active torsions:
REMARK  status: ('A' for Active; 'I' for Inactive)
REMARK    1  A    between atoms: C_1  and  C_2
REMARK    2  A    between atoms: C_2  and  C_4
REMARK    3  A    between atoms: C_2  and  O_28
REMARK    4  A    between atoms: C_4  and  N_5
REMARK    5  A    between atoms: C_6  and  C_8
REMARK    6  A    between atoms: C_19  and  C_21
REMARK    7  A    between atoms: O_28  and  C_29
REMARK                            x       y       z     vdW  Elec       q    Type
REMARK                         _______ _______ _______ _____ _____    ______ ____
ROOT
ATOM      1  C   UNL     1       0.740  -3.735   2.362  0.00  0.00    +0.100 C 
ATOM      2  C   UNL     1       0.964  -4.366   0.969  0.00  0.00    +0.121 C 
ATOM      3  N   UNL     1       2.402  -4.721   0.946  0.00  0.00    -0.296 N 
ATOM      4  C   UNL     1       2.679  -5.230   2.311  0.00  0.00    +0.115 C 
ATOM      5  C   UNL     1       1.865  -4.308   3.240  0.00  0.00    -0.004 C 
ATOM      6  C   UNL     1       2.749  -3.181   3.768  0.00  0.00    -0.010 C 
ATOM      7  C   UNL     1       3.825  -3.770   4.684  0.00  0.00    -0.082 C 
ATOM      8  N   UNL     1       3.187  -4.481   5.798  0.00  0.00    +0.379 N 
ATOM      9  C   UNL     1       2.413  -5.620   5.288  0.00  0.00    -0.082 C 
ATOM     10  C   UNL     1       1.277  -5.109   4.397  0.00  0.00    -0.010 C 
ATOM     11  C   UNL     1       3.265  -4.607  -0.084  0.00  0.00    +0.248 C 
ATOM     12  O   UNL     1       4.401  -5.027   0.026  0.00  0.00    -0.270 OA
ATOM     13  H   UNL     1       3.897  -4.816   6.432  0.00  0.00    -0.086 HD
ATOM     14  H   UNL     1       2.571  -3.851   6.289  0.00  0.00    -0.086 HD
ENDROOT
BRANCH  11  15
ATOM     15  C   UNL     1       2.830  -3.973  -1.345  0.00  0.00    +0.055 A 
ATOM     16  C   UNL     1       1.575  -4.267  -1.882  0.00  0.00    +0.014 A 
ATOM     17  C   UNL     1       1.175  -3.671  -3.060  0.00  0.00    +0.001 A 
ATOM     18  C   UNL     1       2.014  -2.783  -3.710  0.00  0.00    +0.001 A 
ATOM     19  C   UNL     1       3.259  -2.486  -3.185  0.00  0.00    +0.021 A 
ATOM     20  C   UNL     1       3.670  -3.071  -2.003  0.00  0.00    +0.053 A 
ATOM     21 CL   UNL     1       5.229  -2.692  -1.341  0.00  0.00    -0.083 Cl
ENDBRANCH  11  15
BRANCH   1  23
ATOM     22  N   UNL     1       0.260  -1.465   3.218  0.00  0.00    -0.312 N 
ATOM     23  C   UNL     1       0.849  -2.234   2.282  0.00  0.00    +0.218 C 
ATOM     24  O   UNL     1       1.467  -1.719   1.374  0.00  0.00    -0.275 OA
ATOM     25  H   UNL     1      -0.234  -1.877   3.944  0.00  0.00    +0.149 HD
BRANCH  22  26
ATOM     26  C   UNL     1       0.366  -0.006   3.140  0.00  0.00    +0.148 C 
BRANCH  26  28
ATOM     27  C   UNL     1      -0.275   2.147   4.234  0.00  0.00    +0.053 C 
ATOM     28  C   UNL     1      -0.386   0.624   4.315  0.00  0.00    +0.187 C 
BRANCH  28  29
ATOM     29  O   UNL     1      -1.762   0.242   4.260  0.00  0.00    -0.488 OA
BRANCH  29  30
ATOM     30  C   UNL     1      -2.437   0.193   5.439  0.00  0.00    +0.121 A 
ATOM     31  C   UNL     1      -3.744  -0.272   5.471  0.00  0.00    +0.048 A 
ATOM     32  C   UNL     1      -4.428  -0.322   6.670  0.00  0.00    +0.042 A 
ATOM     33  C   UNL     1      -3.811   0.092   7.839  0.00  0.00    +0.124 A 
ATOM     34  C   UNL     1      -2.507   0.556   7.807  0.00  0.00    +0.042 A 
ATOM     35  C   UNL     1      -1.817   0.601   6.611  0.00  0.00    +0.048 A 
ATOM     36  F   UNL     1      -4.482   0.043   9.010  0.00  0.00    -0.205 F 
ENDBRANCH  29  30
ENDBRANCH  28  29
ENDBRANCH  26  28
ENDBRANCH  22  26
ENDBRANCH   1  23
TORSDOF 6
