REMARK  Name = ZINC35546730
REMARK  8 active torsions:
REMARK  status: ('A' for Active; 'I' for Inactive)
REMARK    1  A    between atoms: C_1  and  C_2
REMARK    2  A    between atoms: C_2  and  C_3
REMARK    3  A    between atoms: N_7  and  C_28
REMARK    4  A    between atoms: C_11  and  N_16
REMARK    5  A    between atoms: C_17  and  C_19
REMARK    6  A    between atoms: C_22  and  N_25
REMARK    7  A    between atoms: C_28  and  C_29
REMARK    8  A    between atoms: C_28  and  C_30
REMARK                            x       y       z     vdW  Elec       q    Type
REMARK                         _______ _______ _______ _____ _____    ______ ____
ROOT
ATOM      1  C   UNL     1       0.708  -0.133  -1.287  0.00  0.00    +0.258 C 
ATOM      2  C   UNL     1       0.953  -1.610  -1.274  0.00  0.00    +0.257 C 
ATOM      3  O   UNL     1       2.103  -1.909  -1.029  0.00  0.00    -0.272 OA
ATOM      4  N   UNL     1       0.198  -2.614  -1.468  0.00  0.00    -0.291 N 
ATOM      5  C   UNL     1      -1.115  -2.752  -2.003  0.00  0.00    +0.147 C 
ATOM      6  C   UNL     1      -1.819  -1.538  -2.525  0.00  0.00    +0.013 A 
ATOM      7  C   UNL     1      -3.127  -1.809  -2.958  0.00  0.00    +0.032 A 
ATOM      8  C   UNL     1      -3.954  -0.807  -3.421  0.00  0.00    +0.034 A 
ATOM      9  C   UNL     1      -3.476   0.498  -3.446  0.00  0.00    +0.027 A 
ATOM     10  C   UNL     1      -2.192   0.750  -3.040  0.00  0.00    +0.048 A 
ATOM     11  C   UNL     1      -1.331  -0.285  -2.599  0.00  0.00    +0.126 A 
ATOM     12  O   UNL     1      -0.082   0.230  -2.402  0.00  0.00    -0.479 OA
ENDROOT
BRANCH   8  13
ATOM     13  N   UNL     1      -5.252  -1.099  -3.859  0.00  0.00    -0.281 N 
ATOM     14  C   UNL     1      -5.790  -0.405  -4.881  0.00  0.00    +0.248 C 
ATOM     15  O   UNL     1      -5.117   0.406  -5.487  0.00  0.00    -0.270 OA
ATOM     16  H   UNL     1      -5.763  -1.800  -3.426  0.00  0.00    +0.155 HD
BRANCH  14  17
ATOM     17  C   UNL     1      -7.200  -0.629  -5.264  0.00  0.00    +0.037 A 
ATOM     18  C   UNL     1      -7.978  -1.554  -4.567  0.00  0.00    +0.015 A 
ATOM     19  C   UNL     1      -9.293  -1.758  -4.930  0.00  0.00    +0.033 A 
ATOM     20  C   UNL     1      -9.841  -1.048  -5.983  0.00  0.00    +0.126 A 
ATOM     21  C   UNL     1      -9.076  -0.130  -6.679  0.00  0.00    +0.033 A 
ATOM     22  C   UNL     1      -7.761   0.088  -6.323  0.00  0.00    +0.015 A 
BRANCH  20  23
ATOM     23  N   UNL     1     -11.253  -1.273  -6.367  0.00  0.00    +0.056 N 
ATOM     24  O   UNL     1     -11.924  -2.075  -5.761  0.00  0.00    -0.126 OA
ATOM     25  O   UNL     1     -11.735  -0.654  -7.287  0.00  0.00    -0.126 OA
ENDBRANCH  20  23
ENDBRANCH  14  17
ENDBRANCH   8  13
BRANCH   4  26
ATOM     26  C   UNL     1       0.800  -3.885  -1.059  0.00  0.00    +0.070 C 
ATOM     27  C   UNL     1      -0.001  -4.478   0.102  0.00  0.00    +0.028 C 
ATOM     28  C   UNL     1       0.785  -4.859  -2.239  0.00  0.00    +0.028 C 
ENDBRANCH   4  26
BRANCH   1  30
ATOM     29  C   UNL     1      -0.149   1.793   0.055  0.00  0.00    +0.008 C 
ATOM     30  C   UNL     1      -0.018   0.270  -0.002  0.00  0.00    +0.051 C 
ENDBRANCH   1  30
TORSDOF 5
