REMARK  Name = ZINC32857648
REMARK  9 active torsions:
REMARK  status: ('A' for Active; 'I' for Inactive)
REMARK    1  A    between atoms: C_1  and  C_2
REMARK    2  A    between atoms: C_2  and  C_3
REMARK    3  A    between atoms: C_3  and  N_4
REMARK    4  A    between atoms: C_5  and  C_7
REMARK    5  A    between atoms: N_10  and  C_18
REMARK    6  A    between atoms: C_18  and  C_19
REMARK    7  A    between atoms: N_21  and  C_22
REMARK    8  A    between atoms: N_21  and  C_23
REMARK    9  A    between atoms: C_26  and  N_29
REMARK                            x       y       z     vdW  Elec       q    Type
REMARK                         _______ _______ _______ _____ _____    ______ ____
ROOT
ATOM      1  C   UNL     1       4.607   1.387  -0.580  0.00  0.00    +0.276 C 
ATOM      2  C   UNL     1       4.639   0.085   0.231  0.00  0.00    +0.160 C 
ATOM      3  N   UNL     1       3.527  -0.767  -0.208  0.00  0.00    -0.314 N 
ATOM      4  C   UNL     1       2.310  -0.079  -0.223  0.00  0.00    +0.073 A 
ATOM      5  C   UNL     1       1.129  -0.814  -0.205  0.00  0.00    +0.027 A 
ATOM      6  C   UNL     1      -0.092  -0.169  -0.230  0.00  0.00    +0.002 A 
ATOM      7  C   UNL     1      -0.146   1.212  -0.273  0.00  0.00    +0.004 A 
ATOM      8  C   UNL     1       1.022   1.950  -0.289  0.00  0.00    +0.047 A 
ATOM      9  C   UNL     1       2.252   1.309  -0.263  0.00  0.00    +0.143 A 
ATOM     10  O   UNL     1       3.384   2.066  -0.275  0.00  0.00    -0.476 OA
ENDROOT
BRANCH   1  12
ATOM     11  N   UNL     1       7.034   1.856  -0.490  0.00  0.00    -0.312 N 
ATOM     12  C   UNL     1       5.780   2.253  -0.199  0.00  0.00    +0.255 C 
ATOM     13  O   UNL     1       5.595   3.308   0.370  0.00  0.00    -0.272 OA
ATOM     14  H   UNL     1       7.202   0.899  -1.006  0.00  0.00    +0.149 HD
BRANCH  11  15
ATOM     15  C   UNL     1       8.174   2.698  -0.120  0.00  0.00    +0.104 C 
BRANCH  15  17
ATOM     16  C   UNL     1      10.664   2.901  -0.175  0.00  0.00    +0.005 C 
ATOM     17  C   UNL     1       9.473   2.021  -0.562  0.00  0.00    +0.015 C 
ENDBRANCH  15  17
ENDBRANCH  11  15
ENDBRANCH   1  12
BRANCH   3  18
ATOM     18  C   UNL     1       3.436  -1.980   0.616  0.00  0.00    +0.201 C 
BRANCH  18  19
ATOM     19  C   UNL     1       4.586  -2.897   0.289  0.00  0.00    +0.237 C 
ATOM     20  O   UNL     1       5.417  -2.561  -0.528  0.00  0.00    -0.274 OA
ATOM     21  N   UNL     1       4.692  -4.091   0.905  0.00  0.00    -0.273 N 
ATOM     22  C   UNL     1       3.638  -4.540   1.819  0.00  0.00    +0.138 C 
BRANCH  21  23
ATOM     23  C   UNL     1       5.807  -4.903   0.671  0.00  0.00    +0.036 A 
ATOM     24  C   UNL     1       5.644  -6.169   0.125  0.00  0.00    +0.026 A 
ATOM     25  C   UNL     1       6.748  -6.966  -0.109  0.00  0.00    +0.034 A 
ATOM     26  C   UNL     1       8.013  -6.508   0.209  0.00  0.00    +0.126 A 
ATOM     27  C   UNL     1       8.178  -5.250   0.758  0.00  0.00    +0.034 A 
ATOM     28  C   UNL     1       7.079  -4.446   0.990  0.00  0.00    +0.026 A 
BRANCH  26  29
ATOM     29  N   UNL     1       9.193  -7.367  -0.038  0.00  0.00    +0.056 N 
ATOM     30  O   UNL     1      10.308  -6.965   0.242  0.00  0.00    -0.126 OA
ATOM     31  O   UNL     1       9.049  -8.475  -0.521  0.00  0.00    -0.126 OA
ENDBRANCH  26  29
ENDBRANCH  21  23
ENDBRANCH  18  19
ENDBRANCH   3  18
TORSDOF 7
