REMARK  Name = ZINC37279540
REMARK  6 active torsions:
REMARK  status: ('A' for Active; 'I' for Inactive)
REMARK    1  A    between atoms: C_1  and  C_2
REMARK    2  A    between atoms: C_2  and  C_3
REMARK    3  A    between atoms: C_2  and  C_4
REMARK    4  A    between atoms: C_4  and  C_5
REMARK    5  A    between atoms: C_5  and  N_6
REMARK    6  A    between atoms: N_15  and  C_18
REMARK                            x       y       z     vdW  Elec       q    Type
REMARK                         _______ _______ _______ _____ _____    ______ ____
ROOT
ATOM      1  N   UNL     1      -2.790  -2.565  -0.111  0.00  0.00    -0.259 N 
ATOM      2  C   UNL     1      -3.369  -2.892   1.063  0.00  0.00    +0.282 A 
ATOM      3  O   UNL     1      -2.755  -2.767   2.108  0.00  0.00    -0.265 OA
ATOM      4  C   UNL     1      -4.693  -3.379   1.067  0.00  0.00    +0.149 A 
ATOM      5  C   UNL     1      -5.370  -3.511  -0.140  0.00  0.00    +0.172 A 
ATOM      6  N   UNL     1      -6.586  -3.986   0.138  0.00  0.00    -0.218 NA
ATOM      7  C   UNL     1      -6.711  -4.157   1.430  0.00  0.00    +0.199 A 
ATOM      8  N   UNL     1      -5.569  -3.797   2.048  0.00  0.00    -0.339 N 
ATOM      9  H   UNL     1      -5.396  -3.827   3.002  0.00  0.00    +0.167 HD
ATOM     10  N   UNL     1      -4.720  -3.158  -1.312  0.00  0.00    -0.242 N 
ATOM     11  C   UNL     1      -3.457  -2.692  -1.271  0.00  0.00    +0.338 A 
ATOM     12  O   UNL     1      -2.905  -2.383  -2.309  0.00  0.00    -0.246 OA
ENDROOT
BRANCH  10  13
ATOM     13  C   UNL     1      -5.381  -3.281  -2.543  0.00  0.00    +0.088 A 
ATOM     14  C   UNL     1      -6.116  -2.217  -3.047  0.00  0.00    +0.032 A 
ATOM     15  C   UNL     1      -6.766  -2.340  -4.259  0.00  0.00    +0.040 A 
ATOM     16  C   UNL     1      -6.685  -3.524  -4.974  0.00  0.00    +0.126 A 
ATOM     17  C   UNL     1      -5.952  -4.588  -4.474  0.00  0.00    +0.078 A 
ATOM     18  C   UNL     1      -5.295  -4.467  -3.264  0.00  0.00    +0.150 A 
ATOM     19  F   UNL     1      -4.575  -5.503  -2.779  0.00  0.00    -0.203 F 
ATOM     20  F   UNL     1      -7.322  -3.641  -6.159  0.00  0.00    -0.205 F 
ENDBRANCH  10  13
BRANCH   1  21
ATOM     21  C   UNL     1      -1.416  -2.058  -0.121  0.00  0.00    +0.130 C 
BRANCH  21  22
ATOM     22  C   UNL     1      -1.433  -0.534   0.013  0.00  0.00    +0.025 C 
BRANCH  22  24
ATOM     23  C   UNL     1      -0.019   1.526   0.010  0.00  0.00    +0.007 C 
ATOM     24  C   UNL     1       0.002  -0.004   0.002  0.00  0.00    -0.016 C 
ATOM     25  C   UNL     1       0.742  -0.511   1.242  0.00  0.00    +0.007 C 
ENDBRANCH  22  24
ENDBRANCH  21  22
ENDBRANCH   1  21
TORSDOF 4
