REMARK  Name = ZINC03301269
REMARK  9 active torsions:
REMARK  status: ('A' for Active; 'I' for Inactive)
REMARK    1  A    between atoms: C_4  and  N_7
REMARK    2  A    between atoms: C_9  and  C_17
REMARK    3  A    between atoms: C_10  and  C_12
REMARK    4  A    between atoms: C_18  and  C_19
REMARK    5  A    between atoms: N_21  and  C_22
REMARK    6  A    between atoms: C_22  and  C_23
REMARK    7  A    between atoms: C_23  and  C_24
REMARK    8  A    between atoms: C_27  and  S_30
REMARK    9  A    between atoms: S_30  and  N_33
REMARK                            x       y       z     vdW  Elec       q    Type
REMARK                         _______ _______ _______ _____ _____    ______ ____
ROOT
ATOM      1  C   UNL     1       1.145   2.105   0.002  0.00  0.00    +0.016 C 
ATOM      2  C   UNL     1      -0.017   1.413   0.010  0.00  0.00    +0.068 C 
ENDROOT
BRANCH   1   5
ATOM      3  N   UNL     1       0.427   5.663   0.028  0.00  0.00    -0.239 N 
ATOM      4  C   UNL     1       0.007   4.385   0.019  0.00  0.00    +0.123 A 
ATOM      5  C   UNL     1       1.125   3.571   0.011  0.00  0.00    +0.021 A 
ATOM      6  C   UNL     1       2.288   4.468   0.004  0.00  0.00    +0.107 A 
ATOM      7  N   UNL     1       1.825   5.700   0.015  0.00  0.00    -0.165 NA
BRANCH   3  11
ATOM      8  C   UNL     1      -2.060   9.006   0.068  0.00  0.00    +0.000 A 
ATOM      9  C   UNL     1      -0.687   9.168   0.056  0.00  0.00    +0.002 A 
ATOM     10  C   UNL     1       0.140   8.062   0.043  0.00  0.00    +0.028 A 
ATOM     11  C   UNL     1      -0.408   6.786   0.041  0.00  0.00    +0.065 A 
ATOM     12  C   UNL     1      -1.788   6.627   0.047  0.00  0.00    +0.028 A 
ATOM     13  C   UNL     1      -2.610   7.737   0.067  0.00  0.00    +0.002 A 
ENDBRANCH   3  11
BRANCH   6  14
ATOM     14  C   UNL     1       3.708   4.064  -0.011  0.00  0.00    +0.040 A 
ATOM     15  C   UNL     1       4.771   4.670  -0.628  0.00  0.00    +0.018 A 
ATOM     16  C   UNL     1       6.021   4.104  -0.500  0.00  0.00    +0.008 A 
ATOM     17  C   UNL     1       6.161   2.968   0.230  0.00  0.00    +0.046 A 
ATOM     18  S   UNL     1       4.489   2.665   0.776  0.00  0.00    -0.095 S 
ENDBRANCH   6  14
ENDBRANCH   1   5
BRANCH   2  19
ATOM     19  C   UNL     1       0.002  -0.004   0.002  0.00  0.00    +0.237 C 
ATOM     20  O   UNL     1       1.065  -0.598  -0.011  0.00  0.00    -0.271 OA
ATOM     21  N   UNL     1      -1.156  -0.694   0.009  0.00  0.00    -0.312 N 
ATOM     22  H   UNL     1      -2.002  -0.220   0.020  0.00  0.00    +0.149 HD
BRANCH  21  23
ATOM     23  C   UNL     1      -1.136  -2.159   0.001  0.00  0.00    +0.109 C 
BRANCH  23  24
ATOM     24  C   UNL     1      -2.571  -2.688   0.012  0.00  0.00    +0.054 C 
BRANCH  24  25
ATOM     25  C   UNL     1      -2.551  -4.195   0.004  0.00  0.00    -0.046 A 
ATOM     26  C   UNL     1      -2.559  -4.880  -1.197  0.00  0.00    +0.005 A 
ATOM     27  C   UNL     1      -2.535  -6.262  -1.205  0.00  0.00    +0.029 A 
ATOM     28  C   UNL     1      -2.514  -6.959  -0.011  0.00  0.00    +0.105 A 
ATOM     29  C   UNL     1      -2.511  -6.275   1.190  0.00  0.00    +0.029 A 
ATOM     30  C   UNL     1      -2.530  -4.893   1.197  0.00  0.00    +0.005 A 
BRANCH  28  31
ATOM     31  S   UNL     1      -2.489  -8.721  -0.021  0.00  0.00    +0.056 S 
ATOM     32  O   UNL     1      -1.945  -9.113  -1.274  0.00  0.00    -0.153 OA
ATOM     33  O   UNL     1      -1.919  -9.126   1.216  0.00  0.00    -0.153 OA
BRANCH  31  34
ATOM     34  N   UNL     1      -4.063  -9.233  -0.007  0.00  0.00    -0.204 NA
ATOM     35  H   UNL     1      -4.304 -10.073  -0.430  0.00  0.00    +0.144 HD
ATOM     36  H   UNL     1      -4.745  -8.694   0.422  0.00  0.00    +0.144 HD
ENDBRANCH  31  34
ENDBRANCH  28  31
ENDBRANCH  24  25
ENDBRANCH  23  24
ENDBRANCH  21  23
ENDBRANCH   2  19
TORSDOF 9
