REMARK  Name = ZINC38742974
REMARK  12 active torsions:
REMARK  status: ('A' for Active; 'I' for Inactive)
REMARK    1  A    between atoms: C_1  and  C_2
REMARK    2  A    between atoms: C_2  and  O_3
REMARK    3  A    between atoms: O_3  and  C_4
REMARK    4  A    between atoms: C_6  and  C_16
REMARK    5  A    between atoms: C_8  and  O_13
REMARK    6  A    between atoms: C_9  and  O_10
REMARK    7  A    between atoms: O_10  and  C_11
REMARK    8  A    between atoms: C_11  and  C_12
REMARK    9  A    between atoms: O_13  and  C_14
REMARK   10  A    between atoms: C_14  and  C_15
REMARK   11  A    between atoms: C_19  and  C_26
REMARK   12  A    between atoms: C_29  and  C_32
REMARK                            x       y       z     vdW  Elec       q    Type
REMARK                         _______ _______ _______ _____ _____    ______ ____
ROOT
ATOM      1  C   UNL     1       0.629  -4.949  -0.019  0.00  0.00    +0.125 C 
ATOM      2  N   UNL     1       1.885  -4.609  -0.018  0.00  0.00    -0.173 NA
ATOM      3  N   UNL     1       2.910  -5.526  -0.112  0.00  0.00    -0.206 N 
ATOM      4  C   UNL     1       4.332  -5.709  -0.483  0.00  0.00    +0.206 C 
ATOM      5  N   UNL     1       4.399  -7.028  -1.156  0.00  0.00    -0.231 NA
ATOM      6  N   UNL     1       3.053  -7.617  -1.061  0.00  0.00    -0.224 NA
ATOM      7  C   UNL     1       2.479  -6.941   0.121  0.00  0.00    +0.240 C 
ATOM      8  S   UNL     1       0.666  -6.735  -0.027  0.00  0.00    -0.063 S 
ATOM      9  H   UNL     1       4.684  -6.929  -2.119  0.00  0.00    +0.143 HD
ATOM     10  H   UNL     1       2.512  -7.418  -1.889  0.00  0.00    +0.144 HD
ENDROOT
BRANCH   1  13
ATOM     11  C   UNL     1      -1.498  -1.849   0.006  0.00  0.00    +0.166 A 
ATOM     12  C   UNL     1      -0.389  -2.677  -0.003  0.00  0.00    +0.060 A 
ATOM     13  C   UNL     1      -0.554  -4.062  -0.008  0.00  0.00    +0.016 A 
ATOM     14  C   UNL     1      -1.838  -4.610  -0.004  0.00  0.00    +0.060 A 
ATOM     15  C   UNL     1      -2.944  -3.779   0.005  0.00  0.00    +0.166 A 
ATOM     16  C   UNL     1      -2.777  -2.398   0.016  0.00  0.00    +0.204 A 
BRANCH  11  17
ATOM     17  O   UNL     1      -1.339  -0.499   0.012  0.00  0.00    -0.488 OA
BRANCH  17  19
ATOM     18  C   UNL     1      -0.019   1.526   0.010  0.00  0.00    +0.048 C 
ATOM     19  C   UNL     1       0.002  -0.004   0.002  0.00  0.00    +0.226 C 
ENDBRANCH  17  19
ENDBRANCH  11  17
BRANCH  16  20
ATOM     20  O   UNL     1      -3.866  -1.582   0.030  0.00  0.00    -0.485 OA
BRANCH  20  21
ATOM     21  C   UNL     1      -4.397  -1.187  -1.236  0.00  0.00    +0.226 C 
ATOM     22  C   UNL     1      -5.609  -0.279  -1.020  0.00  0.00    +0.048 C 
ENDBRANCH  20  21
ENDBRANCH  16  20
BRANCH  15  23
ATOM     23  O   UNL     1      -4.195  -4.312   0.008  0.00  0.00    -0.488 OA
BRANCH  23  24
ATOM     24  C   UNL     1      -4.292  -5.738   0.002  0.00  0.00    +0.226 C 
ATOM     25  C   UNL     1      -5.766  -6.148   0.007  0.00  0.00    +0.048 C 
ENDBRANCH  23  24
ENDBRANCH  15  23
ENDBRANCH   1  13
BRANCH   4  26
ATOM     26  C   UNL     1       5.211  -5.706   0.770  0.00  0.00    +0.190 C 
ATOM     27  C   UNL     1       6.677  -5.826   0.396  0.00  0.00    +0.034 C 
ATOM     28  C   UNL     1       7.065  -6.978   0.978  0.00  0.00    +0.091 C 
ATOM     29  N   UNL     1       6.024  -7.548   1.641  0.00  0.00    -0.154 NA
ATOM     30  N   UNL     1       4.966  -6.911   1.579  0.00  0.00    -0.176 NA
BRANCH  28  31
ATOM     31  C   UNL     1       8.434  -7.545   0.904  0.00  0.00    +0.002 A 
ATOM     32  C   UNL     1       9.431  -6.874   0.199  0.00  0.00    +0.010 A 
ATOM     33  C   UNL     1      10.704  -7.406   0.134  0.00  0.00    +0.001 A 
ATOM     34  C   UNL     1      10.989  -8.602   0.767  0.00  0.00    +0.000 A 
ATOM     35  C   UNL     1      10.003  -9.272   1.469  0.00  0.00    +0.001 A 
ATOM     36  C   UNL     1       8.729  -8.747   1.545  0.00  0.00    +0.010 A 
ENDBRANCH  28  31
ENDBRANCH   4  26
TORSDOF 9
