REMARK  Name = ZINC18229890
REMARK  10 active torsions:
REMARK  status: ('A' for Active; 'I' for Inactive)
REMARK    1  A    between atoms: C_1  and  C_2
REMARK    2  A    between atoms: C_2  and  C_3
REMARK    3  A    between atoms: C_2  and  C_4
REMARK    4  A    between atoms: C_10  and  N_11
REMARK    5  A    between atoms: N_11  and  O_12
REMARK    6  A    between atoms: O_12  and  C_13
REMARK    7  A    between atoms: C_13  and  C_14
REMARK    8  A    between atoms: C_14  and  C_15
REMARK    9  A    between atoms: N_23  and  C_28
REMARK   10  A    between atoms: N_26  and  C_27
REMARK                            x       y       z     vdW  Elec       q    Type
REMARK                         _______ _______ _______ _____ _____    ______ ____
ROOT
ATOM      1  C   UNL     1       0.811  -0.736   1.113  0.00  0.00    -0.003 A 
ATOM      2  C   UNL     1       2.124  -0.377   1.333  0.00  0.00    +0.090 A 
ATOM      3  N   UNL     1       2.713  -0.576   2.499  0.00  0.00    -0.347 N 
ATOM      4  H   UNL     1       3.638  -0.309   2.612  0.00  0.00    +0.167 HD
ATOM      5  C   UNL     1       2.074  -1.129   3.516  0.00  0.00    +0.129 A 
ATOM      6  C   UNL     1       0.731  -1.524   3.374  0.00  0.00    +0.106 A 
ATOM      7  C   UNL     1       0.079  -1.321   2.148  0.00  0.00    +0.082 A 
ATOM      8  C   UNL     1       0.053  -2.134   4.524  0.00  0.00    +0.268 A 
ATOM      9  O   UNL     1      -1.107  -2.491   4.447  0.00  0.00    -0.267 OA
ATOM     10  N   UNL     1       0.752  -2.289   5.670  0.00  0.00    -0.263 N 
ATOM     11  C   UNL     1       2.033  -1.896   5.759  0.00  0.00    +0.333 A 
ATOM     12  O   UNL     1       2.619  -2.057   6.812  0.00  0.00    -0.246 OA
ATOM     13  N   UNL     1       2.696  -1.333   4.735  0.00  0.00    -0.282 N 
ATOM     14  C   UNL     1       4.094  -0.932   4.910  0.00  0.00    +0.155 C 
ATOM     15  C   UNL     1       0.102  -2.895   6.835  0.00  0.00    +0.157 C 
ENDROOT
BRANCH   1  17
ATOM     16  C   UNL     1       0.204   1.000  -0.550  0.00  0.00    +0.012 C 
ATOM     17  C   UNL     1       0.171  -0.495  -0.230  0.00  0.00    +0.016 C 
ATOM     18  C   UNL     1       0.940  -1.264  -1.307  0.00  0.00    +0.012 C 
ENDBRANCH   1  17
BRANCH   7  19
ATOM     19  N   UNL     1      -1.243  -1.691   1.971  0.00  0.00    -0.265 N 
ATOM     20  H   UNL     1      -1.894  -1.515   2.668  0.00  0.00    +0.194 HD
BRANCH  19  21
ATOM     21  O   UNL     1      -1.645  -2.326   0.771  0.00  0.00    -0.274 OA
BRANCH  21  22
ATOM     22  C   UNL     1      -3.036  -2.652   0.724  0.00  0.00    +0.197 C 
BRANCH  22  23
ATOM     23  C   UNL     1      -3.356  -3.330  -0.610  0.00  0.00    +0.066 C 
BRANCH  23  24
ATOM     24  C   UNL     1      -4.822  -3.674  -0.660  0.00  0.00    -0.045 A 
ATOM     25  C   UNL     1      -5.262  -4.897  -0.190  0.00  0.00    +0.004 A 
ATOM     26  C   UNL     1      -6.607  -5.212  -0.236  0.00  0.00    +0.000 A 
ATOM     27  C   UNL     1      -7.513  -4.304  -0.751  0.00  0.00    +0.000 A 
ATOM     28  C   UNL     1      -7.073  -3.080  -1.220  0.00  0.00    +0.000 A 
ATOM     29  C   UNL     1      -5.729  -2.763  -1.170  0.00  0.00    +0.004 A 
ENDBRANCH  23  24
ENDBRANCH  22  23
ENDBRANCH  21  22
ENDBRANCH  19  21
ENDBRANCH   7  19
TORSDOF 6
