REMARK  Name = ZINC49550349
REMARK  4 active torsions:
REMARK  status: ('A' for Active; 'I' for Inactive)
REMARK    1  A    between atoms: C_1  and  C_2
REMARK    2  A    between atoms: C_3  and  C_8
REMARK    3  A    between atoms: C_11  and  C_16
REMARK    4  A    between atoms: C_16  and  C_17
REMARK                            x       y       z     vdW  Elec       q    Type
REMARK                         _______ _______ _______ _____ _____    ______ ____
ROOT
ATOM      1  C   UNL     1      -0.005  -0.352  -2.514  0.00  0.00    +0.136 A 
ATOM      2  N   UNL     1      -0.019   0.870  -2.984  0.00  0.00    -0.155 NA
ATOM      3  N   UNL     1      -0.030   1.113  -4.351  0.00  0.00    -0.190 N 
ATOM      4  C   UNL     1      -0.045   2.175  -5.232  0.00  0.00    +0.160 A 
ATOM      5  N   UNL     1      -0.049   1.694  -6.444  0.00  0.00    -0.131 NA
ATOM      6  N   UNL     1      -0.037   0.407  -6.408  0.00  0.00    -0.120 NA
ATOM      7  C   UNL     1      -0.025   0.011  -5.171  0.00  0.00    +0.218 A 
ATOM      8  S   UNL     1       0.002  -1.330  -4.008  0.00  0.00    -0.026 S 
ENDROOT
BRANCH   1  11
ATOM      9  C   UNL     1      -0.018   1.503   0.010  0.00  0.00    +0.065 C 
ATOM     10  C   UNL     1       0.002  -0.004   0.002  0.00  0.00    +0.043 A 
ATOM     11  C   UNL     1       0.008  -0.805  -1.105  0.00  0.00    +0.049 A 
ATOM     12  C   UNL     1       0.028  -2.143  -0.660  0.00  0.00    +0.145 A 
ATOM     13  N   UNL     1       0.034  -2.135   0.646  0.00  0.00    -0.181 NA
ATOM     14  N   UNL     1       0.024  -0.805   1.084  0.00  0.00    -0.281 N 
ATOM     15  H   UNL     1       0.029  -0.512   2.009  0.00  0.00    +0.189 HD
ENDBRANCH   1  11
BRANCH   4  16
ATOM     16  C   UNL     1      -0.057   3.635  -4.858  0.00  0.00    +0.113 C 
BRANCH  16  17
ATOM     17  C   UNL     1       1.360   4.135  -4.743  0.00  0.00    -0.040 A 
ATOM     18  C   UNL     1       2.022   4.062  -3.531  0.00  0.00    +0.005 A 
ATOM     19  C   UNL     1       3.322   4.520  -3.425  0.00  0.00    +0.020 A 
ATOM     20  C   UNL     1       3.960   5.052  -4.531  0.00  0.00    +0.041 A 
ATOM     21  C   UNL     1       3.297   5.125  -5.743  0.00  0.00    +0.020 A 
ATOM     22  C   UNL     1       2.000   4.661  -5.850  0.00  0.00    +0.005 A 
ATOM     23 CL   UNL     1       5.592   5.629  -4.398  0.00  0.00    -0.084 Cl
ENDBRANCH  16  17
ENDBRANCH   4  16
TORSDOF 3
