REMARK  Name = ZINC51705506
REMARK  9 active torsions:
REMARK  status: ('A' for Active; 'I' for Inactive)
REMARK    1  A    between atoms: C_1  and  C_2
REMARK    2  A    between atoms: C_5  and  C_8
REMARK    3  A    between atoms: C_8  and  C_29
REMARK    4  A    between atoms: N_11  and  C_15
REMARK    5  A    between atoms: C_15  and  C_16
REMARK    6  A    between atoms: C_16  and  O_18
REMARK    7  A    between atoms: O_18  and  C_19
REMARK    8  A    between atoms: C_23  and  N_26
REMARK    9  A    between atoms: C_24  and  C_25
REMARK                            x       y       z     vdW  Elec       q    Type
REMARK                         _______ _______ _______ _____ _____    ______ ____
ROOT
ATOM      1  C   UNL     1       1.066  -4.299  -0.643  0.00  0.00    +0.135 C 
ATOM      2  C   UNL     1       1.607  -4.794   0.684  0.00  0.00    +0.251 C 
ATOM      3  O   UNL     1       1.184  -4.534   1.790  0.00  0.00    -0.272 OA
ATOM      4  N   UNL     1       2.655  -5.585   0.378  0.00  0.00    -0.213 N 
ATOM      5  C   UNL     1       2.849  -5.657  -0.944  0.00  0.00    +0.310 C 
ATOM      6  O   UNL     1       3.734  -6.310  -1.462  0.00  0.00    -0.252 OA
ATOM      7  N   UNL     1       1.956  -4.927  -1.635  0.00  0.00    -0.281 N 
ATOM      8  C   UNL     1      -0.378  -4.761  -0.846  0.00  0.00    +0.047 C 
ATOM      9  H   UNL     1       1.907  -4.832  -2.599  0.00  0.00    +0.152 HD
ENDROOT
BRANCH   1  14
ATOM     10  C   UNL     1       1.412   1.461  -0.958  0.00  0.00    +0.044 C 
ATOM     11  C   UNL     1       1.322  -0.041  -0.876  0.00  0.00    -0.050 A 
ATOM     12  C   UNL     1       1.500  -0.807  -2.012  0.00  0.00    +0.004 A 
ATOM     13  C   UNL     1       1.417  -2.185  -1.937  0.00  0.00    +0.006 A 
ATOM     14  C   UNL     1       1.157  -2.797  -0.725  0.00  0.00    -0.015 A 
ATOM     15  C   UNL     1       0.980  -2.031   0.412  0.00  0.00    +0.006 A 
ATOM     16  C   UNL     1       1.067  -0.653   0.337  0.00  0.00    +0.004 A 
ENDBRANCH   1  14
BRANCH   4  17
ATOM     17  C   UNL     1       3.479  -6.279   1.371  0.00  0.00    +0.238 C 
BRANCH  17  18
ATOM     18  C   UNL     1       2.894  -7.641   1.645  0.00  0.00    +0.330 C 
ATOM     19  O   UNL     1       1.892  -7.995   1.071  0.00  0.00    -0.249 OA
BRANCH  18  20
ATOM     20  O   UNL     1       3.488  -8.460   2.528  0.00  0.00    -0.424 OA
BRANCH  20  21
ATOM     21  C   UNL     1       2.918  -9.673   2.756  0.00  0.00    +0.137 A 
ATOM     22  C   UNL     1       3.347 -10.786   2.048  0.00  0.00    +0.047 A 
ATOM     23  C   UNL     1       2.767 -12.018   2.281  0.00  0.00    +0.006 A 
ATOM     24  C   UNL     1       1.758 -12.141   3.219  0.00  0.00    +0.033 A 
ATOM     25  C   UNL     1       1.328 -11.033   3.925  0.00  0.00    +0.133 A 
ATOM     26  C   UNL     1       1.910  -9.801   3.700  0.00  0.00    +0.022 A 
ATOM     27  C   UNL     1       1.446  -8.595   4.476  0.00  0.00    +0.050 C 
BRANCH  25  28
ATOM     28  N   UNL     1       0.248 -11.169   4.928  0.00  0.00    +0.057 N 
ATOM     29  O   UNL     1       0.177 -12.166   5.609  0.00  0.00    -0.126 OA
ATOM     30  O   UNL     1      -0.563 -10.284   5.066  0.00  0.00    -0.126 OA
ENDBRANCH  25  28
ENDBRANCH  20  21
ENDBRANCH  18  20
ENDBRANCH  17  18
ENDBRANCH   4  17
TORSDOF 6
