REMARK  Name = ZINC26103483
REMARK  7 active torsions:
REMARK  status: ('A' for Active; 'I' for Inactive)
REMARK    1  A    between atoms: C_1  and  C_2
REMARK    2  A    between atoms: C_2  and  C_4
REMARK    3  A    between atoms: C_2  and  S_17
REMARK    4  A    between atoms: N_6  and  C_7
REMARK    5  A    between atoms: C_9  and  N_14
REMARK    6  A    between atoms: S_17  and  C_18
REMARK    7  A    between atoms: N_27  and  C_28
REMARK                            x       y       z     vdW  Elec       q    Type
REMARK                         _______ _______ _______ _____ _____    ______ ____
ROOT
ATOM      1  C   UNL     1      -2.174   5.742   1.087  0.00  0.00    +0.029 C 
ATOM      2  C   UNL     1      -0.650   5.603   1.056  0.00  0.00    +0.137 C 
ENDROOT
BRANCH   2   3
ATOM      3  C   UNL     1      -0.057   6.745   0.272  0.00  0.00    +0.230 C 
ATOM      4  O   UNL     1       0.196   6.605  -0.906  0.00  0.00    -0.274 OA
ATOM      5  N   UNL     1       0.193   7.922   0.879  0.00  0.00    -0.283 N 
ATOM      6  H   UNL     1      -0.104   8.073   1.928  0.00  0.00    +0.155 HD
BRANCH   5   7
ATOM      7  C   UNL     1       0.829   8.951   0.177  0.00  0.00    +0.054 A 
ATOM      8  C   UNL     1       0.586   9.122  -1.180  0.00  0.00    +0.057 A 
ATOM      9  C   UNL     1       1.216  10.139  -1.871  0.00  0.00    +0.128 A 
ATOM     10  C   UNL     1       2.088  10.987  -1.213  0.00  0.00    +0.034 A 
ATOM     11  C   UNL     1       2.333  10.821   0.137  0.00  0.00    +0.024 A 
ATOM     12  C   UNL     1       1.702   9.809   0.836  0.00  0.00    +0.062 A 
ATOM     13 CL   UNL     1       2.004   9.605   2.533  0.00  0.00    -0.082 Cl
BRANCH   9  14
ATOM     14  N   UNL     1       0.956  10.321  -3.317  0.00  0.00    +0.056 N 
ATOM     15  O   UNL     1       0.188   9.575  -3.896  0.00  0.00    -0.126 OA
ATOM     16  O   UNL     1       1.511  11.217  -3.927  0.00  0.00    -0.126 OA
ENDBRANCH   9  14
ENDBRANCH   5   7
ENDBRANCH   2   3
BRANCH   2  17
ATOM     17  S   UNL     1      -0.204   4.035   0.269  0.00  0.00    -0.075 S 
BRANCH  17  18
ATOM     18  C   UNL     1      -0.876   2.903   1.440  0.00  0.00    +0.173 A 
ATOM     19  N   UNL     1      -1.483   3.381   2.493  0.00  0.00    -0.222 NA
ATOM     20  C   UNL     1      -2.024   2.567   3.447  0.00  0.00    +0.086 A 
ATOM     21  C   UNL     1      -2.694   2.930   4.624  0.00  0.00    +0.036 A 
ATOM     22  C   UNL     1      -3.166   1.978   5.459  0.00  0.00    +0.048 A 
ATOM     23  S   UNL     1      -2.695   0.465   4.637  0.00  0.00    -0.090 S 
ATOM     24  C   UNL     1      -1.895   1.184   3.227  0.00  0.00    +0.102 A 
ATOM     25  C   UNL     1      -1.250   0.682   2.099  0.00  0.00    +0.269 A 
ATOM     26  O   UNL     1      -1.146  -0.520   1.920  0.00  0.00    -0.266 OA
ATOM     27  N   UNL     1      -0.744   1.564   1.204  0.00  0.00    -0.290 N 
ATOM     28  C   UNL     1      -0.057   1.088   0.001  0.00  0.00    +0.154 C 
ENDBRANCH  17  18
ENDBRANCH   2  17
TORSDOF 5
