REMARK  Name = ZINC24899123
REMARK  9 active torsions:
REMARK  status: ('A' for Active; 'I' for Inactive)
REMARK    1  A    between atoms: C_1  and  C_2
REMARK    2  A    between atoms: C_3  and  N_15
REMARK    3  A    between atoms: N_6  and  C_9
REMARK    4  A    between atoms: N_7  and  C_8
REMARK    5  A    between atoms: C_16  and  C_18
REMARK    6  A    between atoms: C_18  and  C_19
REMARK    7  A    between atoms: C_19  and  S_20
REMARK    8  A    between atoms: S_20  and  C_21
REMARK    9  A    between atoms: N_26  and  C_27
REMARK                            x       y       z     vdW  Elec       q    Type
REMARK                         _______ _______ _______ _____ _____    ______ ____
ROOT
ATOM      1  N   UNL     1      -0.106   1.123  -0.666  0.00  0.00    -0.280 N 
ATOM      2  C   UNL     1      -0.358  -0.022  -1.329  0.00  0.00    +0.218 C 
ATOM      3  O   UNL     1       0.544  -0.612  -1.887  0.00  0.00    -0.275 OA
ATOM      4  H   UNL     1      -0.934   1.698  -0.225  0.00  0.00    +0.155 HD
ENDROOT
BRANCH   1   7
ATOM      5  C   UNL     1       1.237   1.860   1.993  0.00  0.00    +0.067 C 
ATOM      6  C   UNL     1       1.844   1.919   0.614  0.00  0.00    +0.059 A 
ATOM      7  C   UNL     1       1.219   1.586  -0.537  0.00  0.00    +0.121 A 
ATOM      8  C   UNL     1       2.173   1.801  -1.626  0.00  0.00    +0.293 A 
ATOM      9  O   UNL     1       1.973   1.613  -2.812  0.00  0.00    -0.264 OA
ATOM     10  N   UNL     1       3.317   2.245  -1.064  0.00  0.00    -0.216 N 
ATOM     11  N   UNL     1       3.121   2.317   0.320  0.00  0.00    -0.282 N 
ATOM     12  C   UNL     1       4.121   2.755   1.297  0.00  0.00    +0.171 C 
BRANCH  10  13
ATOM     13  C   UNL     1       4.492   2.576  -1.746  0.00  0.00    +0.067 A 
ATOM     14  C   UNL     1       5.148   3.767  -1.464  0.00  0.00    +0.028 A 
ATOM     15  C   UNL     1       6.312   4.088  -2.135  0.00  0.00    +0.002 A 
ATOM     16  C   UNL     1       6.817   3.231  -3.095  0.00  0.00    +0.000 A 
ATOM     17  C   UNL     1       6.163   2.047  -3.383  0.00  0.00    +0.002 A 
ATOM     18  C   UNL     1       5.002   1.717  -2.711  0.00  0.00    +0.028 A 
ENDBRANCH  10  13
ENDBRANCH   1   7
BRANCH   2  19
ATOM     19  C   UNL     1      -1.761  -0.572  -1.377  0.00  0.00    +0.107 C 
BRANCH  19  20
ATOM     20  C   UNL     1      -1.772  -1.870  -2.186  0.00  0.00    +0.085 C 
BRANCH  20  21
ATOM     21  S   UNL     1      -3.460  -2.532  -2.244  0.00  0.00    -0.096 S 
BRANCH  21  22
ATOM     22  C   UNL     1      -3.308  -4.006  -3.197  0.00  0.00    +0.160 A 
ATOM     23  N   UNL     1      -2.236  -4.532  -3.759  0.00  0.00    -0.133 NA
ATOM     24  N   UNL     1      -2.341  -5.707  -4.465  0.00  0.00    -0.125 NA
ATOM     25  C   UNL     1      -3.514  -6.298  -4.587  0.00  0.00    +0.187 A 
ATOM     26  S   UNL     1      -4.566  -5.184  -3.669  0.00  0.00    -0.024 S 
ATOM     27  N   UNL     1      -3.843  -7.473  -5.253  0.00  0.00    -0.290 N 
ATOM     28  H   UNL     1      -4.895  -7.787  -5.326  0.00  0.00    +0.154 HD
BRANCH  27  29
ATOM     29  C   UNL     1      -2.838  -8.256  -5.829  0.00  0.00    +0.068 A 
ATOM     30  C   UNL     1      -1.525  -7.804  -5.841  0.00  0.00    +0.026 A 
ATOM     31  C   UNL     1      -0.534  -8.580  -6.411  0.00  0.00    +0.002 A 
ATOM     32  C   UNL     1      -0.847  -9.806  -6.969  0.00  0.00    +0.003 A 
ATOM     33  C   UNL     1      -2.153 -10.260  -6.959  0.00  0.00    +0.040 A 
ATOM     34  C   UNL     1      -3.150  -9.492  -6.386  0.00  0.00    +0.144 A 
ATOM     35  F   UNL     1      -4.425  -9.938  -6.372  0.00  0.00    -0.204 F 
ENDBRANCH  27  29
ENDBRANCH  21  22
ENDBRANCH  20  21
ENDBRANCH  19  20
ENDBRANCH   2  19
TORSDOF 7
