REMARK  Name = ZINC61477934
REMARK  6 active torsions:
REMARK  status: ('A' for Active; 'I' for Inactive)
REMARK    1  A    between atoms: C_1  and  C_2
REMARK    2  A    between atoms: C_5  and  N_8
REMARK    3  A    between atoms: N_8  and  C_9
REMARK    4  A    between atoms: C_9  and  C_10
REMARK    5  A    between atoms: N_12  and  N_13
REMARK    6  A    between atoms: C_14  and  C_16
REMARK                            x       y       z     vdW  Elec       q    Type
REMARK                         _______ _______ _______ _____ _____    ______ ____
ROOT
ATOM      1  N   UNL     1       0.126  -8.644   1.716  0.00  0.00    -0.230 N 
ATOM      2  C   UNL     1       0.143  -9.525   2.736  0.00  0.00    +0.260 C 
ATOM      3  O   UNL     1       0.143  -9.126   3.884  0.00  0.00    -0.269 OA
ATOM      4  H   UNL     1       0.126  -8.962   0.800  0.00  0.00    +0.173 HD
ENDROOT
BRANCH   2   5
ATOM      5  C   UNL     1       0.161 -10.975   2.458  0.00  0.00    +0.043 A 
ATOM      6  C   UNL     1       0.172 -11.890   3.515  0.00  0.00    +0.062 A 
ATOM      7  C   UNL     1       0.188 -13.244   3.246  0.00  0.00    +0.164 A 
ATOM      8  C   UNL     1       0.194 -13.695   1.931  0.00  0.00    +0.180 A 
ATOM      9  C   UNL     1       0.182 -12.789   0.879  0.00  0.00    +0.087 A 
ATOM     10  C   UNL     1       0.160 -11.434   1.139  0.00  0.00    +0.037 A 
ATOM     11 CL   UNL     1       0.190 -13.360  -0.760  0.00  0.00    -0.080 Cl
ATOM     12  O   UNL     1       0.210 -15.036   1.680  0.00  0.00    -0.487 OA
ATOM     13  C   UNL     1       1.412 -15.723   2.033  0.00  0.00    +0.232 C 
ATOM     14  C   UNL     1       1.399 -16.114   3.503  0.00  0.00    +0.082 C 
ATOM     15  C   UNL     1       1.401 -14.904   4.423  0.00  0.00    +0.232 C 
ATOM     16  O   UNL     1       0.198 -14.147   4.269  0.00  0.00    -0.488 OA
ENDBRANCH   2   5
BRANCH   1  19
ATOM     17  C   UNL     1       0.092  -6.387   0.960  0.00  0.00    +0.246 C 
ATOM     18  O   UNL     1       0.092  -6.785  -0.185  0.00  0.00    -0.273 OA
ATOM     19  N   UNL     1       0.109  -7.268   1.980  0.00  0.00    -0.233 N 
ATOM     20  H   UNL     1       0.109  -6.950   2.896  0.00  0.00    +0.173 HD
BRANCH  17  21
ATOM     21  C   UNL     1       0.074  -4.907   1.244  0.00  0.00    +0.199 C 
BRANCH  21  22
ATOM     22  N   UNL     1       0.058  -4.167  -0.021  0.00  0.00    -0.335 N 
ATOM     23  H   UNL     1       0.060  -4.648  -0.864  0.00  0.00    +0.147 HD
BRANCH  22  28
ATOM     24  C   UNL     1      -0.018   1.503   0.010  0.00  0.00    +0.044 C 
ATOM     25  C   UNL     1       0.002  -0.004   0.002  0.00  0.00    -0.050 A 
ATOM     26  C   UNL     1       0.006  -0.687  -1.200  0.00  0.00    +0.005 A 
ATOM     27  C   UNL     1       0.024  -2.068  -1.212  0.00  0.00    +0.023 A 
ATOM     28  C   UNL     1       0.040  -2.771  -0.013  0.00  0.00    +0.028 A 
ATOM     29  C   UNL     1       0.036  -2.081   1.193  0.00  0.00    +0.023 A 
ATOM     30  C   UNL     1       0.023  -0.700   1.197  0.00  0.00    +0.005 A 
ENDBRANCH  22  28
ENDBRANCH  21  22
ENDBRANCH  17  21
ENDBRANCH   1  19
TORSDOF 5
