REMARK  Name = ZINC36026746
REMARK  7 active torsions:
REMARK  status: ('A' for Active; 'I' for Inactive)
REMARK    1  A    between atoms: C_1  and  C_2
REMARK    2  A    between atoms: C_2  and  C_3
REMARK    3  A    between atoms: C_2  and  N_4
REMARK    4  A    between atoms: C_14  and  C_26
REMARK    5  A    between atoms: N_18  and  C_19
REMARK    6  A    between atoms: C_19  and  C_20
REMARK    7  A    between atoms: C_26  and  C_27
REMARK                            x       y       z     vdW  Elec       q    Type
REMARK                         _______ _______ _______ _____ _____    ______ ____
ROOT
ATOM      1  N   UNL     1      -0.324  -0.992   1.131  0.00  0.00    -0.297 N 
ATOM      2  C   UNL     1      -0.864  -1.250   2.338  0.00  0.00    +0.302 C 
ATOM      3  O   UNL     1      -2.071  -1.212   2.485  0.00  0.00    -0.253 OA
ATOM      4  N   UNL     1      -0.068  -1.550   3.383  0.00  0.00    -0.286 N 
ATOM      5  C   UNL     1       1.394  -1.481   3.253  0.00  0.00    +0.109 C 
ATOM      6  C   UNL     1       1.946  -0.579   4.362  0.00  0.00    +0.025 C 
ATOM      7  C   UNL     1       1.450  -1.081   5.717  0.00  0.00    +0.006 C 
ATOM      8  C   UNL     1      -0.077  -1.045   5.770  0.00  0.00    +0.025 C 
ATOM      9  C   UNL     1      -0.645  -1.946   4.675  0.00  0.00    +0.109 C 
ATOM     10  N   UNL     1       2.006  -0.238   6.796  0.00  0.00    +0.401 N 
ATOM     11  C   UNL     1       3.245  -0.957   7.179  0.00  0.00    +0.023 C 
ATOM     12  C   UNL     1       2.984  -2.401   6.808  0.00  0.00    +0.201 C 
ATOM     13  O   UNL     1       3.613  -3.359   7.205  0.00  0.00    -0.277 OA
ATOM     14  N   UNL     1       1.934  -2.442   5.962  0.00  0.00    -0.309 N 
ATOM     15  H   UNL     1       0.640  -0.952   1.029  0.00  0.00    +0.150 HD
ATOM     16  H   UNL     1       2.222   0.686   6.451  0.00  0.00    -0.082 HD
ATOM     17  H   UNL     1       1.368  -0.188   7.575  0.00  0.00    -0.082 HD
ENDROOT
BRANCH   1  19
ATOM     18  C   UNL     1      -1.623   0.695  -0.072  0.00  0.00    +0.027 C 
ATOM     19  C   UNL     1      -1.192  -0.772  -0.029  0.00  0.00    +0.068 C 
ATOM     20  C   UNL     1      -0.429  -1.117  -1.310  0.00  0.00    +0.027 C 
ENDBRANCH   1  19
BRANCH  14  21
ATOM     21  C   UNL     1       1.366  -3.659   5.378  0.00  0.00    +0.141 C 
BRANCH  21  22
ATOM     22  C   UNL     1       0.506  -4.354   6.402  0.00  0.00    -0.030 A 
ATOM     23  C   UNL     1       0.920  -5.551   6.956  0.00  0.00    +0.005 A 
ATOM     24  C   UNL     1       0.131  -6.187   7.896  0.00  0.00    +0.000 A 
ATOM     25  C   UNL     1      -1.073  -5.626   8.282  0.00  0.00    +0.000 A 
ATOM     26  C   UNL     1      -1.486  -4.429   7.729  0.00  0.00    +0.000 A 
ATOM     27  C   UNL     1      -0.695  -3.790   6.792  0.00  0.00    +0.005 A 
ENDBRANCH  21  22
ENDBRANCH  14  21
BRANCH  11  28
ATOM     28  C   UNL     1       3.494  -0.827   8.683  0.00  0.00    +0.028 C 
BRANCH  28  29
ATOM     29  C   UNL     1       3.761   0.616   9.025  0.00  0.00    -0.048 A 
ATOM     30  C   UNL     1       5.054   1.105   8.998  0.00  0.00    +0.003 A 
ATOM     31  C   UNL     1       5.299   2.429   9.312  0.00  0.00    +0.000 A 
ATOM     32  C   UNL     1       4.252   3.264   9.652  0.00  0.00    +0.000 A 
ATOM     33  C   UNL     1       2.959   2.776   9.678  0.00  0.00    +0.000 A 
ATOM     34  C   UNL     1       2.713   1.453   9.360  0.00  0.00    +0.003 A 
ENDBRANCH  28  29
ENDBRANCH  11  28
TORSDOF 5
