REMARK  Name = ZINC09548707
REMARK  7 active torsions:
REMARK  status: ('A' for Active; 'I' for Inactive)
REMARK    1  A    between atoms: C_1  and  C_2
REMARK    2  A    between atoms: C_2  and  N_3
REMARK    3  A    between atoms: C_7  and  C_9
REMARK    4  A    between atoms: C_9  and  C_11
REMARK    5  A    between atoms: C_9  and  S_12
REMARK    6  A    between atoms: S_12  and  C_13
REMARK    7  A    between atoms: C_20  and  C_23
REMARK                            x       y       z     vdW  Elec       q    Type
REMARK                         _______ _______ _______ _____ _____    ______ ____
ROOT
ATOM      1  C   UNL     1      -2.327  -4.547  -0.755  0.00  0.00    +0.128 A 
ATOM      2  C   UNL     1      -3.351  -5.474  -1.057  0.00  0.00    +0.018 A 
ATOM      3  C   UNL     1      -4.659  -5.086  -1.365  0.00  0.00    +0.011 A 
ATOM      4  C   UNL     1      -5.592  -6.042  -1.645  0.00  0.00    +0.001 A 
ATOM      5  C   UNL     1      -5.262  -7.394  -1.630  0.00  0.00    +0.001 A 
ATOM      6  C   UNL     1      -3.992  -7.805  -1.344  0.00  0.00    +0.011 A 
ATOM      7  C   UNL     1      -3.015  -6.851  -1.047  0.00  0.00    +0.012 A 
ATOM      8  C   UNL     1      -1.637  -7.204  -0.713  0.00  0.00    +0.101 A 
ATOM      9  N   UNL     1      -0.787  -6.225  -0.447  0.00  0.00    -0.148 NA
ATOM     10  N   UNL     1      -1.115  -4.988  -0.468  0.00  0.00    -0.142 NA
ENDROOT
BRANCH   8  11
ATOM     11  C   UNL     1      -1.203  -8.619  -0.674  0.00  0.00    +0.003 A 
ATOM     12  C   UNL     1      -0.394  -9.075   0.367  0.00  0.00    +0.010 A 
ATOM     13  C   UNL     1       0.003 -10.396   0.400  0.00  0.00    +0.001 A 
ATOM     14  C   UNL     1      -0.390 -11.265  -0.602  0.00  0.00    +0.000 A 
ATOM     15  C   UNL     1      -1.188 -10.818  -1.640  0.00  0.00    +0.001 A 
ATOM     16  C   UNL     1      -1.596  -9.500  -1.682  0.00  0.00    +0.010 A 
ENDBRANCH   8  11
BRANCH   1  17
ATOM     17  S   UNL     1      -2.666  -2.818  -0.754  0.00  0.00    -0.091 S 
BRANCH  17  18
ATOM     18  C   UNL     1      -1.033  -2.178  -0.305  0.00  0.00    +0.136 C 
ATOM     19  C   UNL     1      -0.680  -2.631   1.113  0.00  0.00    +0.029 C 
BRANCH  18  24
ATOM     20  N   UNL     1       1.223   2.035  -0.827  0.00  0.00    -0.299 N 
ATOM     21  C   UNL     1       0.078   1.355  -0.620  0.00  0.00    +0.306 C 
ATOM     22  O   UNL     1      -0.970   1.956  -0.484  0.00  0.00    -0.252 OA
ATOM     23  N   UNL     1       0.094   0.009  -0.569  0.00  0.00    -0.239 N 
ATOM     24  C   UNL     1      -1.051  -0.672  -0.362  0.00  0.00    +0.233 C 
ATOM     25  O   UNL     1      -2.095  -0.072  -0.222  0.00  0.00    -0.274 OA
ATOM     26  H   UNL     1       2.058   1.556  -0.939  0.00  0.00    +0.150 HD
ATOM     27  H   UNL     1       0.930  -0.471  -0.681  0.00  0.00    +0.159 HD
BRANCH  20  29
ATOM     28  C   UNL     1       2.624   4.017  -1.125  0.00  0.00    +0.024 C 
ATOM     29  C   UNL     1       1.206   3.499  -0.882  0.00  0.00    +0.102 C 
ENDBRANCH  20  29
ENDBRANCH  18  24
ENDBRANCH  17  18
ENDBRANCH   1  17
TORSDOF 5
