REMARK  Name = ZINC08927731
REMARK  7 active torsions:
REMARK  status: ('A' for Active; 'I' for Inactive)
REMARK    1  A    between atoms: C_1  and  O_2
REMARK    2  A    between atoms: O_2  and  C_3
REMARK    3  A    between atoms: C_6  and  S_9
REMARK    4  A    between atoms: S_9  and  N_12
REMARK    5  A    between atoms: C_16  and  C_18
REMARK    6  A    between atoms: N_20  and  C_21
REMARK    7  A    between atoms: C_22  and  C_31
REMARK                            x       y       z     vdW  Elec       q    Type
REMARK                         _______ _______ _______ _____ _____    ______ ____
ROOT
ATOM      1  C   UNL     1       1.147   1.655   0.000  0.00  0.00    +0.236 C 
ATOM      2  O   UNL     1       1.130   2.868   0.007  0.00  0.00    -0.274 OA
ATOM      3  N   UNL     1      -0.011   0.966   0.007  0.00  0.00    -0.278 N 
ATOM      4  H   UNL     1       0.002  -0.004   0.002  0.00  0.00    +0.155 HD
ENDROOT
BRANCH   3   5
ATOM      5  C   UNL     1      -1.221   1.643   0.017  0.00  0.00    +0.084 A 
ATOM      6  C   UNL     1      -2.503   1.116   0.020  0.00  0.00    +0.068 A 
ATOM      7  C   UNL     1      -3.620   2.051   0.035  0.00  0.00    -0.023 A 
ATOM      8  C   UNL     1      -3.271   3.355   0.033  0.00  0.00    -0.004 A 
ATOM      9  S   UNL     1      -1.499   3.352   0.035  0.00  0.00    -0.077 S 
ATOM     10  C   UNL     1      -4.177   4.546   0.031  0.00  0.00    +0.043 C 
ATOM     11  C   UNL     1      -5.241   4.373   1.122  0.00  0.00    +0.005 C 
ATOM     12  C   UNL     1      -6.438   3.644   0.520  0.00  0.00    +0.001 C 
ATOM     13  C   UNL     1      -5.970   2.659  -0.549  0.00  0.00    +0.005 C 
ATOM     14  C   UNL     1      -5.072   1.590   0.067  0.00  0.00    +0.037 C 
BRANCH   6  15
ATOM     15  C   UNL     1      -2.727  -0.333   0.010  0.00  0.00    +0.244 C 
ATOM     16  O   UNL     1      -2.814  -0.943   1.059  0.00  0.00    -0.270 OA
ATOM     17  N   UNL     1      -2.838  -0.989  -1.162  0.00  0.00    -0.325 N 
ATOM     18  H   UNL     1      -2.769  -0.503  -1.999  0.00  0.00    +0.145 HD
ATOM     19  H   UNL     1      -2.986  -1.948  -1.169  0.00  0.00    +0.145 HD
ENDBRANCH   6  15
ENDBRANCH   3   5
BRANCH   1  24
ATOM     20  N   UNL     1       3.573   1.882  -0.030  0.00  0.00    -0.165 NA
ATOM     21  C   UNL     1       4.379   1.657  -1.243  0.00  0.00    +0.110 C 
ATOM     22  C   UNL     1       3.410   0.980  -2.244  0.00  0.00    +0.019 C 
ATOM     23  C   UNL     1       2.572   0.070  -1.300  0.00  0.00    +0.031 C 
ATOM     24  C   UNL     1       2.462   0.920  -0.017  0.00  0.00    +0.166 C 
BRANCH  20  25
ATOM     25  S   UNL     1       3.870   3.030   1.127  0.00  0.00    +0.062 S 
ATOM     26  O   UNL     1       4.627   4.055   0.497  0.00  0.00    -0.153 OA
ATOM     27  O   UNL     1       2.630   3.286   1.772  0.00  0.00    -0.153 OA
BRANCH  25  31
ATOM     28  C   UNL     1       6.576   1.140   4.227  0.00  0.00    +0.120 A 
ATOM     29  C   UNL     1       7.123   1.800   3.136  0.00  0.00    +0.047 A 
ATOM     30  C   UNL     1       6.296   2.376   2.192  0.00  0.00    +0.032 A 
ATOM     31  C   UNL     1       4.923   2.295   2.333  0.00  0.00    +0.106 A 
ATOM     32  C   UNL     1       4.375   1.641   3.421  0.00  0.00    +0.032 A 
ATOM     33  C   UNL     1       5.198   1.059   4.366  0.00  0.00    +0.047 A 
BRANCH  28  35
ATOM     34  C   UNL     1       6.755  -0.092   6.252  0.00  0.00    +0.277 C 
ATOM     35  O   UNL     1       7.388   0.572   5.157  0.00  0.00    -0.495 OA
ENDBRANCH  28  35
ENDBRANCH  25  31
ENDBRANCH  20  25
ENDBRANCH   1  24
TORSDOF 6
