REMARK  Name = ZINC66618060
REMARK  8 active torsions:
REMARK  status: ('A' for Active; 'I' for Inactive)
REMARK    1  A    between atoms: C_1  and  C_2
REMARK    2  A    between atoms: C_5  and  C_9
REMARK    3  A    between atoms: C_6  and  C_8
REMARK    4  A    between atoms: C_9  and  C_10
REMARK    5  A    between atoms: C_10  and  C_12
REMARK    6  A    between atoms: C_10  and  N_13
REMARK    7  A    between atoms: C_20  and  C_22
REMARK    8  A    between atoms: C_24  and  C_27
REMARK                            x       y       z     vdW  Elec       q    Type
REMARK                         _______ _______ _______ _____ _____    ______ ____
ROOT
ATOM      1  N   UNL     1      -2.611  -4.330   1.749  0.00  0.00    -0.296 N 
ATOM      2  C   UNL     1      -3.912  -3.982   1.723  0.00  0.00    +0.303 C 
ATOM      3  O   UNL     1      -4.577  -4.189   0.726  0.00  0.00    -0.253 OA
ATOM      4  N   UNL     1      -4.477  -3.403   2.801  0.00  0.00    -0.275 N 
ATOM      5  C   UNL     1      -3.789  -3.090   4.067  0.00  0.00    +0.110 C 
ATOM      6  C   UNL     1      -4.616  -1.939   4.693  0.00  0.00    +0.021 C 
ATOM      7  C   UNL     1      -6.062  -2.348   4.307  0.00  0.00    +0.032 C 
ATOM      8  C   UNL     1      -5.879  -2.974   2.908  0.00  0.00    +0.146 C 
ATOM      9  H   UNL     1      -2.080  -4.165   2.544  0.00  0.00    +0.151 HD
ENDROOT
BRANCH   8  10
ATOM     10  C   UNL     1      -6.186  -1.954   1.843  0.00  0.00    +0.158 A 
ATOM     11  C   UNL     1      -7.335  -1.856   1.147  0.00  0.00    +0.072 A 
ATOM     12  C   UNL     1      -7.215  -0.775   0.255  0.00  0.00    +0.081 A 
ATOM     13  N   UNL     1      -6.035  -0.247   0.415  0.00  0.00    -0.083 NA
ATOM     14  O   UNL     1      -5.364  -0.979   1.425  0.00  0.00    -0.357 OA
ATOM     15  C   UNL     1      -8.269  -0.309  -0.717  0.00  0.00    +0.069 C 
ENDBRANCH   8  10
BRANCH   1  16
ATOM     16  C   UNL     1      -1.997  -4.959   0.577  0.00  0.00    +0.076 C 
ATOM     17  C   UNL     1      -2.226  -6.471   0.631  0.00  0.00    +0.028 C 
BRANCH  16  18
ATOM     18  C   UNL     1      -0.495  -4.671   0.571  0.00  0.00    +0.057 C 
BRANCH  18  23
ATOM     19  C   UNL     1       0.379   0.999  -0.126  0.00  0.00    +0.044 C 
ATOM     20  C   UNL     1       0.151  -0.480   0.056  0.00  0.00    -0.050 A 
ATOM     21  C   UNL     1       0.236  -1.042   1.316  0.00  0.00    +0.003 A 
ATOM     22  C   UNL     1       0.027  -2.398   1.483  0.00  0.00    +0.004 A 
ATOM     23  C   UNL     1      -0.268  -3.192   0.390  0.00  0.00    -0.043 A 
ATOM     24  C   UNL     1      -0.354  -2.629  -0.870  0.00  0.00    -0.047 A 
ATOM     25  C   UNL     1      -0.149  -1.272  -1.036  0.00  0.00    +0.007 A 
ATOM     26  C   UNL     1      -0.675  -3.494  -2.061  0.00  0.00    +0.044 C 
ENDBRANCH  18  23
ENDBRANCH  16  18
ENDBRANCH   1  16
TORSDOF 4
