REMARK  Name = ZINC36207411
REMARK  19 active torsions:
REMARK  status: ('A' for Active; 'I' for Inactive)
REMARK    1  A    between atoms: C_1  and  C_2
REMARK    2  A    between atoms: C_8  and  C_19
REMARK    3  A    between atoms: C_12  and  C_13
REMARK    4  A    between atoms: C_13  and  O_15
REMARK    5  A    between atoms: O_15  and  C_16
REMARK    6  A    between atoms: C_16  and  C_17
REMARK    7  A    between atoms: C_16  and  C_18
REMARK    8  A    between atoms: C_19  and  N_20
REMARK    9  A    between atoms: N_20  and  C_21
REMARK   10  A    between atoms: N_20  and  C_35
REMARK   11  A    between atoms: C_21  and  C_22
REMARK   12  A    between atoms: C_22  and  C_24
REMARK   13  A    between atoms: C_22  and  O_34
REMARK   14  A    between atoms: C_24  and  O_25
REMARK   15  A    between atoms: O_25  and  C_26
REMARK   16  A    between atoms: C_29  and  O_32
REMARK   17  A    between atoms: O_32  and  C_33
REMARK   18  A    between atoms: C_35  and  C_36
REMARK   19  A    between atoms: C_35  and  C_37
REMARK                            x       y       z     vdW  Elec       q    Type
REMARK                         _______ _______ _______ _____ _____    ______ ____
ROOT
ATOM      1  C   UNL     1       0.168  -3.294  -4.499  0.00  0.00    -0.003 C 
ENDROOT
BRANCH   1   9
ATOM      2  C   UNL     1       1.288   0.927   0.520  0.00  0.00    +0.046 C 
ATOM      3  C   UNL     1       1.242  -0.567   0.333  0.00  0.00    -0.015 A 
ATOM      4  C   UNL     1       0.963  -1.107  -0.925  0.00  0.00    +0.076 A 
ATOM      5  C   UNL     1       0.684  -0.410  -2.201  0.00  0.00    +0.260 A 
ATOM      6  O   UNL     1       0.676   0.807  -2.260  0.00  0.00    -0.267 OA
ATOM      7  N   UNL     1       0.441  -1.156  -3.296  0.00  0.00    -0.312 N 
ATOM      8  H   UNL     1       0.257  -0.715  -4.140  0.00  0.00    +0.170 HD
ATOM      9  C   UNL     1       0.448  -2.511  -3.242  0.00  0.00    +0.094 A 
ATOM     10  N   UNL     1       0.689  -3.156  -2.134  0.00  0.00    -0.229 NA
ATOM     11  C   UNL     1       0.942  -2.518  -0.998  0.00  0.00    +0.116 A 
ATOM     12  S   UNL     1       1.306  -3.019   0.665  0.00  0.00    -0.062 S 
ATOM     13  C   UNL     1       1.478  -1.397   1.390  0.00  0.00    +0.102 A 
BRANCH  13  14
ATOM     14  C   UNL     1       1.792  -1.044   2.777  0.00  0.00    +0.346 C 
ATOM     15  O   UNL     1       1.869   0.125   3.104  0.00  0.00    -0.244 OA
BRANCH  14  16
ATOM     16  O   UNL     1       1.995  -2.015   3.691  0.00  0.00    -0.458 OA
BRANCH  16  17
ATOM     17  C   UNL     1       2.297  -1.599   5.024  0.00  0.00    +0.171 C 
ATOM     18  C   UNL     1       1.778  -2.643   6.014  0.00  0.00    +0.052 C 
ATOM     19  C   UNL     1       3.812  -1.454   5.182  0.00  0.00    +0.052 C 
ENDBRANCH  16  17
ENDBRANCH  14  16
ENDBRANCH  13  14
ENDBRANCH   1   9
BRANCH   1  20
ATOM     20  N   UNL     1       0.045  -4.720  -4.170  0.00  0.00    +0.388 N 
ATOM     21  H   UNL     1       0.696  -4.953  -3.435  0.00  0.00    -0.081 HD
BRANCH  20  22
ATOM     22  C   UNL     1      -1.324  -5.003  -3.719  0.00  0.00    -0.074 C 
ATOM     23  C   UNL     1      -1.670  -4.092  -2.539  0.00  0.00    -0.014 C 
ATOM     24  C   UNL     1      -2.303  -4.745  -4.866  0.00  0.00    -0.014 C 
ENDBRANCH  20  22
BRANCH  20  25
ATOM     25  C   UNL     1       0.344  -5.526  -5.362  0.00  0.00    -0.043 C 
BRANCH  25  26
ATOM     26  C   UNL     1       0.391  -7.006  -4.979  0.00  0.00    +0.135 C 
BRANCH  26  27
ATOM     27  O   UNL     1      -0.920  -7.446  -4.616  0.00  0.00    -0.390 OA
ATOM     28  H   UNL     1      -1.555  -7.430  -5.345  0.00  0.00    +0.210 HD
ENDBRANCH  26  27
BRANCH  26  29
ATOM     29  C   UNL     1       0.893  -7.825  -6.169  0.00  0.00    +0.258 C 
BRANCH  29  30
ATOM     30  O   UNL     1       1.048  -9.190  -5.777  0.00  0.00    -0.489 OA
BRANCH  30  31
ATOM     31  C   UNL     1       1.490 -10.059  -6.725  0.00  0.00    +0.121 A 
ATOM     32  C   UNL     1       1.774  -9.604  -8.004  0.00  0.00    +0.049 A 
ATOM     33  C   UNL     1       2.223 -10.486  -8.967  0.00  0.00    +0.049 A 
ATOM     34  C   UNL     1       2.391 -11.827  -8.655  0.00  0.00    +0.120 A 
ATOM     35  C   UNL     1       2.108 -12.282  -7.375  0.00  0.00    +0.049 A 
ATOM     36  C   UNL     1       1.663 -11.399  -6.411  0.00  0.00    +0.049 A 
BRANCH  34  37
ATOM     37  O   UNL     1       2.832 -12.696  -9.603  0.00  0.00    -0.495 OA
ATOM     38  C   UNL     1       2.982 -14.062  -9.212  0.00  0.00    +0.277 C 
ENDBRANCH  34  37
ENDBRANCH  30  31
ENDBRANCH  29  30
ENDBRANCH  26  29
ENDBRANCH  25  26
ENDBRANCH  20  25
ENDBRANCH   1  20
TORSDOF 13
