REMARK  Name = ZINC10084297
REMARK  8 active torsions:
REMARK  status: ('A' for Active; 'I' for Inactive)
REMARK    1  A    between atoms: C_4  and  N_23
REMARK    2  A    between atoms: C_6  and  C_7
REMARK    3  A    between atoms: C_8  and  C_9
REMARK    4  A    between atoms: C_9  and  O_11
REMARK    5  A    between atoms: O_11  and  C_12
REMARK    6  A    between atoms: C_12  and  C_13
REMARK    7  A    between atoms: N_15  and  C_16
REMARK    8  A    between atoms: C_17  and  C_21
REMARK                            x       y       z     vdW  Elec       q    Type
REMARK                         _______ _______ _______ _____ _____    ______ ____
ROOT
ATOM      1  C   UNL     1       6.086   2.239  -0.043  0.00  0.00    +0.332 C 
ATOM      2  O   UNL     1       6.073   3.455  -0.036  0.00  0.00    -0.246 OA
ENDROOT
BRANCH   1   4
ATOM      3  C   UNL     1       3.652   2.156  -0.021  0.00  0.00    +0.015 C 
ATOM      4  C   UNL     1       4.828   1.494  -0.036  0.00  0.00    +0.092 C 
BRANCH   3  10
ATOM      5  C   UNL     1       2.397   0.008  -0.021  0.00  0.00    +0.009 A 
ATOM      6  C   UNL     1       1.207  -0.687  -0.014  0.00  0.00    +0.023 A 
ATOM      7  C   UNL     1       0.002  -0.004   0.002  0.00  0.00    +0.071 A 
ATOM      8  C   UNL     1      -0.017   1.381   0.010  0.00  0.00    +0.145 A 
ATOM      9  C   UNL     1       1.165   2.090   0.002  0.00  0.00    +0.042 A 
ATOM     10  C   UNL     1       2.386   1.407  -0.013  0.00  0.00    -0.023 A 
ATOM     11 CL   UNL     1      -1.492  -0.888   0.012  0.00  0.00    -0.081 Cl
BRANCH   8  12
ATOM     12  N   UNL     1      -1.310   2.102   0.020  0.00  0.00    +0.058 N 
ATOM     13  O   UNL     1      -1.328   3.320   0.026  0.00  0.00    -0.126 OA
ATOM     14  O   UNL     1      -2.355   1.478   0.021  0.00  0.00    -0.126 OA
ENDBRANCH   8  12
ENDBRANCH   3  10
ENDBRANCH   1   4
BRANCH   1  15
ATOM     15  O   UNL     1       7.262   1.577  -0.058  0.00  0.00    -0.452 OA
BRANCH  15  16
ATOM     16  C   UNL     1       8.452   2.368  -0.065  0.00  0.00    +0.328 C 
BRANCH  16  17
ATOM     17  C   UNL     1       9.657   1.463  -0.081  0.00  0.00    +0.255 C 
ATOM     18  O   UNL     1       9.511   0.259  -0.087  0.00  0.00    -0.272 OA
ATOM     19  N   UNL     1      10.896   1.992  -0.090  0.00  0.00    -0.276 N 
ATOM     20  H   UNL     1      11.013   2.955  -0.086  0.00  0.00    +0.155 HD
BRANCH  19  21
ATOM     21  C   UNL     1      12.006   1.158  -0.105  0.00  0.00    +0.089 A 
ATOM     22  C   UNL     1      13.350   1.510  -0.121  0.00  0.00    +0.080 A 
ATOM     23  C   UNL     1      14.305   0.429  -0.132  0.00  0.00    +0.028 A 
ATOM     24  C   UNL     1      13.814  -0.824  -0.135  0.00  0.00    +0.048 A 
ATOM     25  S   UNL     1      12.051  -0.573  -0.116  0.00  0.00    -0.081 S 
BRANCH  22  26
ATOM     26  C   UNL     1      13.766   2.881  -0.124  0.00  0.00    +0.102 C 
ATOM     27  N   UNL     1      14.097   3.967  -0.126  0.00  0.00    -0.191 NA
ENDBRANCH  22  26
ENDBRANCH  19  21
ENDBRANCH  16  17
ENDBRANCH  15  16
ENDBRANCH   1  15
TORSDOF 8
