REMARK  Name = ZINC08441500
REMARK  9 active torsions:
REMARK  status: ('A' for Active; 'I' for Inactive)
REMARK    1  A    between atoms: C_1  and  C_2
REMARK    2  A    between atoms: C_2  and  C_3
REMARK    3  A    between atoms: C_6  and  N_8
REMARK    4  A    between atoms: N_8  and  S_9
REMARK    5  A    between atoms: S_9  and  C_12
REMARK    6  A    between atoms: C_15  and  N_18
REMARK    7  A    between atoms: N_18  and  C_19
REMARK    8  A    between atoms: C_20  and  C_21
REMARK    9  A    between atoms: C_21  and  C_23
REMARK                            x       y       z     vdW  Elec       q    Type
REMARK                         _______ _______ _______ _____ _____    ______ ____
ROOT
ATOM      1  C   UNL     1      -7.223  -2.650   1.789  0.00  0.00    +0.111 A 
ATOM      2  C   UNL     1      -7.323  -3.880   2.413  0.00  0.00    +0.031 A 
ATOM      3  C   UNL     1      -8.543  -4.314   2.895  0.00  0.00    +0.025 A 
ATOM      4  C   UNL     1      -9.669  -3.514   2.750  0.00  0.00    +0.031 A 
ATOM      5  C   UNL     1      -9.565  -2.279   2.122  0.00  0.00    +0.025 A 
ATOM      6  C   UNL     1      -8.341  -1.849   1.649  0.00  0.00    +0.031 A 
ENDROOT
BRANCH   1   7
ATOM      7  S   UNL     1      -5.665  -2.101   1.176  0.00  0.00    +0.094 S 
ATOM      8  O   UNL     1      -5.941  -1.153   0.154  0.00  0.00    -0.148 OA
ATOM      9  O   UNL     1      -4.885  -3.266   0.944  0.00  0.00    -0.148 OA
BRANCH   7  10
ATOM     10  N   UNL     1      -4.922  -1.272   2.402  0.00  0.00    -0.068 NA
BRANCH  10  14
ATOM     11  C   UNL     1      -1.279   0.463   2.172  0.00  0.00    +0.104 A 
ATOM     12  N   UNL     1      -1.758  -0.169   1.120  0.00  0.00    -0.145 NA
ATOM     13  N   UNL     1      -2.888  -0.730   1.129  0.00  0.00    -0.123 NA
ATOM     14  C   UNL     1      -3.665  -0.718   2.204  0.00  0.00    +0.224 A 
ATOM     15  S   UNL     1      -2.625   0.212   3.325  0.00  0.00    -0.032 S 
BRANCH  11  17
ATOM     16  C   UNL     1      -0.140   2.656   1.966  0.00  0.00    +0.011 C 
ATOM     17  C   UNL     1       0.030   1.186   2.354  0.00  0.00    +0.061 C 
ENDBRANCH  11  17
ENDBRANCH  10  14
ENDBRANCH   7  10
ENDBRANCH   1   7
BRANCH   4  18
ATOM     18  N   UNL     1     -10.905  -3.950   3.236  0.00  0.00    -0.320 N 
ATOM     19  H   UNL     1     -10.977  -4.812   3.674  0.00  0.00    +0.152 HD
BRANCH  18  20
ATOM     20  C   UNL     1     -12.012  -3.161   3.093  0.00  0.00    +0.076 C 
ATOM     21  C   UNL     1     -13.228  -3.632   3.449  0.00  0.00    +0.066 C 
BRANCH  21  22
ATOM     22  C   UNL     1     -13.384  -4.993   3.798  0.00  0.00    +0.187 C 
ATOM     23  O   UNL     1     -12.450  -5.766   3.670  0.00  0.00    -0.287 OA
BRANCH  22  24
ATOM     24  C   UNL     1     -14.680  -5.479   4.317  0.00  0.00    +0.025 A 
ATOM     25  C   UNL     1     -15.753  -4.596   4.458  0.00  0.00    +0.015 A 
ATOM     26  C   UNL     1     -16.960  -5.050   4.942  0.00  0.00    +0.050 A 
ATOM     27  C   UNL     1     -17.115  -6.385   5.290  0.00  0.00    +0.166 A 
ATOM     28  C   UNL     1     -16.047  -7.272   5.152  0.00  0.00    +0.167 A 
ATOM     29  C   UNL     1     -14.836  -6.823   4.662  0.00  0.00    +0.061 A 
ATOM     30  O   UNL     1     -16.454  -8.511   5.558  0.00  0.00    -0.453 OA
ATOM     31  C   UNL     1     -17.650  -8.288   6.328  0.00  0.00    +0.466 C 
ATOM     32  O   UNL     1     -18.188  -7.070   5.781  0.00  0.00    -0.453 OA
ENDBRANCH  22  24
ENDBRANCH  21  22
ENDBRANCH  18  20
ENDBRANCH   4  18
TORSDOF 8
