REMARK  Name = ZINC13223767
REMARK  12 active torsions:
REMARK  status: ('A' for Active; 'I' for Inactive)
REMARK    1  A    between atoms: C_1  and  C_2
REMARK    2  A    between atoms: C_2  and  C_4
REMARK    3  A    between atoms: C_2  and  S_16
REMARK    4  A    between atoms: N_6  and  C_7
REMARK    5  A    between atoms: C_12  and  N_13
REMARK    6  A    between atoms: S_16  and  C_17
REMARK    7  A    between atoms: N_27  and  C_28
REMARK    8  A    between atoms: C_28  and  C_29
REMARK    9  A    between atoms: C_29  and  C_30
REMARK   10  A    between atoms: C_30  and  C_31
REMARK   11  A    between atoms: C_31  and  C_32
REMARK   12  A    between atoms: C_32  and  C_33
REMARK                            x       y       z     vdW  Elec       q    Type
REMARK                         _______ _______ _______ _____ _____    ______ ____
ROOT
ATOM      1  C   UNL     1       0.013  -0.011   0.019  0.00  0.00    +0.173 A 
ATOM      2  N   UNL     1       1.118  -0.715   0.019  0.00  0.00    -0.223 NA
ATOM      3  C   UNL     1       2.331  -0.126   0.024  0.00  0.00    +0.079 A 
ATOM      4  C   UNL     1       3.510  -0.877   0.025  0.00  0.00    +0.028 A 
ATOM      5  C   UNL     1       4.718  -0.239   0.030  0.00  0.00    +0.002 A 
ATOM      6  C   UNL     1       4.794   1.148   0.035  0.00  0.00    +0.001 A 
ATOM      7  C   UNL     1       3.658   1.910   0.035  0.00  0.00    +0.015 A 
ATOM      8  C   UNL     1       2.412   1.285   0.030  0.00  0.00    +0.065 A 
ATOM      9  C   UNL     1       1.159   2.052   0.030  0.00  0.00    +0.262 A 
ATOM     10  O   UNL     1       1.164   3.270   0.034  0.00  0.00    -0.267 OA
ATOM     11  N   UNL     1      -0.001   1.355   0.024  0.00  0.00    -0.287 N 
ENDROOT
BRANCH   1  12
ATOM     12  S   UNL     1      -1.527  -0.867   0.013  0.00  0.00    -0.075 S 
BRANCH  12  14
ATOM     13  C   UNL     1      -0.197  -2.865   1.315  0.00  0.00    +0.029 C 
ATOM     14  C   UNL     1      -0.937  -2.577   0.007  0.00  0.00    +0.137 C 
BRANCH  14  15
ATOM     15  C   UNL     1      -2.111  -3.514  -0.122  0.00  0.00    +0.230 C 
ATOM     16  O   UNL     1      -3.227  -3.129   0.156  0.00  0.00    -0.274 OA
ATOM     17  N   UNL     1      -1.920  -4.778  -0.548  0.00  0.00    -0.283 N 
ATOM     18  H   UNL     1      -1.042  -5.062  -0.847  0.00  0.00    +0.155 HD
BRANCH  17  19
ATOM     19  C   UNL     1      -2.989  -5.681  -0.558  0.00  0.00    +0.064 A 
ATOM     20  C   UNL     1      -4.060  -5.501   0.307  0.00  0.00    +0.025 A 
ATOM     21  C   UNL     1      -5.115  -6.392   0.291  0.00  0.00    +0.002 A 
ATOM     22  C   UNL     1      -5.101  -7.468  -0.578  0.00  0.00    +0.002 A 
ATOM     23  C   UNL     1      -4.034  -7.653  -1.437  0.00  0.00    +0.034 A 
ATOM     24  C   UNL     1      -2.978  -6.763  -1.430  0.00  0.00    +0.147 A 
BRANCH  24  25
ATOM     25  N   UNL     1      -1.835  -6.961  -2.349  0.00  0.00    +0.058 N 
ATOM     26  O   UNL     1      -1.866  -7.856  -3.175  0.00  0.00    -0.126 OA
ATOM     27  O   UNL     1      -0.863  -6.230  -2.280  0.00  0.00    -0.126 OA
ENDBRANCH  24  25
ENDBRANCH  17  19
ENDBRANCH  14  15
ENDBRANCH  12  14
ENDBRANCH   1  12
BRANCH  11  28
ATOM     28  C   UNL     1      -1.280   2.069   0.018  0.00  0.00    +0.127 C 
BRANCH  28  29
ATOM     29  C   UNL     1      -1.735   2.312   1.458  0.00  0.00    +0.022 C 
BRANCH  29  30
ATOM     30  C   UNL     1      -3.071   3.059   1.451  0.00  0.00    +0.002 C 
BRANCH  30  31
ATOM     31  C   UNL     1      -3.526   3.302   2.891  0.00  0.00    +0.011 C 
BRANCH  31  32
ATOM     32  C   UNL     1      -4.862   4.048   2.884  0.00  0.00    +0.125 C 
BRANCH  32  33
ATOM     33  C   UNL     1      -5.311   4.288   4.303  0.00  0.00    +0.356 C 
ATOM     34  O   UNL     1      -4.632   3.901   5.225  0.00  0.00    -0.246 OA
ATOM     35  O   UNL     1      -6.465   4.931   4.542  0.00  0.00    -0.246 OA
ENDBRANCH  32  33
ENDBRANCH  31  32
ENDBRANCH  30  31
ENDBRANCH  29  30
ENDBRANCH  28  29
ENDBRANCH  11  28
TORSDOF 11
