REMARK  Name = ZINC09289231
REMARK  6 active torsions:
REMARK  status: ('A' for Active; 'I' for Inactive)
REMARK    1  A    between atoms: C_6  and  C_11
REMARK    2  A    between atoms: C_12  and  C_21
REMARK    3  A    between atoms: N_31  and  C_32
REMARK    4  A    between atoms: C_32  and  C_33
REMARK    5  A    between atoms: N_35  and  C_36
REMARK    6  A    between atoms: C_36  and  C_37
REMARK                            x       y       z     vdW  Elec       q    Type
REMARK                         _______ _______ _______ _____ _____    ______ ____
ROOT
ATOM      1  C   UNL     1      -0.610  -2.478   1.779  0.00  0.00    +0.141 C 
ATOM      2  C   UNL     1      -0.190  -3.843   1.292  0.00  0.00    -0.010 A 
ATOM      3  C   UNL     1       0.481  -4.279   0.173  0.00  0.00    +0.006 A 
ATOM      4  C   UNL     1       0.726  -5.631  -0.002  0.00  0.00    +0.000 A 
ATOM      5  C   UNL     1       0.299  -6.545   0.945  0.00  0.00    +0.001 A 
ATOM      6  C   UNL     1      -0.375  -6.118   2.070  0.00  0.00    +0.013 A 
ATOM      7  C   UNL     1      -0.626  -4.757   2.255  0.00  0.00    +0.042 A 
ATOM      8  C   UNL     1      -1.306  -4.008   3.329  0.00  0.00    +0.248 C 
ATOM      9  O   UNL     1      -1.802  -4.510   4.319  0.00  0.00    -0.270 OA
ATOM     10  N   UNL     1      -1.298  -2.692   3.057  0.00  0.00    -0.278 N 
ENDROOT
BRANCH   1  12
ATOM     11  C   UNL     1      -1.263  -0.805  -0.043  0.00  0.00    +0.053 A 
ATOM     12  C   UNL     1      -1.547  -1.840   0.786  0.00  0.00    +0.010 A 
ATOM     13  C   UNL     1      -2.937  -2.217   0.535  0.00  0.00    +0.006 A 
ATOM     14  C   UNL     1      -3.787  -3.192   1.067  0.00  0.00    +0.010 A 
ATOM     15  C   UNL     1      -5.068  -3.300   0.606  0.00  0.00    +0.001 A 
ATOM     16  C   UNL     1      -5.533  -2.450  -0.389  0.00  0.00    +0.002 A 
ATOM     17  C   UNL     1      -4.713  -1.483  -0.928  0.00  0.00    +0.026 A 
ATOM     18  C   UNL     1      -3.405  -1.354  -0.473  0.00  0.00    +0.047 A 
ATOM     19  N   UNL     1      -2.369  -0.508  -0.805  0.00  0.00    -0.354 N 
ATOM     20  H   UNL     1      -2.414   0.192  -1.475  0.00  0.00    +0.166 HD
BRANCH  11  26
ATOM     21  C   UNL     1       3.781   3.188  -0.390  0.00  0.00    +0.001 A 
ATOM     22  C   UNL     1       2.607   3.939  -0.368  0.00  0.00    +0.001 A 
ATOM     23  C   UNL     1       1.391   3.334  -0.298  0.00  0.00    +0.008 A 
ATOM     24  C   UNL     1       1.313   1.931  -0.246  0.00  0.00    -0.017 A 
ATOM     25  C   UNL     1       0.074   1.275  -0.172  0.00  0.00    +0.018 A 
ATOM     26  C   UNL     1       0.038  -0.108  -0.121  0.00  0.00    -0.001 A 
ATOM     27  C   UNL     1       1.230  -0.855  -0.143  0.00  0.00    +0.010 A 
ATOM     28  C   UNL     1       2.437  -0.237  -0.215  0.00  0.00    +0.009 A 
ATOM     29  C   UNL     1       2.507   1.167  -0.267  0.00  0.00    -0.018 A 
ATOM     30  C   UNL     1       3.745   1.828  -0.340  0.00  0.00    +0.008 A 
ENDBRANCH  11  26
ENDBRANCH   1  12
BRANCH  10  31
ATOM     31  C   UNL     1      -1.881  -1.643   3.898  0.00  0.00    +0.204 C 
BRANCH  31  32
ATOM     32  C   UNL     1      -0.814  -1.068   4.794  0.00  0.00    +0.231 C 
ATOM     33  O   UNL     1       0.338  -1.427   4.674  0.00  0.00    -0.274 OA
ATOM     34  N   UNL     1      -1.141  -0.154   5.730  0.00  0.00    -0.305 N 
ATOM     35  H   UNL     1      -2.063   0.133   5.826  0.00  0.00    +0.149 HD
BRANCH  34  36
ATOM     36  C   UNL     1      -0.105   0.405   6.601  0.00  0.00    +0.199 C 
BRANCH  36  37
ATOM     37  C   UNL     1      -0.727   1.395   7.551  0.00  0.00    +0.228 C 
ATOM     38  O   UNL     1      -1.920   1.613   7.505  0.00  0.00    -0.274 OA
ATOM     39  N   UNL     1       0.041   2.040   8.452  0.00  0.00    -0.328 N 
ATOM     40  H   UNL     1       0.994   1.866   8.489  0.00  0.00    +0.145 HD
ATOM     41  H   UNL     1      -0.360   2.677   9.063  0.00  0.00    +0.145 HD
ENDBRANCH  36  37
ENDBRANCH  34  36
ENDBRANCH  31  32
ENDBRANCH  10  31
TORSDOF 6
