REMARK  Name = ZINC10001469
REMARK  14 active torsions:
REMARK  status: ('A' for Active; 'I' for Inactive)
REMARK    1  A    between atoms: C_1  and  C_2
REMARK    2  A    between atoms: C_2  and  C_3
REMARK    3  A    between atoms: C_3  and  O_4
REMARK    4  A    between atoms: O_4  and  C_5
REMARK    5  A    between atoms: C_8  and  C_13
REMARK    6  A    between atoms: C_10  and  O_11
REMARK    7  A    between atoms: O_11  and  C_12
REMARK    8  A    between atoms: N_14  and  N_15
REMARK    9  A    between atoms: C_16  and  C_18
REMARK   10  A    between atoms: C_18  and  C_20
REMARK   11  A    between atoms: C_18  and  N_23
REMARK   12  A    between atoms: C_20  and  C_21
REMARK   13  A    between atoms: C_20  and  C_22
REMARK   14  A    between atoms: C_24  and  C_26
REMARK                            x       y       z     vdW  Elec       q    Type
REMARK                         _______ _______ _______ _____ _____    ______ ____
ROOT
ATOM      1  N   UNL     1      -2.755   4.438   0.971  0.00  0.00    -0.205 N 
ATOM      2  C   UNL     1      -2.681   5.563   0.233  0.00  0.00    +0.253 C 
ATOM      3  O   UNL     1      -1.606   5.953  -0.173  0.00  0.00    -0.272 OA
ATOM      4  H   UNL     1      -3.603   4.162   1.353  0.00  0.00    +0.177 HD
ENDROOT
BRANCH   1   6
ATOM      5  C   UNL     1      -1.676   2.582   1.899  0.00  0.00    +0.138 C 
ATOM      6  N   UNL     1      -1.606   3.666   1.188  0.00  0.00    -0.188 NA
BRANCH   5  10
ATOM      7  C   UNL     1       1.809   0.239   2.544  0.00  0.00    +0.162 A 
ATOM      8  C   UNL     1       1.883   1.398   1.784  0.00  0.00    +0.050 A 
ATOM      9  C   UNL     1       0.754   2.162   1.574  0.00  0.00    +0.013 A 
ATOM     10  C   UNL     1      -0.467   1.770   2.127  0.00  0.00    -0.002 A 
ATOM     11  C   UNL     1      -0.542   0.603   2.892  0.00  0.00    +0.059 A 
ATOM     12  C   UNL     1       0.594  -0.158   3.098  0.00  0.00    +0.162 A 
BRANCH  12  13
ATOM     13  O   UNL     1       0.525  -1.294   3.842  0.00  0.00    -0.491 OA
ATOM     14  C   UNL     1      -0.752  -1.641   4.380  0.00  0.00    +0.277 C 
ENDBRANCH  12  13
BRANCH   7  15
ATOM     15  O   UNL     1       2.924  -0.510   2.747  0.00  0.00    -0.488 OA
BRANCH  15  16
ATOM     16  C   UNL     1       4.136  -0.045   2.150  0.00  0.00    +0.229 C 
BRANCH  16  18
ATOM     17  C   UNL     1       6.572  -0.513   1.848  0.00  0.00    +0.007 C 
ATOM     18  C   UNL     1       5.274  -1.011   2.487  0.00  0.00    +0.038 C 
ENDBRANCH  16  18
ENDBRANCH  15  16
ENDBRANCH   7  15
ENDBRANCH   5  10
ENDBRANCH   1   6
BRANCH   2  19
ATOM     19  C   UNL     1      -3.934   6.337  -0.087  0.00  0.00    +0.163 C 
BRANCH  19  20
ATOM     20  N   UNL     1      -3.586   7.731  -0.373  0.00  0.00    -0.300 N 
ATOM     21  C   UNL     1      -4.502   8.704  -0.193  0.00  0.00    +0.245 C 
ATOM     22  O   UNL     1      -5.615   8.425   0.207  0.00  0.00    -0.270 OA
ATOM     23  H   UNL     1      -2.698   7.954  -0.692  0.00  0.00    +0.150 HD
BRANCH  21  24
ATOM     24  C   UNL     1      -4.152  10.109  -0.481  0.00  0.00    +0.040 A 
ATOM     25  C   UNL     1      -2.871  10.433  -0.935  0.00  0.00    +0.017 A 
ATOM     26  C   UNL     1      -2.548  11.744  -1.208  0.00  0.00    +0.050 A 
ATOM     27  C   UNL     1      -3.488  12.748  -1.023  0.00  0.00    +0.166 A 
ATOM     28  C   UNL     1      -4.768  12.432  -0.565  0.00  0.00    +0.167 A 
ATOM     29  C   UNL     1      -5.099  11.119  -0.295  0.00  0.00    +0.062 A 
ATOM     30  O   UNL     1      -5.492  13.585  -0.468  0.00  0.00    -0.453 OA
ATOM     31  C   UNL     1      -4.523  14.650  -0.480  0.00  0.00    +0.466 C 
ATOM     32  O   UNL     1      -3.415  14.097  -1.213  0.00  0.00    -0.453 OA
ENDBRANCH  21  24
ENDBRANCH  19  20
BRANCH  19  33
ATOM     33  C   UNL     1      -4.615   5.720  -1.310  0.00  0.00    +0.012 C 
ATOM     34  C   UNL     1      -5.954   6.419  -1.555  0.00  0.00    +0.009 C 
ATOM     35  C   UNL     1      -3.718   5.895  -2.537  0.00  0.00    +0.009 C 
ENDBRANCH  19  33
ENDBRANCH   2  19
TORSDOF 10
