REMARK  Name = ZINC15772341
REMARK  10 active torsions:
REMARK  status: ('A' for Active; 'I' for Inactive)
REMARK    1  A    between atoms: C_1  and  C_2
REMARK    2  A    between atoms: C_6  and  C_12
REMARK    3  A    between atoms: C_12  and  O_13
REMARK    4  A    between atoms: O_13  and  C_14
REMARK    5  A    between atoms: C_14  and  C_16
REMARK    6  A    between atoms: C_21  and  N_22
REMARK    7  A    between atoms: C_23  and  C_25
REMARK    8  A    between atoms: C_25  and  C_27
REMARK    9  A    between atoms: C_25  and  O_28
REMARK   10  A    between atoms: O_28  and  C_29
REMARK                            x       y       z     vdW  Elec       q    Type
REMARK                         _______ _______ _______ _____ _____    ______ ____
ROOT
ATOM      1  C   UNL     1      -8.119   2.952  -2.137  0.00  0.00    +0.080 A 
ATOM      2  C   UNL     1      -9.098   3.533  -2.947  0.00  0.00    +0.017 A 
ATOM      3  C   UNL     1      -8.897   4.790  -3.473  0.00  0.00    +0.001 A 
ATOM      4  C   UNL     1      -7.728   5.483  -3.204  0.00  0.00    +0.002 A 
ATOM      5  C   UNL     1      -6.753   4.924  -2.402  0.00  0.00    +0.024 A 
ATOM      6  C   UNL     1      -6.935   3.656  -1.867  0.00  0.00    +0.048 A 
ENDROOT
BRANCH   6   7
ATOM      7  N   UNL     1      -5.951   3.088  -1.062  0.00  0.00    -0.282 N 
ATOM      8  C   UNL     1      -4.650   3.320  -1.324  0.00  0.00    +0.258 C 
ATOM      9  O   UNL     1      -4.337   4.085  -2.211  0.00  0.00    -0.271 OA
ATOM     10  H   UNL     1      -6.203   2.525  -0.313  0.00  0.00    +0.155 HD
BRANCH   8  11
ATOM     11  C   UNL     1      -3.583   2.628  -0.514  0.00  0.00    +0.256 C 
ATOM     12  C   UNL     1      -3.737   3.006   0.961  0.00  0.00    +0.062 C 
BRANCH  11  13
ATOM     13  O   UNL     1      -2.294   3.034  -0.978  0.00  0.00    -0.480 OA
BRANCH  13  14
ATOM     14  C   UNL     1      -1.301   2.107  -0.930  0.00  0.00    +0.122 A 
ATOM     15  C   UNL     1      -1.530   0.874  -0.337  0.00  0.00    +0.045 A 
ATOM     16  C   UNL     1      -0.517  -0.064  -0.284  0.00  0.00    +0.004 A 
ATOM     17  C   UNL     1       0.720   0.222  -0.833  0.00  0.00    +0.000 A 
ATOM     18  C   UNL     1       0.949   1.447  -1.430  0.00  0.00    +0.004 A 
ATOM     19  C   UNL     1      -0.059   2.391  -1.480  0.00  0.00    +0.045 A 
ENDBRANCH  13  14
ENDBRANCH  11  13
ENDBRANCH   8  11
ENDBRANCH   6   7
BRANCH   1  20
ATOM     20  C   UNL     1      -8.327   1.607  -1.571  0.00  0.00    +0.341 C 
ATOM     21  O   UNL     1      -7.515   1.141  -0.796  0.00  0.00    -0.245 OA
BRANCH  20  22
ATOM     22  O   UNL     1      -9.419   0.894  -1.911  0.00  0.00    -0.455 OA
BRANCH  22  23
ATOM     23  C   UNL     1      -9.559  -0.422  -1.315  0.00  0.00    +0.288 C 
BRANCH  23  29
ATOM     24  C   UNL     1     -16.679  -1.783  -2.544  0.00  0.00    +0.089 C 
ATOM     25  C   UNL     1     -15.180  -1.686  -2.415  0.00  0.00    +0.134 A 
ATOM     26  C   UNL     1     -14.498  -0.735  -1.735  0.00  0.00    +0.093 A 
ATOM     27  C   UNL     1     -13.138  -1.087  -1.920  0.00  0.00    +0.177 A 
ATOM     28  N   UNL     1     -12.007  -0.541  -1.493  0.00  0.00    -0.228 NA
ATOM     29  C   UNL     1     -10.830  -1.065  -1.809  0.00  0.00    +0.086 A 
ATOM     30  C   UNL     1     -10.773  -2.202  -2.587  0.00  0.00    +0.100 A 
ATOM     31  C   UNL     1     -11.967  -2.782  -3.034  0.00  0.00    +0.287 A 
ATOM     32  O   UNL     1     -11.947  -3.789  -3.723  0.00  0.00    -0.265 OA
ATOM     33  N   UNL     1     -13.144  -2.208  -2.689  0.00  0.00    -0.119 N 
ATOM     34  O   UNL     1     -14.287  -2.522  -2.952  0.00  0.00    -0.373 OA
ENDBRANCH  23  29
ENDBRANCH  22  23
ENDBRANCH  20  22
ENDBRANCH   1  20
TORSDOF 8
