REMARK  Name = ZINC66600429
REMARK  5 active torsions:
REMARK  status: ('A' for Active; 'I' for Inactive)
REMARK    1  A    between atoms: C_1  and  C_2
REMARK    2  A    between atoms: C_2  and  C_7
REMARK    3  A    between atoms: C_7  and  N_8
REMARK    4  A    between atoms: N_14  and  C_17
REMARK    5  A    between atoms: C_17  and  C_18
REMARK                            x       y       z     vdW  Elec       q    Type
REMARK                         _______ _______ _______ _____ _____    ______ ____
ROOT
ATOM      1  N   UNL     1      -4.471  -1.001  -0.512  0.00  0.00    -0.299 N 
ATOM      2  C   UNL     1      -3.795  -0.194  -1.354  0.00  0.00    +0.302 C 
ATOM      3  O   UNL     1      -2.710   0.249  -1.031  0.00  0.00    -0.253 OA
ATOM      4  N   UNL     1      -4.321   0.120  -2.554  0.00  0.00    -0.283 N 
ATOM      5  C   UNL     1      -3.553   0.903  -3.534  0.00  0.00    +0.124 C 
ATOM      6  C   UNL     1      -3.577   0.162  -4.876  0.00  0.00    +0.104 C 
ATOM      7  N   UNL     1      -4.970  -0.112  -5.255  0.00  0.00    -0.294 NA
ATOM      8  C   UNL     1      -5.620  -1.003  -4.285  0.00  0.00    +0.104 C 
ATOM      9  C   UNL     1      -5.677  -0.316  -2.922  0.00  0.00    +0.124 C 
ATOM     10  H   UNL     1      -5.367  -1.297  -0.739  0.00  0.00    +0.150 HD
ENDROOT
BRANCH   1  11
ATOM     11  C   UNL     1      -3.854  -1.429   0.745  0.00  0.00    +0.112 C 
BRANCH  11  13
ATOM     12  C   UNL     1      -5.179  -3.556   0.662  0.00  0.00    +0.013 C 
ATOM     13  C   UNL     1      -4.826  -2.332   1.509  0.00  0.00    -0.016 C 
ATOM     14  C   UNL     1      -6.106  -1.548   1.866  0.00  0.00    +0.008 C 
ATOM     15  C   UNL     1      -6.492  -2.072   3.271  0.00  0.00    +0.001 C 
ATOM     16  C   UNL     1      -5.117  -2.247   3.961  0.00  0.00    +0.001 C 
ATOM     17  C   UNL     1      -4.197  -2.776   2.841  0.00  0.00    +0.008 C 
ENDBRANCH  11  13
ENDBRANCH   1  11
BRANCH   7  18
ATOM     18  C   UNL     1      -5.046  -0.666  -6.613  0.00  0.00    +0.138 C 
BRANCH  18  19
ATOM     19  C   UNL     1      -4.609   0.379  -7.607  0.00  0.00    +0.037 A 
ATOM     20  C   UNL     1      -3.477   0.191  -8.371  0.00  0.00    +0.093 A 
ATOM     21  C   UNL     1      -3.089   1.169  -9.286  0.00  0.00    +0.259 A 
ATOM     22  O   UNL     1      -2.087   1.007  -9.966  0.00  0.00    -0.267 OA
ATOM     23  N   UNL     1      -3.831   2.308  -9.422  0.00  0.00    -0.264 N 
ATOM     24  C   UNL     1      -3.579   3.356 -10.275  0.00  0.00    +0.104 A 
ATOM     25  C   UNL     1      -4.383   4.419 -10.315  0.00  0.00    +0.067 A 
ATOM     26  S   UNL     1      -5.612   3.994  -9.092  0.00  0.00    -0.059 S 
ATOM     27  C   UNL     1      -4.939   2.414  -8.625  0.00  0.00    +0.158 A 
ATOM     28  N   UNL     1      -5.312   1.497  -7.767  0.00  0.00    -0.338 N 
ATOM     29  H   UNL     1      -6.113   1.637  -7.238  0.00  0.00    +0.168 HD
ENDBRANCH  18  19
ENDBRANCH   7  18
TORSDOF 4
