REMARK  Name = ZINC63782841
REMARK  10 active torsions:
REMARK  status: ('A' for Active; 'I' for Inactive)
REMARK    1  A    between atoms: C_1  and  O_2
REMARK    2  A    between atoms: O_2  and  C_3
REMARK    3  A    between atoms: C_3  and  C_5
REMARK    4  A    between atoms: C_8  and  O_11
REMARK    5  A    between atoms: O_11  and  C_12
REMARK    6  A    between atoms: C_12  and  C_13
REMARK    7  A    between atoms: C_16  and  C_20
REMARK    8  A    between atoms: N_22  and  C_23
REMARK    9  A    between atoms: C_23  and  C_24
REMARK   10  A    between atoms: C_24  and  C_25
REMARK                            x       y       z     vdW  Elec       q    Type
REMARK                         _______ _______ _______ _____ _____    ______ ____
ROOT
ATOM      1  C   UNL     1      -2.563  -8.353  -0.024  0.00  0.00    +0.188 C 
ATOM      2  N   UNL     1      -1.786  -8.797  -1.205  0.00  0.00    -0.263 NA
ATOM      3  C   UNL     1      -0.924  -9.903  -0.742  0.00  0.00    +0.297 C 
ATOM      4  O   UNL     1      -1.204 -10.105   0.656  0.00  0.00    -0.270 OA
ATOM      5  N   UNL     1      -1.743  -8.809   1.130  0.00  0.00    -0.178 NA
ATOM      6  H   UNL     1      -2.398  -9.102  -1.947  0.00  0.00    +0.126 HD
ATOM      7  H   UNL     1      -2.314  -8.932   1.953  0.00  0.00    +0.156 HD
ENDROOT
BRANCH   3   8
ATOM      8  C   UNL     1      -1.237 -11.157  -1.517  0.00  0.00    +0.259 C 
ATOM      9  O   UNL     1      -0.435 -11.592  -2.316  0.00  0.00    -0.271 OA
ATOM     10  N   UNL     1      -2.409 -11.794  -1.323  0.00  0.00    -0.312 N 
ATOM     11  H   UNL     1      -3.051 -11.445  -0.685  0.00  0.00    +0.149 HD
BRANCH  10  12
ATOM     12  C   UNL     1      -2.714 -13.012  -2.077  0.00  0.00    +0.108 C 
BRANCH  12  13
ATOM     13  C   UNL     1      -4.095 -13.531  -1.672  0.00  0.00    +0.052 C 
BRANCH  13  14
ATOM     14  C   UNL     1      -4.408 -14.785  -2.447  0.00  0.00    -0.040 C 
ATOM     15  C   UNL     1      -4.215 -16.061  -2.043  0.00  0.00    +0.002 A 
ATOM     16  C   UNL     1      -3.674 -16.641  -0.807  0.00  0.00    +0.048 A 
ATOM     17  C   UNL     1      -3.603 -17.988  -0.691  0.00  0.00    +0.124 A 
ATOM     18  C   UNL     1      -4.032 -18.841  -1.721  0.00  0.00    +0.040 A 
ATOM     19  C   UNL     1      -4.538 -18.381  -2.884  0.00  0.00    +0.029 A 
ATOM     20  C   UNL     1      -4.660 -16.982  -3.113  0.00  0.00    +0.043 A 
ATOM     21  N   UNL     1      -5.111 -16.302  -4.139  0.00  0.00    -0.380 N 
ATOM     22  C   UNL     1      -5.009 -14.871  -3.833  0.00  0.00    +0.144 C 
ATOM     23  F   UNL     1      -3.106 -18.525   0.445  0.00  0.00    -0.205 F 
ATOM     24  H   UNL     1      -5.457 -16.682  -4.961  0.00  0.00    +0.160 HD
ENDBRANCH  13  14
ENDBRANCH  12  13
ENDBRANCH  10  12
ENDBRANCH   3   8
BRANCH   1  25
ATOM     25  C   UNL     1      -2.705  -6.829  -0.015  0.00  0.00    +0.265 C 
BRANCH  25  26
ATOM     26  O   UNL     1      -1.407  -6.230  -0.018  0.00  0.00    -0.489 OA
BRANCH  26  30
ATOM     27  C   UNL     1      -1.247  -2.106   0.003  0.00  0.00    +0.059 A 
ATOM     28  C   UNL     1      -0.066  -2.853  -0.007  0.00  0.00    +0.018 A 
ATOM     29  C   UNL     1      -0.124  -4.228  -0.013  0.00  0.00    +0.046 A 
ATOM     30  C   UNL     1      -1.355  -4.874  -0.011  0.00  0.00    +0.121 A 
ATOM     31  C   UNL     1      -2.532  -4.135  -0.001  0.00  0.00    +0.046 A 
ATOM     32  C   UNL     1      -2.483  -2.759   0.011  0.00  0.00    +0.018 A 
BRANCH  27  33
ATOM     33  C   UNL     1      -1.190  -0.632   0.010  0.00  0.00    +0.339 C 
ATOM     34  O   UNL     1      -2.218   0.016   0.023  0.00  0.00    -0.245 OA
BRANCH  33  36
ATOM     35  C   UNL     1      -0.017   1.425   0.010  0.00  0.00    +0.280 C 
ATOM     36  O   UNL     1       0.002  -0.004   0.002  0.00  0.00    -0.464 OA
ENDBRANCH  33  36
ENDBRANCH  27  33
ENDBRANCH  26  30
ENDBRANCH  25  26
ENDBRANCH   1  25
TORSDOF 9
