REMARK  Name = ZINC38659542
REMARK  14 active torsions:
REMARK  status: ('A' for Active; 'I' for Inactive)
REMARK    1  A    between atoms: C_1  and  C_2
REMARK    2  A    between atoms: C_2  and  O_3
REMARK    3  A    between atoms: O_3  and  C_4
REMARK    4  A    between atoms: C_7  and  C_12
REMARK    5  A    between atoms: C_9  and  O_10
REMARK    6  A    between atoms: O_10  and  C_11
REMARK    7  A    between atoms: C_17  and  O_26
REMARK    8  A    between atoms: C_21  and  N_25
REMARK    9  A    between atoms: C_22  and  C_23
REMARK   10  A    between atoms: O_26  and  C_27
REMARK   11  A    between atoms: C_27  and  C_29
REMARK   12  A    between atoms: C_30  and  C_31
REMARK   13  A    between atoms: C_34  and  O_37
REMARK   14  A    between atoms: O_37  and  C_38
REMARK                            x       y       z     vdW  Elec       q    Type
REMARK                         _______ _______ _______ _____ _____    ______ ____
ROOT
ATOM      1  C   UNL     1      -2.056  -6.104  -0.038  0.00  0.00    +0.098 C 
ATOM      2  C   UNL     1      -1.404  -6.671  -1.271  0.00  0.00    +0.008 A 
ATOM      3  C   UNL     1      -2.084  -6.641  -2.476  0.00  0.00    +0.012 A 
ATOM      4  C   UNL     1      -1.502  -7.157  -3.616  0.00  0.00    +0.047 A 
ATOM      5  C   UNL     1      -0.229  -7.709  -3.557  0.00  0.00    +0.135 A 
ATOM      6  C   UNL     1       0.454  -7.741  -2.353  0.00  0.00    +0.093 A 
ATOM      7  C   UNL     1      -0.133  -7.221  -1.206  0.00  0.00    +0.138 A 
ATOM      8  O   UNL     1       0.549  -7.260  -0.035  0.00  0.00    -0.441 OA
ATOM      9  C   UNL     1      -0.110  -7.134   1.129  0.00  0.00    +0.199 C 
ATOM     10  C   UNL     1      -1.346  -6.593   1.193  0.00  0.00    +0.098 C 
ENDROOT
BRANCH   1  14
ATOM     11  C   UNL     1      -1.865  -1.834  -0.176  0.00  0.00    +0.162 A 
ATOM     12  C   UNL     1      -0.699  -2.583  -0.181  0.00  0.00    +0.050 A 
ATOM     13  C   UNL     1      -0.764  -3.963  -0.136  0.00  0.00    +0.008 A 
ATOM     14  C   UNL     1      -1.990  -4.599  -0.086  0.00  0.00    -0.031 A 
ATOM     15  C   UNL     1      -3.157  -3.858  -0.082  0.00  0.00    +0.054 A 
ATOM     16  C   UNL     1      -3.099  -2.474  -0.121  0.00  0.00    +0.162 A 
BRANCH  16  17
ATOM     17  O   UNL     1      -4.246  -1.743  -0.111  0.00  0.00    -0.491 OA
ATOM     18  C   UNL     1      -5.476  -2.467  -0.054  0.00  0.00    +0.277 C 
ENDBRANCH  16  17
BRANCH  11  19
ATOM     19  O   UNL     1      -1.802  -0.476  -0.220  0.00  0.00    -0.489 OA
BRANCH  19  21
ATOM     20  C   UNL     1      -0.632   1.636  -0.319  0.00  0.00    +0.048 C 
ATOM     21  C   UNL     1      -0.501   0.112  -0.276  0.00  0.00    +0.226 C 
ENDBRANCH  19  21
ENDBRANCH  11  19
ENDBRANCH   1  14
BRANCH   9  22
ATOM     22  N   UNL     1       0.491  -7.566   2.285  0.00  0.00    -0.328 N 
ATOM     23  H   UNL     1       1.379  -7.955   2.254  0.00  0.00    +0.145 HD
ATOM     24  H   UNL     1       0.028  -7.481   3.133  0.00  0.00    +0.145 HD
ENDBRANCH   9  22
BRANCH  10  25
ATOM     25  C   UNL     1      -1.995  -6.486   2.466  0.00  0.00    +0.101 C 
ATOM     26  N   UNL     1      -2.509  -6.401   3.475  0.00  0.00    -0.191 NA
ENDBRANCH  10  25
BRANCH   5  27
ATOM     27  O   UNL     1       0.345  -8.218  -4.679  0.00  0.00    -0.423 OA
BRANCH  27  28
ATOM     28  C   UNL     1       0.713  -7.355  -5.649  0.00  0.00    +0.337 C 
ATOM     29  O   UNL     1       0.624  -6.156  -5.463  0.00  0.00    -0.245 OA
BRANCH  28  30
ATOM     30  C   UNL     1       1.202  -7.846  -6.886  0.00  0.00    +0.092 C 
ATOM     31  C   UNL     1       1.571  -6.983  -7.857  0.00  0.00    +0.015 C 
BRANCH  31  32
ATOM     32  C   UNL     1       2.078  -7.492  -9.139  0.00  0.00    -0.025 A 
ATOM     33  C   UNL     1       2.175  -8.871  -9.358  0.00  0.00    +0.011 A 
ATOM     34  C   UNL     1       2.651  -9.343 -10.561  0.00  0.00    +0.046 A 
ATOM     35  C   UNL     1       3.034  -8.452 -11.557  0.00  0.00    +0.120 A 
ATOM     36  C   UNL     1       2.940  -7.082 -11.344  0.00  0.00    +0.046 A 
ATOM     37  C   UNL     1       2.461  -6.599 -10.148  0.00  0.00    +0.011 A 
BRANCH  35  38
ATOM     38  O   UNL     1       3.503  -8.922 -12.741  0.00  0.00    -0.495 OA
ATOM     39  C   UNL     1       3.879  -7.953 -13.721  0.00  0.00    +0.277 C 
ENDBRANCH  35  38
ENDBRANCH  31  32
ENDBRANCH  28  30
ENDBRANCH  27  28
ENDBRANCH   5  27
TORSDOF 11
