REMARK  Name = ZINC40151147
REMARK  6 active torsions:
REMARK  status: ('A' for Active; 'I' for Inactive)
REMARK    1  A    between atoms: C_8  and  C_13
REMARK    2  A    between atoms: C_13  and  C_26
REMARK    3  A    between atoms: N_14  and  N_15
REMARK    4  A    between atoms: N_15  and  C_16
REMARK    5  A    between atoms: C_19  and  S_22
REMARK    6  A    between atoms: S_22  and  N_25
REMARK                            x       y       z     vdW  Elec       q    Type
REMARK                         _______ _______ _______ _____ _____    ______ ____
ROOT
ATOM      1  C   UNL     1       2.769  -3.535   1.170  0.00  0.00    +0.129 C 
ATOM      2  N   UNL     1       3.196  -4.764   1.045  0.00  0.00    -0.181 NA
ENDROOT
BRANCH   1  10
ATOM      3  C   UNL     1       0.325   1.560   0.159  0.00  0.00    +0.002 A 
ATOM      4  C   UNL     1       1.567   2.205   0.035  0.00  0.00    +0.002 A 
ATOM      5  C   UNL     1       2.735   1.530  -0.075  0.00  0.00    +0.025 A 
ATOM      6  C   UNL     1       2.748   0.118  -0.069  0.00  0.00    +0.057 A 
ATOM      7  N   UNL     1       3.892  -0.536  -0.176  0.00  0.00    -0.282 N 
ATOM      8  C   UNL     1       3.939  -1.870  -0.174  0.00  0.00    +0.246 C 
ATOM      9  O   UNL     1       5.002  -2.450  -0.273  0.00  0.00    -0.273 OA
ATOM     10  C   UNL     1       2.651  -2.651  -0.044  0.00  0.00    +0.220 C 
ATOM     11  N   UNL     1       1.395  -1.893   0.073  0.00  0.00    -0.367 N 
ATOM     12  C   UNL     1       1.451  -0.593   0.061  0.00  0.00    +0.058 A 
ATOM     13  C   UNL     1       0.224   0.213   0.176  0.00  0.00    +0.027 A 
ATOM     14  H   UNL     1       4.718  -0.035  -0.260  0.00  0.00    +0.155 HD
ATOM     15  H   UNL     1       0.545  -2.352   0.158  0.00  0.00    +0.161 HD
ENDBRANCH   1  10
BRANCH   2  16
ATOM     16  N   UNL     1       3.625  -5.185  -0.096  0.00  0.00    -0.237 N 
ATOM     17  H   UNL     1       3.703  -4.570  -0.842  0.00  0.00    +0.174 HD
BRANCH  16  18
ATOM     18  C   UNL     1       3.976  -6.526  -0.258  0.00  0.00    +0.048 A 
ATOM     19  C   UNL     1       3.860  -7.411   0.807  0.00  0.00    +0.026 A 
ATOM     20  C   UNL     1       4.208  -8.736   0.643  0.00  0.00    +0.030 A 
ATOM     21  C   UNL     1       4.673  -9.185  -0.580  0.00  0.00    +0.105 A 
ATOM     22  C   UNL     1       4.790  -8.307  -1.643  0.00  0.00    +0.030 A 
ATOM     23  C   UNL     1       4.438  -6.981  -1.488  0.00  0.00    +0.026 A 
BRANCH  21  24
ATOM     24  S   UNL     1       5.117 -10.877  -0.784  0.00  0.00    +0.056 S 
ATOM     25  O   UNL     1       6.038 -10.928  -1.866  0.00  0.00    -0.153 OA
ATOM     26  O   UNL     1       5.434 -11.374   0.509  0.00  0.00    -0.153 OA
BRANCH  24  27
ATOM     27  N   UNL     1       3.759 -11.684  -1.282  0.00  0.00    -0.204 NA
ATOM     28  H   UNL     1       2.926 -11.201  -1.403  0.00  0.00    +0.144 HD
ATOM     29  H   UNL     1       3.796 -12.638  -1.451  0.00  0.00    +0.144 HD
ENDBRANCH  24  27
ENDBRANCH  21  24
ENDBRANCH  16  18
ENDBRANCH   2  16
BRANCH   1  30
ATOM     30  C   UNL     1       2.419  -3.037   2.440  0.00  0.00    +0.278 C 
ATOM     31  O   UNL     1       2.514  -3.749   3.420  0.00  0.00    -0.294 OA
ENDBRANCH   1  30
TORSDOF 6
