REMARK  Name = ZINC39440379
REMARK  5 active torsions:
REMARK  status: ('A' for Active; 'I' for Inactive)
REMARK    1  A    between atoms: C_3  and  C_6
REMARK    2  A    between atoms: C_9  and  C_33
REMARK    3  A    between atoms: C_15  and  C_18
REMARK    4  A    between atoms: N_20  and  C_21
REMARK    5  A    between atoms: C_21  and  C_22
REMARK                            x       y       z     vdW  Elec       q    Type
REMARK                         _______ _______ _______ _____ _____    ______ ____
ROOT
ATOM      1  C   UNL     1       3.307  -0.191  -0.176  0.00  0.00    +0.124 C 
ATOM      2  C   UNL     1       3.835  -0.324  -1.603  0.00  0.00    +0.056 C 
ATOM      3  C   UNL     1       5.372  -0.213  -1.628  0.00  0.00    +0.184 C 
ATOM      4  N   UNL     1       5.873  -1.207  -0.699  0.00  0.00    -0.196 NA
ATOM      5  C   UNL     1       5.432  -0.850   0.677  0.00  0.00    +0.180 C 
ATOM      6  N   UNL     1       4.001  -1.117   0.743  0.00  0.00    -0.286 NA
ATOM      7  C   UNL     1       6.319  -1.738   1.504  0.00  0.00    +0.062 C 
ATOM      8  C   UNL     1       7.350  -2.066   0.674  0.00  0.00    +0.096 C 
ATOM      9  N   UNL     1       7.191  -1.445  -0.548  0.00  0.00    -0.282 N 
ATOM     10  H   UNL     1       3.658  -1.015   1.686  0.00  0.00    +0.124 HD
ATOM     11  H   UNL     1       7.894  -1.222  -1.179  0.00  0.00    +0.166 HD
ENDROOT
BRANCH   1  14
ATOM     12  C   UNL     1      -0.377  -0.318  -0.155  0.00  0.00    +0.041 A 
ATOM     13  C   UNL     1       0.838   0.406  -0.167  0.00  0.00    +0.046 A 
ATOM     14  C   UNL     1       1.832  -0.500  -0.165  0.00  0.00    +0.122 A 
ATOM     15  O   UNL     1       1.287  -1.728  -0.152  0.00  0.00    -0.466 OA
ATOM     16  C   UNL     1      -0.052  -1.623  -0.146  0.00  0.00    +0.195 A 
ENDBRANCH   1  14
BRANCH   7  17
ATOM     17  C   UNL     1       6.127  -2.143   2.845  0.00  0.00    +0.244 C 
ATOM     18  O   UNL     1       6.875  -2.962   3.347  0.00  0.00    -0.270 OA
ATOM     19  N   UNL     1       5.115  -1.622   3.568  0.00  0.00    -0.306 N 
ATOM     20  H   UNL     1       4.492  -1.005   3.155  0.00  0.00    +0.149 HD
BRANCH  19  21
ATOM     21  C   UNL     1       4.958  -1.988   4.978  0.00  0.00    +0.157 C 
BRANCH  21  22
ATOM     22  C   UNL     1       3.761  -1.275   5.552  0.00  0.00    +0.034 A 
ATOM     23  H   UNL     1       4.555   0.567   6.113  0.00  0.00    +0.166 HD
ATOM     24  C   UNL     1       2.526  -1.792   5.641  0.00  0.00    +0.032 A 
ATOM     25  C   UNL     1       1.677  -0.769   6.256  0.00  0.00    +0.001 A 
ATOM     26  C   UNL     1       0.326  -0.711   6.604  0.00  0.00    +0.030 A 
ATOM     27  C   UNL     1      -0.180   0.432   7.184  0.00  0.00    +0.042 A 
ATOM     28  C   UNL     1       0.647   1.522   7.424  0.00  0.00    +0.022 A 
ATOM     29  C   UNL     1       1.981   1.480   7.086  0.00  0.00    +0.027 A 
ATOM     30  C   UNL     1       2.513   0.336   6.499  0.00  0.00    +0.047 A 
ATOM     31  N   UNL     1       3.775  -0.006   6.065  0.00  0.00    -0.357 N 
ATOM     32 CL   UNL     1      -1.859   0.509   7.618  0.00  0.00    -0.084 Cl
ENDBRANCH  21  22
ENDBRANCH  19  21
ENDBRANCH   7  17
BRANCH   3  33
ATOM     33  C   UNL     1       5.804   1.186  -1.185  0.00  0.00    +0.407 C 
ATOM     34  F   UNL     1       5.188   1.501   0.031  0.00  0.00    -0.169 F 
ATOM     35  F   UNL     1       7.193   1.217  -1.026  0.00  0.00    -0.169 F 
ATOM     36  F   UNL     1       5.425   2.120  -2.155  0.00  0.00    -0.169 F 
ENDBRANCH   3  33
TORSDOF 5
