REMARK  Name = ZINC59293409
REMARK  4 active torsions:
REMARK  status: ('A' for Active; 'I' for Inactive)
REMARK    1  A    between atoms: C_1  and  C_2
REMARK    2  A    between atoms: C_2  and  N_3
REMARK    3  A    between atoms: C_25  and  N_29
REMARK    4  A    between atoms: C_26  and  C_27
REMARK                            x       y       z     vdW  Elec       q    Type
REMARK                         _______ _______ _______ _____ _____    ______ ____
ROOT
ATOM      1  N   UNL     1      -1.372  -0.511   0.012  0.00  0.00    -0.270 N 
ATOM      2  C   UNL     1      -2.089  -0.780   1.165  0.00  0.00    +0.041 A 
ATOM      3  C   UNL     1      -1.704  -0.643   2.500  0.00  0.00    +0.025 A 
ATOM      4  C   UNL     1      -2.635  -0.990   3.467  0.00  0.00    +0.017 A 
ATOM      5  C   UNL     1      -3.893  -1.453   3.138  0.00  0.00    +0.018 A 
ATOM      6  C   UNL     1      -4.288  -1.595   1.811  0.00  0.00    +0.022 A 
ATOM      7  C   UNL     1      -3.367  -1.252   0.845  0.00  0.00    -0.000 A 
ATOM      8  C   UNL     1      -3.444  -1.276  -0.650  0.00  0.00    +0.148 C 
ATOM      9  C   UNL     1      -2.091  -0.766  -1.101  0.00  0.00    +0.240 C 
ATOM     10  O   UNL     1      -1.721  -0.617  -2.247  0.00  0.00    -0.274 OA
ATOM     11  C   UNL     1      -3.663  -2.675  -1.152  0.00  0.00    +0.104 A 
ATOM     12  C   UNL     1      -4.879  -3.048  -1.645  0.00  0.00    +0.152 A 
ATOM     13  C   UNL     1      -5.042  -4.433  -2.115  0.00  0.00    +0.060 A 
ATOM     14  C   UNL     1      -6.265  -4.884  -2.617  0.00  0.00    +0.015 A 
ATOM     15  C   UNL     1      -6.385  -6.187  -3.046  0.00  0.00    +0.001 A 
ATOM     16  C   UNL     1      -5.299  -7.049  -2.981  0.00  0.00    +0.004 A 
ATOM     17  C   UNL     1      -4.086  -6.615  -2.489  0.00  0.00    +0.047 A 
ATOM     18  C   UNL     1      -3.944  -5.305  -2.050  0.00  0.00    +0.143 A 
ATOM     19  O   UNL     1      -2.764  -4.863  -1.566  0.00  0.00    -0.422 OA
ATOM     20  C   UNL     1      -2.611  -3.607  -1.118  0.00  0.00    +0.346 A 
ATOM     21  O   UNL     1      -1.531  -3.265  -0.669  0.00  0.00    -0.245 OA
ATOM     22  O   UNL     1      -5.908  -2.183  -1.707  0.00  0.00    -0.440 OA
ATOM     23  C   UNL     1      -5.684  -0.859  -1.642  0.00  0.00    +0.199 C 
ATOM     24  C   UNL     1      -4.525  -0.359  -1.146  0.00  0.00    +0.110 C 
ATOM     25 BR   UNL     1      -5.105  -1.905   4.518  0.00  0.00    -0.050 Br
ENDROOT
BRANCH  23  26
ATOM     26  N   UNL     1      -6.650   0.008  -2.089  0.00  0.00    -0.328 N 
ATOM     27  H   UNL     1      -7.483  -0.338  -2.447  0.00  0.00    +0.145 HD
ATOM     28  H   UNL     1      -6.500   0.965  -2.048  0.00  0.00    +0.145 HD
ENDBRANCH  23  26
BRANCH   1  30
ATOM     29  C   UNL     1      -0.019   1.526   0.010  0.00  0.00    +0.025 C 
ATOM     30  C   UNL     1       0.002  -0.004   0.002  0.00  0.00    +0.110 C 
ENDBRANCH   1  30
BRANCH  24  31
ATOM     31  C   UNL     1      -4.330   1.058  -1.095  0.00  0.00    +0.102 C 
ATOM     32  N   UNL     1      -4.175   2.183  -1.054  0.00  0.00    -0.191 NA
ENDBRANCH  24  31
TORSDOF 3
