REMARK  Name = ZINC05439107
REMARK  6 active torsions:
REMARK  status: ('A' for Active; 'I' for Inactive)
REMARK    1  A    between atoms: C_4  and  C_7
REMARK    2  A    between atoms: C_10  and  C_13
REMARK    3  A    between atoms: C_13  and  N_59
REMARK    4  A    between atoms: C_14  and  N_59
REMARK    5  A    between atoms: C_24  and  N_26
REMARK    6  A    between atoms: C_31  and  C_33
REMARK                            x       y       z     vdW  Elec       q    Type
REMARK                         _______ _______ _______ _____ _____    ______ ____
ROOT
ATOM      1  C   UNL     1      -0.802   1.987  -1.117  0.00  0.00    -0.013 C 
ATOM      2  C   UNL     1      -2.290   2.116  -0.726  0.00  0.00    +0.147 C 
ATOM      3  O   UNL     1      -2.737   3.330  -1.370  0.00  0.00    -0.374 OA
ATOM      4  C   UNL     1      -1.655   4.267  -1.199  0.00  0.00    +0.168 C 
ATOM      5  C   UNL     1      -0.367   3.432  -1.455  0.00  0.00    +0.137 C 
ATOM      6  O   UNL     1      -0.095   3.511  -2.857  0.00  0.00    -0.374 OA
ATOM      7  C   UNL     1      -0.823   4.580  -3.462  0.00  0.00    +0.185 C 
ATOM      8  C   UNL     1      -1.658   5.273  -2.366  0.00  0.00    +0.130 C 
ENDROOT
BRANCH   8   9
ATOM      9  N   UNL     1      -1.029   6.533  -1.960  0.00  0.00    -0.306 N 
ATOM     10  C   UNL     1      -1.359   7.711  -2.607  0.00  0.00    +0.216 A 
ATOM     11  N   UNL     1      -2.243   7.680  -3.595  0.00  0.00    -0.223 NA
ATOM     12  C   UNL     1      -2.590   8.786  -4.235  0.00  0.00    +0.116 A 
ATOM     13  C   UNL     1      -2.012   9.988  -3.873  0.00  0.00    +0.049 A 
ATOM     14  C   UNL     1      -1.078   9.991  -2.830  0.00  0.00    +0.083 A 
ATOM     15  N   UNL     1      -0.781   8.839  -2.226  0.00  0.00    -0.214 NA
ATOM     16  H   UNL     1      -0.382   6.540  -1.238  0.00  0.00    +0.149 HD
BRANCH  14  17
ATOM     17  C   UNL     1      -0.433  11.248  -2.405  0.00  0.00    +0.038 A 
ATOM     18  C   UNL     1       0.490  11.452  -1.412  0.00  0.00    +0.017 A 
ATOM     19  C   UNL     1       0.959  12.727  -1.197  0.00  0.00    +0.008 A 
ATOM     20  C   UNL     1       0.486  13.745  -1.965  0.00  0.00    +0.046 A 
ATOM     21  S   UNL     1      -0.657  12.899  -3.044  0.00  0.00    -0.095 S 
ENDBRANCH  14  17
ENDBRANCH   8   9
BRANCH   1  22
ATOM     22  N   UNL     1      -0.013   1.471   0.017  0.00  0.00    +0.387 N 
ATOM     23  H   UNL     1       0.950   1.820  -0.053  0.00  0.00    -0.085 HD
ATOM     24  H   UNL     1      -0.432   1.796   0.897  0.00  0.00    -0.085 HD
BRANCH  22  25
ATOM     25  C   UNL     1       0.002  -0.004   0.002  0.00  0.00    -0.046 C 
BRANCH  25  29
ATOM     26  C   UNL     1       2.304  -1.417   3.316  0.00  0.00    -0.018 A 
ATOM     27  C   UNL     1       0.935  -1.203   3.457  0.00  0.00    +0.009 A 
ATOM     28  C   UNL     1       0.196  -0.747   2.384  0.00  0.00    +0.002 A 
ATOM     29  C   UNL     1       0.814  -0.502   1.170  0.00  0.00    -0.064 A 
ATOM     30  C   UNL     1       2.172  -0.718   1.024  0.00  0.00    +0.002 A 
ATOM     31  C   UNL     1       2.921  -1.169   2.091  0.00  0.00    +0.009 A 
BRANCH  26  35
ATOM     32  C   UNL     1       4.594  -2.822   6.612  0.00  0.00    +0.000 A 
ATOM     33  C   UNL     1       5.211  -2.578   5.399  0.00  0.00    +0.001 A 
ATOM     34  C   UNL     1       4.473  -2.122   4.326  0.00  0.00    +0.008 A 
ATOM     35  C   UNL     1       3.103  -1.907   4.466  0.00  0.00    -0.018 A 
ATOM     36  C   UNL     1       2.488  -2.150   5.693  0.00  0.00    +0.008 A 
ATOM     37  C   UNL     1       3.235  -2.610   6.758  0.00  0.00    +0.001 A 
ENDBRANCH  26  35
ENDBRANCH  25  29
ENDBRANCH  22  25
ENDBRANCH   1  22
TORSDOF 6
