REMARK  Name = ZINC30147713
REMARK  10 active torsions:
REMARK  status: ('A' for Active; 'I' for Inactive)
REMARK    1  A    between atoms: C_1  and  C_2
REMARK    2  A    between atoms: C_2  and  O_3
REMARK    3  A    between atoms: O_3  and  C_4
REMARK    4  A    between atoms: C_4  and  C_6
REMARK    5  A    between atoms: C_7  and  C_30
REMARK    6  A    between atoms: C_10  and  N_11
REMARK    7  A    between atoms: C_12  and  C_14
REMARK    8  A    between atoms: C_14  and  C_16
REMARK    9  A    between atoms: C_14  and  N_17
REMARK   10  A    between atoms: C_23  and  C_25
REMARK                            x       y       z     vdW  Elec       q    Type
REMARK                         _______ _______ _______ _____ _____    ______ ____
ROOT
ATOM      1  N   UNL     1      -3.681   7.415  -1.653  0.00  0.00    -0.281 N 
ATOM      2  C   UNL     1      -3.917   8.714  -1.384  0.00  0.00    +0.204 C 
ATOM      3  O   UNL     1      -3.327   9.262  -0.477  0.00  0.00    -0.277 OA
ATOM      4  H   UNL     1      -4.217   6.918  -2.475  0.00  0.00    +0.155 HD
ENDROOT
BRANCH   1   9
ATOM      5  C   UNL     1      -2.393   5.373  -1.019  0.00  0.00    +0.096 A 
ATOM      6  C   UNL     1      -1.400   4.881  -0.081  0.00  0.00    +0.012 A 
ATOM      7  C   UNL     1      -0.933   5.771   0.835  0.00  0.00    +0.057 A 
ATOM      8  S   UNL     1      -1.812   7.268   0.437  0.00  0.00    -0.080 S 
ATOM      9  C   UNL     1      -2.765   6.705  -0.894  0.00  0.00    +0.086 A 
BRANCH   6  10
ATOM     10  C   UNL     1      -0.925   3.483  -0.117  0.00  0.00    +0.021 A 
ATOM     11  C   UNL     1       0.359   3.007  -0.123  0.00  0.00    +0.016 A 
ATOM     12  C   UNL     1       0.561   1.644  -0.159  0.00  0.00    +0.008 A 
ATOM     13  C   UNL     1      -0.515   0.817  -0.186  0.00  0.00    +0.046 A 
ATOM     14  S   UNL     1      -1.876   1.972  -0.168  0.00  0.00    -0.097 S 
ENDBRANCH   6  10
BRANCH   5  15
ATOM     15  C   UNL     1      -2.972   4.508  -2.046  0.00  0.00    +0.342 C 
ATOM     16  O   UNL     1      -3.981   3.871  -1.806  0.00  0.00    -0.245 OA
BRANCH  15  17
ATOM     17  O   UNL     1      -2.389   4.416  -3.259  0.00  0.00    -0.461 OA
BRANCH  17  19
ATOM     18  C   UNL     1      -2.212   3.578  -5.519  0.00  0.00    +0.048 C 
ATOM     19  C   UNL     1      -3.009   3.552  -4.213  0.00  0.00    +0.229 C 
ENDBRANCH  17  19
ENDBRANCH  15  17
ENDBRANCH   5  15
ENDBRANCH   1   9
BRANCH   2  20
ATOM     20  C   UNL     1      -4.914   9.486  -2.210  0.00  0.00    +0.017 C 
ATOM     21  C   UNL     1      -6.290   8.829  -2.093  0.00  0.00    -0.004 C 
BRANCH  20  22
ATOM     22  N   UNL     1      -4.988  10.869  -1.720  0.00  0.00    +0.389 N 
ATOM     23  C   UNL     1      -5.427  10.909  -0.319  0.00  0.00    -0.058 C 
ATOM     24  C   UNL     1      -5.318  12.344   0.206  0.00  0.00    +0.089 C 
ATOM     25  N   UNL     1      -6.059  13.232  -0.703  0.00  0.00    -0.299 N 
ATOM     26  C   UNL     1      -5.771  13.151  -2.143  0.00  0.00    +0.089 C 
ATOM     27  C   UNL     1      -5.862  11.684  -2.575  0.00  0.00    -0.058 C 
ATOM     28  C   UNL     1      -6.978  14.097  -0.229  0.00  0.00    +0.282 C 
ATOM     29  O   UNL     1      -7.531  14.872  -0.986  0.00  0.00    -0.267 OA
ATOM     30  H   UNL     1      -3.978  11.301  -1.767  0.00  0.00    -0.081 HD
BRANCH  28  31
ATOM     31  C   UNL     1      -7.310  14.104   1.200  0.00  0.00    +0.189 A 
ATOM     32  C   UNL     1      -8.306  14.829   1.788  0.00  0.00    +0.054 A 
ATOM     33  C   UNL     1      -8.265  14.532   3.159  0.00  0.00    +0.042 A 
ATOM     34  C   UNL     1      -7.259  13.649   3.345  0.00  0.00    +0.196 A 
ATOM     35  O   UNL     1      -6.689  13.390   2.162  0.00  0.00    -0.458 OA
ENDBRANCH  28  31
ENDBRANCH  20  22
ENDBRANCH   2  20
TORSDOF 8
