REMARK  Name = ZINC03241781
REMARK  6 active torsions:
REMARK  status: ('A' for Active; 'I' for Inactive)
REMARK    1  A    between atoms: C_1  and  C_2
REMARK    2  A    between atoms: C_3  and  C_15
REMARK    3  A    between atoms: N_5  and  C_7
REMARK    4  A    between atoms: N_16  and  N_17
REMARK    5  A    between atoms: C_18  and  C_20
REMARK    6  A    between atoms: C_20  and  N_21
REMARK                            x       y       z     vdW  Elec       q    Type
REMARK                         _______ _______ _______ _____ _____    ______ ____
ROOT
ATOM      1  C   UNL     1      -7.220   3.199  -3.139  0.00  0.00    +0.143 C 
ATOM      2  N   UNL     1      -5.962   3.421  -2.913  0.00  0.00    -0.188 NA
ENDROOT
BRANCH   1   5
ATOM      3  C   UNL     1     -10.224   2.668  -4.004  0.00  0.00    +0.068 C 
ATOM      4  C   UNL     1      -9.051   2.884  -4.925  0.00  0.00    +0.070 A 
ATOM      5  C   UNL     1      -7.717   3.119  -4.525  0.00  0.00    +0.054 A 
ATOM      6  C   UNL     1      -6.965   3.266  -5.674  0.00  0.00    +0.142 A 
ATOM      7  N   UNL     1      -7.803   3.119  -6.724  0.00  0.00    -0.221 N 
ATOM      8  N   UNL     1      -9.091   2.885  -6.230  0.00  0.00    -0.170 NA
ATOM      9 CL   UNL     1      -5.260   3.579  -5.755  0.00  0.00    -0.061 Cl
BRANCH   7  10
ATOM     10  C   UNL     1      -7.443   3.193  -8.077  0.00  0.00    +0.067 A 
ATOM     11  C   UNL     1      -6.454   4.077  -8.486  0.00  0.00    +0.030 A 
ATOM     12  C   UNL     1      -6.099   4.146  -9.819  0.00  0.00    +0.040 A 
ATOM     13  C   UNL     1      -6.734   3.340 -10.748  0.00  0.00    +0.124 A 
ATOM     14  C   UNL     1      -7.724   2.460 -10.343  0.00  0.00    +0.040 A 
ATOM     15  C   UNL     1      -8.079   2.386  -9.010  0.00  0.00    +0.030 A 
ATOM     16  F   UNL     1      -6.389   3.412 -12.052  0.00  0.00    -0.205 F 
ENDBRANCH   7  10
ENDBRANCH   1   5
BRANCH   2  17
ATOM     17  N   UNL     1      -5.489   3.497  -1.596  0.00  0.00    -0.205 N 
ATOM     18  C   UNL     1      -4.183   3.729  -1.361  0.00  0.00    +0.254 C 
ATOM     19  O   UNL     1      -3.415   3.871  -2.289  0.00  0.00    -0.272 OA
ATOM     20  H   UNL     1      -6.103   3.383  -0.853  0.00  0.00    +0.177 HD
BRANCH  18  21
ATOM     21  C   UNL     1      -3.675   3.810   0.056  0.00  0.00    +0.243 C 
BRANCH  21  22
ATOM     22  N   UNL     1      -2.233   4.067   0.044  0.00  0.00    -0.235 N 
ATOM     23  C   UNL     1      -1.230   3.127   0.030  0.00  0.00    +0.090 A 
ATOM     24  C   UNL     1      -1.209   1.737   0.017  0.00  0.00    +0.029 A 
ATOM     25  C   UNL     1      -0.013   1.076   0.008  0.00  0.00    +0.002 A 
ATOM     26  C   UNL     1       1.184   1.781   0.000  0.00  0.00    +0.002 A 
ATOM     27  C   UNL     1       1.191   3.145   0.007  0.00  0.00    +0.032 A 
ATOM     28  C   UNL     1      -0.022   3.847   0.022  0.00  0.00    +0.113 A 
ATOM     29  N   UNL     1      -0.328   5.160   0.032  0.00  0.00    -0.129 NA
ATOM     30  N   UNL     1      -1.604   5.321   0.044  0.00  0.00    -0.064 NA
ENDBRANCH  21  22
ENDBRANCH  18  21
ENDBRANCH   2  17
TORSDOF 5
