REMARK  Name = ZINC09696104
REMARK  9 active torsions:
REMARK  status: ('A' for Active; 'I' for Inactive)
REMARK    1  A    between atoms: C_1  and  O_2
REMARK    2  A    between atoms: O_2  and  C_3
REMARK    3  A    between atoms: C_8  and  C_9
REMARK    4  A    between atoms: N_11  and  C_12
REMARK    5  A    between atoms: C_12  and  N_14
REMARK    6  A    between atoms: N_14  and  N_15
REMARK    7  A    between atoms: C_16  and  C_18
REMARK    8  A    between atoms: C_18  and  O_19
REMARK    9  A    between atoms: O_19  and  C_20
REMARK                            x       y       z     vdW  Elec       q    Type
REMARK                         _______ _______ _______ _____ _____    ______ ____
ROOT
ATOM      1  N   UNL     1       5.211  -2.710  -0.065  0.00  0.00    -0.245 N 
ATOM      2  H   UNL     1       5.972  -2.108  -0.069  0.00  0.00    +0.172 HD
ENDROOT
BRANCH   1   3
ATOM      3  N   UNL     1       3.909  -2.193  -0.049  0.00  0.00    -0.232 N 
ATOM      4  C   UNL     1       3.713  -0.860  -0.040  0.00  0.00    +0.267 C 
ATOM      5  O   UNL     1       4.664  -0.107  -0.044  0.00  0.00    -0.271 OA
ATOM      6  H   UNL     1       3.148  -2.795  -0.045  0.00  0.00    +0.173 HD
BRANCH   4   7
ATOM      7  C   UNL     1       2.312  -0.304  -0.023  0.00  0.00    +0.326 C 
BRANCH   7   8
ATOM      8  O   UNL     1       2.366   1.123  -0.015  0.00  0.00    -0.481 OA
BRANCH   8   9
ATOM      9  C   UNL     1       1.179   1.786   0.000  0.00  0.00    +0.140 A 
ATOM     10  C   UNL     1      -0.013   1.076   0.008  0.00  0.00    +0.048 A 
ATOM     11  C   UNL     1      -1.218   1.751   0.017  0.00  0.00    +0.023 A 
ATOM     12  C   UNL     1      -1.238   3.134   0.031  0.00  0.00    +0.043 A 
ATOM     13  C   UNL     1      -0.051   3.845   0.023  0.00  0.00    +0.043 A 
ATOM     14  C   UNL     1       1.157   3.174   0.008  0.00  0.00    +0.084 A 
ATOM     15 CL   UNL     1       2.647   4.066  -0.002  0.00  0.00    -0.080 Cl
ATOM     16 CL   UNL     1      -2.754   3.979   0.049  0.00  0.00    -0.083 Cl
ENDBRANCH   8   9
ENDBRANCH   7   8
ENDBRANCH   4   7
ENDBRANCH   1   3
BRANCH   1  17
ATOM     17  C   UNL     1       5.407  -4.043  -0.074  0.00  0.00    +0.153 C 
ATOM     18  S   UNL     1       6.999  -4.674  -0.093  0.00  0.00    -0.017 S 
BRANCH  17  21
ATOM     19  C   UNL     1       4.547  -6.213  -0.078  0.00  0.00    +0.253 C 
ATOM     20  O   UNL     1       5.677  -6.661  -0.092  0.00  0.00    -0.270 OA
ATOM     21  N   UNL     1       4.351  -4.880  -0.069  0.00  0.00    -0.263 N 
ATOM     22  H   UNL     1       3.449  -4.522  -0.058  0.00  0.00    +0.157 HD
BRANCH  19  28
ATOM     23  C   UNL     1       3.590  -8.516  -0.082  0.00  0.00    +0.132 A 
ATOM     24  C   UNL     1       2.495  -9.368  -0.076  0.00  0.00    +0.047 A 
ATOM     25  C   UNL     1       1.216  -8.850  -0.061  0.00  0.00    +0.019 A 
ATOM     26  C   UNL     1       1.014  -7.479  -0.051  0.00  0.00    +0.019 A 
ATOM     27  C   UNL     1       2.090  -6.618  -0.051  0.00  0.00    +0.032 A 
ATOM     28  C   UNL     1       3.391  -7.128  -0.072  0.00  0.00    +0.080 A 
ATOM     29 BR   UNL     1      -0.746  -6.787  -0.029  0.00  0.00    -0.050 Br
BRANCH  23  31
ATOM     30  C   UNL     1       4.973 -10.447  -0.107  0.00  0.00    +0.277 C 
ATOM     31  O   UNL     1       4.848  -9.023  -0.098  0.00  0.00    -0.494 OA
ENDBRANCH  23  31
ENDBRANCH  19  28
ENDBRANCH  17  21
ENDBRANCH   1  17
TORSDOF 8
