REMARK  Name = ZINC25247830
REMARK  4 active torsions:
REMARK  status: ('A' for Active; 'I' for Inactive)
REMARK    1  A    between atoms: N_13  and  C_17
REMARK    2  A    between atoms: C_17  and  C_18
REMARK    3  A    between atoms: N_20  and  C_21
REMARK    4  A    between atoms: C_21  and  C_22
REMARK                            x       y       z     vdW  Elec       q    Type
REMARK                         _______ _______ _______ _____ _____    ______ ____
ROOT
ATOM      1  C   UNL     1       4.168   7.707  -2.778  0.00  0.00    +0.231 C 
ATOM      2  O   UNL     1       5.048   7.936  -1.975  0.00  0.00    -0.274 OA
ATOM      3  N   UNL     1       3.261   6.742  -2.527  0.00  0.00    -0.314 N 
ATOM      4  H   UNL     1       2.463   6.535  -3.255  0.00  0.00    +0.149 HD
ENDROOT
BRANCH   1   5
ATOM      5  C   UNL     1       4.089   8.502  -4.056  0.00  0.00    +0.213 C 
BRANCH   5  18
ATOM      6  C   UNL     1      10.500   9.816  -1.833  0.00  0.00    +0.000 A 
ATOM      7  C   UNL     1       9.212   9.869  -1.334  0.00  0.00    +0.000 A 
ATOM      8  C   UNL     1       8.155  10.099  -2.189  0.00  0.00    +0.006 A 
ATOM      9  C   UNL     1       8.373  10.279  -3.549  0.00  0.00    -0.012 A 
ATOM     10  C   UNL     1       9.657  10.230  -4.045  0.00  0.00    -0.042 A 
ATOM     11  C   UNL     1      10.720   9.996  -3.183  0.00  0.00    +0.004 A 
ATOM     12  C   UNL     1       9.965  10.422  -5.507  0.00  0.00    +0.035 C 
ATOM     13  C   UNL     1       8.712  10.217  -6.355  0.00  0.00    +0.008 C 
ATOM     14  C   UNL     1       7.589  11.090  -5.781  0.00  0.00    +0.040 C 
ATOM     15  C   UNL     1       7.179  10.521  -4.429  0.00  0.00    +0.138 C 
ATOM     16  C   UNL     1       6.398   9.239  -4.614  0.00  0.00    +0.251 C 
ATOM     17  O   UNL     1       6.786   8.211  -5.126  0.00  0.00    -0.272 OA
ATOM     18  N   UNL     1       5.178   9.481  -4.090  0.00  0.00    -0.215 N 
ATOM     19  C   UNL     1       5.085  10.727  -3.611  0.00  0.00    +0.310 C 
ATOM     20  O   UNL     1       4.082  11.180  -3.095  0.00  0.00    -0.252 OA
ATOM     21  N   UNL     1       6.229  11.422  -3.762  0.00  0.00    -0.281 N 
ATOM     22  H   UNL     1       6.535  12.445  -3.496  0.00  0.00    +0.152 HD
ENDBRANCH   5  18
ENDBRANCH   1   5
BRANCH   3  23
ATOM     23  C   UNL     1       3.338   5.970  -1.285  0.00  0.00    +0.108 C 
BRANCH  23  24
ATOM     24  C   UNL     1       2.200   4.947  -1.249  0.00  0.00    +0.019 C 
ATOM     25  C   UNL     1       0.865   5.688  -1.232  0.00  0.00    +0.018 C 
ATOM     26  C   UNL     1       0.046   5.338   0.031  0.00  0.00    +0.050 C 
ATOM     27  C   UNL     1      -0.077   3.822   0.023  0.00  0.00    -0.036 A 
ATOM     28  C   UNL     1      -1.257   3.135   0.030  0.00  0.00    +0.004 A 
ATOM     29  C   UNL     1      -1.222   1.746   0.017  0.00  0.00    +0.000 A 
ATOM     30  C   UNL     1      -0.013   1.076   0.008  0.00  0.00    +0.000 A 
ATOM     31  C   UNL     1       1.183   1.782   0.000  0.00  0.00    +0.004 A 
ATOM     32  C   UNL     1       1.142   3.147   0.008  0.00  0.00    -0.036 A 
ATOM     33  C   UNL     1       2.362   4.054   0.001  0.00  0.00    +0.054 C 
ATOM     34  C   UNL     1       2.176   4.985   1.189  0.00  0.00    -0.036 A 
ATOM     35  C   UNL     1       0.957   5.660   1.205  0.00  0.00    -0.036 A 
ATOM     36  C   UNL     1       0.653   6.529   2.213  0.00  0.00    +0.004 A 
ATOM     37  C   UNL     1       1.581   6.729   3.227  0.00  0.00    +0.000 A 
ATOM     38  C   UNL     1       2.791   6.059   3.211  0.00  0.00    +0.000 A 
ATOM     39  C   UNL     1       3.093   5.177   2.182  0.00  0.00    +0.004 A 
ENDBRANCH  23  24
ENDBRANCH   3  23
TORSDOF 4
