REMARK  Name = ZINC12572746
REMARK  9 active torsions:
REMARK  status: ('A' for Active; 'I' for Inactive)
REMARK    1  A    between atoms: C_1  and  C_2
REMARK    2  A    between atoms: C_7  and  O_8
REMARK    3  A    between atoms: O_8  and  C_9
REMARK    4  A    between atoms: C_9  and  C_10
REMARK    5  A    between atoms: N_12  and  C_13
REMARK    6  A    between atoms: C_13  and  N_15
REMARK    7  A    between atoms: N_15  and  N_16
REMARK    8  A    between atoms: C_17  and  O_19
REMARK    9  A    between atoms: O_19  and  C_20
REMARK                            x       y       z     vdW  Elec       q    Type
REMARK                         _______ _______ _______ _____ _____    ______ ____
ROOT
ATOM      1  C   UNL     1      -0.742   1.585  -1.213  0.00  0.00    +0.256 C 
ATOM      2  O   UNL     1      -1.736   2.268  -1.089  0.00  0.00    -0.272 OA
ATOM      3  N   UNL     1      -0.288   1.272  -2.443  0.00  0.00    -0.264 N 
ATOM      4  H   UNL     1       0.507   0.726  -2.543  0.00  0.00    +0.157 HD
ENDROOT
BRANCH   3   5
ATOM      5  C   UNL     1      -0.940   1.719  -3.535  0.00  0.00    +0.153 C 
ATOM      6  S   UNL     1      -2.344   2.683  -3.359  0.00  0.00    -0.017 S 
BRANCH   5   7
ATOM      7  N   UNL     1      -0.487   1.406  -4.765  0.00  0.00    -0.243 N 
ATOM      8  H   UNL     1      -0.956   1.727  -5.551  0.00  0.00    +0.172 HD
BRANCH   7   9
ATOM      9  N   UNL     1       0.661   0.617  -4.909  0.00  0.00    -0.200 N 
ATOM     10  C   UNL     1       1.115   0.304  -6.139  0.00  0.00    +0.416 C 
ATOM     11  O   UNL     1       2.111  -0.380  -6.264  0.00  0.00    -0.225 OA
ATOM     12  H   UNL     1       1.131   0.296  -4.123  0.00  0.00    +0.176 HD
BRANCH  10  13
ATOM     13  O   UNL     1       0.463   0.750  -7.230  0.00  0.00    -0.453 OA
ATOM     14  C   UNL     1       1.008   0.374  -8.522  0.00  0.00    +0.282 C 
ENDBRANCH  10  13
ENDBRANCH   7   9
ENDBRANCH   5   7
ENDBRANCH   3   5
BRANCH   1  15
ATOM     15  C   UNL     1      -0.013   1.086   0.008  0.00  0.00    +0.325 C 
BRANCH  15  16
ATOM     16  O   UNL     1      -0.682   1.547   1.184  0.00  0.00    -0.481 OA
BRANCH  16  23
ATOM     17  C   UNL     1       1.249   3.263   2.326  0.00  0.00    +0.047 C 
ATOM     18  C   UNL     1       0.803   1.985   2.990  0.00  0.00    -0.007 A 
ATOM     19  C   UNL     1       1.343   1.613   4.206  0.00  0.00    +0.022 A 
ATOM     20  C   UNL     1       0.936   0.440   4.816  0.00  0.00    +0.019 A 
ATOM     21  C   UNL     1      -0.014  -0.363   4.210  0.00  0.00    +0.034 A 
ATOM     22  C   UNL     1      -0.561   0.008   2.995  0.00  0.00    +0.061 A 
ATOM     23  C   UNL     1      -0.149   1.182   2.380  0.00  0.00    +0.138 A 
ATOM     24 BR   UNL     1      -1.864  -1.086   2.171  0.00  0.00    -0.046 Br
ATOM     25 BR   UNL     1       1.677  -0.066   6.480  0.00  0.00    -0.050 Br
ENDBRANCH  16  23
ENDBRANCH  15  16
ENDBRANCH   1  15
TORSDOF 7
