REMARK  Name = ZINC44737021
REMARK  9 active torsions:
REMARK  status: ('A' for Active; 'I' for Inactive)
REMARK    1  A    between atoms: C_1  and  C_2
REMARK    2  A    between atoms: C_2  and  C_3
REMARK    3  A    between atoms: C_3  and  C_4
REMARK    4  A    between atoms: C_4  and  C_5
REMARK    5  A    between atoms: C_9  and  C_18
REMARK    6  A    between atoms: N_20  and  C_21
REMARK    7  A    between atoms: C_21  and  C_23
REMARK    8  A    between atoms: C_21  and  C_24
REMARK    9  A    between atoms: C_29  and  C_33
REMARK                            x       y       z     vdW  Elec       q    Type
REMARK                         _______ _______ _______ _____ _____    ______ ____
ROOT
ATOM      1  C   UNL     1       1.399  -2.550  -2.194  0.00  0.00    +0.216 C 
ATOM      2  O   UNL     1       1.837  -1.680  -2.916  0.00  0.00    -0.276 OA
ATOM      3  N   UNL     1       1.556  -3.846  -2.529  0.00  0.00    -0.300 N 
ATOM      4  C   UNL     1       1.088  -5.039  -1.785  0.00  0.00    +0.121 C 
ATOM      5  C   UNL     1       0.600  -6.015  -2.880  0.00  0.00    +0.100 C 
ATOM      6  C   UNL     1       1.358  -5.591  -4.149  0.00  0.00    -0.004 C 
ATOM      7  C   UNL     1       2.229  -4.400  -3.728  0.00  0.00    +0.115 C 
ATOM      8  C   UNL     1       0.374  -5.160  -5.233  0.00  0.00    -0.010 C 
ATOM      9  C   UNL     1       1.148  -4.799  -6.503  0.00  0.00    -0.082 C 
ATOM     10  N   UNL     1       1.924  -5.960  -6.953  0.00  0.00    +0.379 N 
ATOM     11  C   UNL     1       2.931  -6.311  -5.944  0.00  0.00    -0.082 C 
ATOM     12  C   UNL     1       2.232  -6.737  -4.649  0.00  0.00    -0.010 C 
ATOM     13  H   UNL     1       1.304  -6.744  -7.094  0.00  0.00    -0.086 HD
ATOM     14  H   UNL     1       2.385  -5.739  -7.823  0.00  0.00    -0.086 HD
ENDROOT
BRANCH   5  15
ATOM     15  C   UNL     1      -0.887  -5.875  -3.082  0.00  0.00    +0.219 C 
ATOM     16  O   UNL     1      -1.428  -4.807  -2.888  0.00  0.00    -0.275 OA
ATOM     17  N   UNL     1      -1.616  -6.938  -3.479  0.00  0.00    -0.305 N 
ATOM     18  H   UNL     1      -1.183  -7.792  -3.634  0.00  0.00    +0.149 HD
BRANCH  17  19
ATOM     19  C   UNL     1      -3.061  -6.802  -3.675  0.00  0.00    +0.136 C 
ATOM     20  C   UNL     1      -3.778  -6.995  -2.338  0.00  0.00    +0.036 C 
BRANCH  19  21
ATOM     21  C   UNL     1      -3.535  -7.845  -4.654  0.00  0.00    +0.128 A 
ATOM     22  N   UNL     1      -2.942  -8.981  -4.878  0.00  0.00    -0.231 NA
ATOM     23  C   UNL     1      -3.631  -9.679  -5.816  0.00  0.00    +0.089 A 
ATOM     24  C   UNL     1      -3.447 -10.927  -6.418  0.00  0.00    +0.030 A 
ATOM     25  C   UNL     1      -4.337 -11.369  -7.356  0.00  0.00    +0.005 A 
ATOM     26  C   UNL     1      -5.426 -10.590  -7.721  0.00  0.00    -0.048 A 
ATOM     27  C   UNL     1      -5.628  -9.355  -7.141  0.00  0.00    +0.031 A 
ATOM     28  C   UNL     1      -4.734  -8.890  -6.185  0.00  0.00    +0.067 A 
ATOM     29  N   UNL     1      -4.649  -7.739  -5.428  0.00  0.00    -0.340 N 
ATOM     30  C   UNL     1      -6.394 -11.096  -8.758  0.00  0.00    +0.044 C 
ATOM     31  H   UNL     1      -5.267  -6.992  -5.447  0.00  0.00    +0.167 HD
ENDBRANCH  19  21
ENDBRANCH  17  19
ENDBRANCH   5  15
BRANCH   1  32
ATOM     32  C   UNL     1       0.678  -2.182  -0.923  0.00  0.00    +0.096 C 
BRANCH  32  33
ATOM     33  C   UNL     1       0.638  -0.659  -0.782  0.00  0.00    +0.009 C 
BRANCH  33  35
ATOM     34  C   UNL     1      -0.133   1.238   0.650  0.00  0.00    +0.004 C 
ATOM     35  C   UNL     1      -0.093  -0.285   0.509  0.00  0.00    -0.003 C 
ENDBRANCH  33  35
ENDBRANCH  32  33
ENDBRANCH   1  32
TORSDOF 6
