REMARK  Name = ZINC58544075
REMARK  8 active torsions:
REMARK  status: ('A' for Active; 'I' for Inactive)
REMARK    1  A    between atoms: C_4  and  N_26
REMARK    2  A    between atoms: C_5  and  N_7
REMARK    3  A    between atoms: N_7  and  C_8
REMARK    4  A    between atoms: C_8  and  C_9
REMARK    5  A    between atoms: C_9  and  C_10
REMARK    6  A    between atoms: N_12  and  C_13
REMARK    7  A    between atoms: N_17  and  C_18
REMARK    8  A    between atoms: C_18  and  C_19
REMARK                            x       y       z     vdW  Elec       q    Type
REMARK                         _______ _______ _______ _____ _____    ______ ____
ROOT
ATOM      1  C   UNL     1      -0.987  -4.999   1.135  0.00  0.00    +0.220 C 
ATOM      2  O   UNL     1      -2.049  -4.420   1.047  0.00  0.00    -0.275 OA
ATOM      3  N   UNL     1      -0.961  -6.323   1.388  0.00  0.00    -0.271 N 
ATOM      4  H   UNL     1      -0.112  -6.786   1.459  0.00  0.00    +0.156 HD
ENDROOT
BRANCH   3   5
ATOM      5  C   UNL     1      -2.155  -7.026   1.548  0.00  0.00    +0.123 A 
ATOM      6  C   UNL     1      -3.410  -6.507   1.470  0.00  0.00    +0.065 A 
ATOM      7  C   UNL     1      -4.318  -7.547   1.690  0.00  0.00    +0.136 A 
ATOM      8  N   UNL     1      -3.640  -8.648   1.893  0.00  0.00    -0.178 NA
ATOM      9  N   UNL     1      -2.275  -8.348   1.804  0.00  0.00    -0.246 N 
BRANCH   9  10
ATOM     10  C   UNL     1      -1.172  -9.299   1.964  0.00  0.00    +0.180 C 
BRANCH  10  11
ATOM     11  C   UNL     1      -0.765  -9.358   3.414  0.00  0.00    -0.026 A 
ATOM     12  C   UNL     1       0.206  -8.498   3.894  0.00  0.00    +0.007 A 
ATOM     13  C   UNL     1       0.580  -8.552   5.224  0.00  0.00    +0.020 A 
ATOM     14  C   UNL     1      -0.018  -9.465   6.074  0.00  0.00    +0.041 A 
ATOM     15  C   UNL     1      -0.989 -10.325   5.592  0.00  0.00    +0.020 A 
ATOM     16  C   UNL     1      -1.365 -10.267   4.264  0.00  0.00    +0.007 A 
ATOM     17 CL   UNL     1       0.452  -9.533   7.744  0.00  0.00    -0.084 Cl
ENDBRANCH  10  11
ENDBRANCH   9  10
ENDBRANCH   3   5
BRANCH   1  18
ATOM     18  C   UNL     1       0.302  -4.239   0.962  0.00  0.00    +0.115 C 
BRANCH  18  19
ATOM     19  C   UNL     1      -0.006  -2.766   0.686  0.00  0.00    +0.111 C 
BRANCH  19  20
ATOM     20  N   UNL     1       1.248  -2.028   0.518  0.00  0.00    -0.342 N 
ATOM     21  H   UNL     1       2.097  -2.491   0.588  0.00  0.00    +0.146 HD
BRANCH  20  26
ATOM     22  C   UNL     1      -0.010   1.389   0.014  0.00  0.00    +0.002 A 
ATOM     23  C   UNL     1       1.166   2.061  -0.265  0.00  0.00    +0.002 A 
ATOM     24  C   UNL     1       2.368   1.379  -0.285  0.00  0.00    +0.034 A 
ATOM     25  C   UNL     1       2.399   0.023  -0.026  0.00  0.00    +0.147 A 
ATOM     26  C   UNL     1       1.220  -0.656   0.255  0.00  0.00    +0.058 A 
ATOM     27  C   UNL     1       0.014   0.033   0.275  0.00  0.00    +0.025 A 
BRANCH  25  28
ATOM     28  N   UNL     1       3.687  -0.707  -0.048  0.00  0.00    +0.058 N 
ATOM     29  O   UNL     1       4.688  -0.179   0.376  0.00  0.00    -0.126 OA
ATOM     30  O   UNL     1       3.737  -1.831  -0.489  0.00  0.00    -0.126 OA
ENDBRANCH  25  28
ENDBRANCH  20  26
ENDBRANCH  19  20
ENDBRANCH  18  19
ENDBRANCH   1  18
TORSDOF 8
