REMARK  Name = ZINC16050443
REMARK  11 active torsions:
REMARK  status: ('A' for Active; 'I' for Inactive)
REMARK    1  A    between atoms: C_1  and  C_2
REMARK    2  A    between atoms: C_2  and  O_3
REMARK    3  A    between atoms: O_3  and  C_4
REMARK    4  A    between atoms: C_4  and  C_6
REMARK    5  A    between atoms: C_7  and  C_19
REMARK    6  A    between atoms: C_12  and  C_14
REMARK    7  A    between atoms: C_19  and  O_20
REMARK    8  A    between atoms: O_20  and  C_21
REMARK    9  A    between atoms: C_21  and  C_23
REMARK   10  A    between atoms: C_25  and  C_34
REMARK   11  A    between atoms: C_30  and  C_33
REMARK                            x       y       z     vdW  Elec       q    Type
REMARK                         _______ _______ _______ _____ _____    ______ ____
ROOT
ATOM      1  C   UNL     1      -0.738   2.740  -1.129  0.00  0.00    +0.082 C 
ATOM      2  C   UNL     1      -1.963   2.402  -1.583  0.00  0.00    +0.061 C 
ATOM      3  N   UNL     1      -2.756   1.532  -0.891  0.00  0.00    -0.269 N 
ATOM      4  C   UNL     1      -2.396   0.956   0.263  0.00  0.00    +0.304 C 
ATOM      5  O   UNL     1      -3.170   0.193   0.807  0.00  0.00    -0.252 OA
ATOM      6  N   UNL     1      -1.202   1.195   0.842  0.00  0.00    -0.288 N 
ATOM      7  C   UNL     1      -0.272   2.121   0.174  0.00  0.00    +0.150 C 
ATOM      8  H   UNL     1      -3.629   1.318  -1.256  0.00  0.00    +0.156 HD
ATOM      9  H   UNL     1      -0.961   0.767   1.678  0.00  0.00    +0.151 HD
ENDROOT
BRANCH   7  10
ATOM     10  C   UNL     1       0.039   3.240   1.134  0.00  0.00    +0.015 A 
ATOM     11  C   UNL     1       1.234   3.815   1.416  0.00  0.00    +0.013 A 
ATOM     12  C   UNL     1       1.282   4.840   2.343  0.00  0.00    +0.008 A 
ATOM     13  C   UNL     1       0.134   5.239   2.943  0.00  0.00    +0.045 A 
ATOM     14  S   UNL     1      -1.071   4.157   2.191  0.00  0.00    -0.099 S 
ENDBRANCH   7  10
BRANCH   1  15
ATOM     15  C   UNL     1       0.084   3.642  -1.845  0.00  0.00    +0.339 C 
ATOM     16  O   UNL     1      -0.350   4.209  -2.830  0.00  0.00    -0.245 OA
BRANCH  15  17
ATOM     17  O   UNL     1       1.349   3.873  -1.435  0.00  0.00    -0.462 OA
BRANCH  17  19
ATOM     18  C   UNL     1       3.517   4.927  -1.594  0.00  0.00    +0.048 C 
ATOM     19  C   UNL     1       2.122   4.795  -2.206  0.00  0.00    +0.229 C 
ENDBRANCH  17  19
ENDBRANCH  15  17
ENDBRANCH   1  15
BRANCH   2  20
ATOM     20  C   UNL     1      -2.464   2.994  -2.875  0.00  0.00    +0.283 C 
BRANCH  20  21
ATOM     21  O   UNL     1      -3.746   2.401  -3.214  0.00  0.00    -0.455 OA
BRANCH  21  22
ATOM     22  C   UNL     1      -4.334   2.825  -4.349  0.00  0.00    +0.340 C 
ATOM     23  O   UNL     1      -3.792   3.667  -5.037  0.00  0.00    -0.245 OA
BRANCH  22  24
ATOM     24  C   UNL     1      -5.640   2.266  -4.758  0.00  0.00    +0.070 A 
ATOM     25  C   UNL     1      -6.336   1.391  -3.934  0.00  0.00    +0.038 A 
ATOM     26  C   UNL     1      -7.564   0.883  -4.351  0.00  0.00    +0.040 A 
ATOM     27  N   UNL     1      -8.089   1.207  -5.507  0.00  0.00    -0.252 NA
ATOM     28  C   UNL     1      -7.478   2.042  -6.350  0.00  0.00    +0.072 A 
ATOM     29  C   UNL     1      -6.227   2.609  -6.003  0.00  0.00    +0.015 A 
ATOM     30  C   UNL     1      -5.593   3.489  -6.890  0.00  0.00    +0.014 A 
ATOM     31  C   UNL     1      -6.189   3.795  -8.076  0.00  0.00    -0.050 A 
ATOM     32  C   UNL     1      -7.422   3.244  -8.420  0.00  0.00    +0.005 A 
ATOM     33  C   UNL     1      -8.059   2.376  -7.587  0.00  0.00    +0.028 A 
ATOM     34  C   UNL     1      -5.507   4.742  -9.030  0.00  0.00    +0.044 C 
ATOM     35  C   UNL     1      -8.309  -0.065  -3.448  0.00  0.00    +0.065 C 
ENDBRANCH  22  24
ENDBRANCH  21  22
ENDBRANCH  20  21
ENDBRANCH   2  20
TORSDOF 8
