REMARK  Name = ZINC12298166
REMARK  7 active torsions:
REMARK  status: ('A' for Active; 'I' for Inactive)
REMARK    1  A    between atoms: C_4  and  C_7
REMARK    2  A    between atoms: C_7  and  C_8
REMARK    3  A    between atoms: C_8  and  C_9
REMARK    4  A    between atoms: C_9  and  N_65
REMARK    5  A    between atoms: C_12  and  N_67
REMARK    6  A    between atoms: C_17  and  C_20
REMARK    7  A    between atoms: N_22  and  C_23
REMARK                            x       y       z     vdW  Elec       q    Type
REMARK                         _______ _______ _______ _____ _____    ______ ____
ROOT
ATOM      1  C   UNL     1       1.315  -2.181   3.489  0.00  0.00    -0.080 C 
ATOM      2  C   UNL     1       1.241  -2.586   4.963  0.00  0.00    -0.034 C 
ATOM      3  C   UNL     1       1.012  -4.096   5.061  0.00  0.00    -0.072 C 
ATOM      4  C   UNL     1      -0.273  -4.459   4.311  0.00  0.00    -0.034 C 
ATOM      5  C   UNL     1      -0.155  -4.000   2.856  0.00  0.00    -0.080 C 
ATOM      6  N   UNL     1       0.041  -2.535   2.829  0.00  0.00    +0.380 N 
ATOM      7  H   UNL     1      -0.732  -2.087   3.336  0.00  0.00    -0.082 HD
ENDROOT
BRANCH   3  13
ATOM      8  C   UNL     1       0.438  -5.876   6.598  0.00  0.00    -0.078 C 
ATOM      9  C   UNL     1       0.173  -6.198   8.071  0.00  0.00    -0.006 C 
ATOM     10  C   UNL     1       1.457  -5.977   8.875  0.00  0.00    +0.071 C 
ATOM     11  C   UNL     1       1.924  -4.530   8.689  0.00  0.00    -0.006 C 
ATOM     12  C   UNL     1       2.138  -4.257   7.198  0.00  0.00    -0.078 C 
ATOM     13  N   UNL     1       0.860  -4.464   6.484  0.00  0.00    +0.382 N 
ATOM     14  H   UNL     1       0.141  -3.866   6.909  0.00  0.00    -0.081 HD
BRANCH  10  15
ATOM     15  C   UNL     1       1.189  -6.235  10.336  0.00  0.00    +0.216 C 
ATOM     16  O   UNL     1       1.355  -5.350  11.148  0.00  0.00    -0.276 OA
ATOM     17  N   UNL     1       0.765  -7.449  10.739  0.00  0.00    -0.310 N 
ATOM     18  H   UNL     1       0.633  -8.157  10.089  0.00  0.00    +0.149 HD
BRANCH  17  19
ATOM     19  C   UNL     1       0.504  -7.700  12.158  0.00  0.00    +0.101 C 
ATOM     20  C   UNL     1       0.647  -9.205  12.477  0.00  0.00    +0.052 C 
ATOM     21  C   UNL     1      -0.755  -9.617  12.977  0.00  0.00    +0.162 C 
ATOM     22  O   UNL     1      -1.654  -8.647  12.396  0.00  0.00    -0.378 OA
ATOM     23  C   UNL     1      -0.967  -7.381  12.503  0.00  0.00    +0.182 C 
ENDBRANCH  17  19
ENDBRANCH  10  15
ENDBRANCH   3  13
BRANCH   6  24
ATOM     24  C   UNL     1       0.043  -2.052   1.433  0.00  0.00    -0.079 C 
BRANCH  24  25
ATOM     25  C   UNL     1       0.023  -0.522   1.442  0.00  0.00    -0.014 C 
BRANCH  25  26
ATOM     26  C   UNL     1       0.002  -0.004   0.002  0.00  0.00    +0.033 C 
BRANCH  26  30
ATOM     27  C   UNL     1      -0.056   4.267   0.025  0.00  0.00    +0.000 A 
ATOM     28  C   UNL     1       1.151   3.592   0.010  0.00  0.00    +0.000 A 
ATOM     29  C   UNL     1       1.169   2.210   0.003  0.00  0.00    +0.003 A 
ATOM     30  C   UNL     1      -0.018   1.503   0.010  0.00  0.00    -0.047 A 
ATOM     31  C   UNL     1      -1.225   2.178   0.020  0.00  0.00    +0.003 A 
ATOM     32  C   UNL     1      -1.244   3.560   0.032  0.00  0.00    +0.000 A 
ENDBRANCH  26  30
ENDBRANCH  25  26
ENDBRANCH  24  25
ENDBRANCH   6  24
TORSDOF 7
