REMARK  Name = ZINC50579942
REMARK  7 active torsions:
REMARK  status: ('A' for Active; 'I' for Inactive)
REMARK    1  A    between atoms: C_1  and  C_2
REMARK    2  A    between atoms: C_2  and  C_3
REMARK    3  A    between atoms: C_2  and  N_19
REMARK    4  A    between atoms: C_6  and  N_9
REMARK    5  A    between atoms: N_12  and  C_13
REMARK    6  A    between atoms: C_20  and  C_22
REMARK    7  A    between atoms: C_23  and  C_24
REMARK                            x       y       z     vdW  Elec       q    Type
REMARK                         _______ _______ _______ _____ _____    ______ ____
ROOT
ATOM      1  C   UNL     1      -1.645   0.056  -0.201  0.00  0.00    -0.027 A 
ATOM      2  C   UNL     1      -2.512   0.136  -1.274  0.00  0.00    +0.007 A 
ATOM      3  C   UNL     1      -3.744  -0.487  -1.218  0.00  0.00    +0.023 A 
ATOM      4  C   UNL     1      -4.110  -1.194  -0.080  0.00  0.00    +0.035 A 
ATOM      5  C   UNL     1      -3.237  -1.273   0.997  0.00  0.00    +0.023 A 
ATOM      6  C   UNL     1      -2.005  -0.652   0.931  0.00  0.00    +0.007 A 
ENDROOT
BRANCH   4   7
ATOM      7  N   UNL     1      -5.357  -1.827  -0.019  0.00  0.00    -0.269 N 
ATOM      8  C   UNL     1      -5.907  -2.341  -1.137  0.00  0.00    +0.308 C 
ATOM      9  O   UNL     1      -5.281  -2.339  -2.179  0.00  0.00    -0.252 OA
ATOM     10  N   UNL     1      -7.152  -2.856  -1.100  0.00  0.00    -0.269 N 
ATOM     11  H   UNL     1      -5.825  -1.895   0.827  0.00  0.00    +0.156 HD
ATOM     12  H   UNL     1      -7.681  -2.789  -0.289  0.00  0.00    +0.156 HD
BRANCH  10  13
ATOM     13  C   UNL     1      -7.683  -3.486  -2.231  0.00  0.00    +0.035 A 
ATOM     14  C   UNL     1      -6.849  -4.192  -3.089  0.00  0.00    +0.023 A 
ATOM     15  C   UNL     1      -7.376  -4.814  -4.204  0.00  0.00    +0.002 A 
ATOM     16  C   UNL     1      -8.731  -4.734  -4.467  0.00  0.00    +0.000 A 
ATOM     17  C   UNL     1      -9.563  -4.031  -3.615  0.00  0.00    +0.002 A 
ATOM     18  C   UNL     1      -9.044  -3.412  -2.495  0.00  0.00    +0.023 A 
ENDBRANCH  10  13
ENDBRANCH   4   7
BRANCH   1  20
ATOM     19  C   UNL     1      -0.471   2.227   0.037  0.00  0.00    +0.033 C 
ATOM     20  C   UNL     1      -0.302   0.737  -0.266  0.00  0.00    +0.100 C 
BRANCH  20  21
ATOM     21  N   UNL     1       0.264   0.573  -1.607  0.00  0.00    -0.305 N 
ATOM     22  C   UNL     1       1.599   0.628  -1.787  0.00  0.00    +0.237 C 
ATOM     23  O   UNL     1       2.334   0.815  -0.834  0.00  0.00    -0.271 OA
ATOM     24  H   UNL     1      -0.322   0.424  -2.366  0.00  0.00    +0.150 HD
BRANCH  22  25
ATOM     25  C   UNL     1       2.146   0.469  -3.084  0.00  0.00    +0.069 C 
ATOM     26  C   UNL     1       3.485   0.525  -3.264  0.00  0.00    +0.033 C 
BRANCH  26  27
ATOM     27  C   UNL     1       4.052   0.360  -4.607  0.00  0.00    +0.071 A 
ATOM     28  C   UNL     1       5.414   0.404  -4.841  0.00  0.00    +0.074 A 
ATOM     29  S   UNL     1       5.502   0.164  -6.502  0.00  0.00    -0.083 S 
ATOM     30  C   UNL     1       3.865   0.020  -6.844  0.00  0.00    +0.156 A 
ATOM     31  N   UNL     1       3.285   0.152  -5.683  0.00  0.00    -0.248 NA
ENDBRANCH  26  27
ENDBRANCH  22  25
ENDBRANCH  20  21
ENDBRANCH   1  20
TORSDOF 6
