REMARK  Name = ZINC59461197
REMARK  15 active torsions:
REMARK  status: ('A' for Active; 'I' for Inactive)
REMARK    1  A    between atoms: C_1  and  C_2
REMARK    2  A    between atoms: C_2  and  N_3
REMARK    3  A    between atoms: N_3  and  C_4
REMARK    4  A    between atoms: N_3  and  C_6
REMARK    5  A    between atoms: C_4  and  C_5
REMARK    6  A    between atoms: C_9  and  C_13
REMARK    7  A    between atoms: C_10  and  O_12
REMARK    8  A    between atoms: N_14  and  C_15
REMARK    9  A    between atoms: C_18  and  S_21
REMARK   10  A    between atoms: S_21  and  N_24
REMARK   11  A    between atoms: N_24  and  C_25
REMARK   12  A    between atoms: C_27  and  O_33
REMARK   13  A    between atoms: C_29  and  O_31
REMARK   14  A    between atoms: O_31  and  C_32
REMARK   15  A    between atoms: O_33  and  C_34
REMARK                            x       y       z     vdW  Elec       q    Type
REMARK                         _______ _______ _______ _____ _____    ______ ____
ROOT
ATOM      1  C   UNL     1      -2.381  -2.075  -8.124  0.00  0.00    +0.064 A 
ATOM      2  C   UNL     1      -3.600  -2.755  -8.060  0.00  0.00    +0.029 A 
ATOM      3  C   UNL     1      -4.321  -2.981  -9.214  0.00  0.00    +0.031 A 
ATOM      4  C   UNL     1      -3.840  -2.536 -10.433  0.00  0.00    +0.111 A 
ATOM      5  C   UNL     1      -2.634  -1.863 -10.504  0.00  0.00    +0.031 A 
ATOM      6  C   UNL     1      -1.905  -1.624  -9.357  0.00  0.00    +0.029 A 
ENDROOT
BRANCH   4   7
ATOM      7  S   UNL     1      -4.768  -2.830 -11.901  0.00  0.00    +0.093 S 
ATOM      8  O   UNL     1      -3.843  -2.796 -12.980  0.00  0.00    -0.148 OA
ATOM      9  O   UNL     1      -5.594  -3.957 -11.642  0.00  0.00    -0.148 OA
BRANCH   7  10
ATOM     10  N   UNL     1      -5.782  -1.537 -12.106  0.00  0.00    -0.078 NA
BRANCH  10  11
ATOM     11  C   UNL     1      -6.641  -1.496 -13.193  0.00  0.00    +0.173 A 
ATOM     12  C   UNL     1      -7.494  -0.410 -13.378  0.00  0.00    +0.114 A 
ATOM     13  C   UNL     1      -8.337  -0.413 -14.482  0.00  0.00    +0.222 A 
ATOM     14  N   UNL     1      -8.302  -1.444 -15.321  0.00  0.00    -0.160 NA
ATOM     15  C   UNL     1      -7.479  -2.459 -15.115  0.00  0.00    +0.323 A 
ATOM     16  N   UNL     1      -6.658  -2.490 -14.078  0.00  0.00    -0.176 NA
BRANCH  15  17
ATOM     17  O   UNL     1      -7.473  -3.491 -15.991  0.00  0.00    -0.466 OA
ATOM     18  C   UNL     1      -8.374  -3.409 -17.098  0.00  0.00    +0.280 C 
ENDBRANCH  15  17
BRANCH  13  19
ATOM     19  O   UNL     1      -9.184   0.622 -14.701  0.00  0.00    -0.479 OA
ATOM     20  C   UNL     1     -10.018   0.544 -15.859  0.00  0.00    +0.279 C 
ENDBRANCH  13  19
ENDBRANCH  10  11
ENDBRANCH   7  10
ENDBRANCH   4   7
BRANCH   1  22
ATOM     21  C   UNL     1      -2.262  -1.421  -5.906  0.00  0.00    +0.123 C 
ATOM     22  N   UNL     1      -1.661  -1.846  -6.983  0.00  0.00    -0.255 NA
BRANCH  21  26
ATOM     23  C   UNL     1      -0.036  -0.712  -2.369  0.00  0.00    +0.033 A 
ATOM     24  C   UNL     1      -1.412  -0.492  -2.387  0.00  0.00    +0.024 A 
ATOM     25  C   UNL     1      -2.131  -0.719  -3.525  0.00  0.00    +0.015 A 
ATOM     26  C   UNL     1      -1.489  -1.176  -4.682  0.00  0.00    +0.035 A 
ATOM     27  C   UNL     1      -0.102  -1.399  -4.668  0.00  0.00    +0.127 A 
ATOM     28  C   UNL     1       0.617  -1.160  -3.510  0.00  0.00    +0.069 A 
BRANCH  27  29
ATOM     29  O   UNL     1       0.530  -1.842  -5.784  0.00  0.00    -0.506 OA
ATOM     30  H   UNL     1       0.850  -1.135  -6.361  0.00  0.00    +0.292 HD
ENDBRANCH  27  29
BRANCH  23  31
ATOM     31  N   UNL     1       0.688  -0.476  -1.203  0.00  0.00    -0.330 N 
BRANCH  31  33
ATOM     32  C   UNL     1      -0.019   1.526   0.010  0.00  0.00    +0.024 C 
ATOM     33  C   UNL     1       0.002  -0.004   0.002  0.00  0.00    +0.102 C 
ENDBRANCH  31  33
BRANCH  31  34
ATOM     34  C   UNL     1       2.135  -0.701  -1.182  0.00  0.00    +0.102 C 
ATOM     35  C   UNL     1       2.421  -2.145  -0.763  0.00  0.00    +0.024 C 
ENDBRANCH  31  34
ENDBRANCH  23  31
ENDBRANCH  21  26
ENDBRANCH   1  22
TORSDOF 11
