REMARK  Name = ZINC44249480
REMARK  8 active torsions:
REMARK  status: ('A' for Active; 'I' for Inactive)
REMARK    1  A    between atoms: C_1  and  N_2
REMARK    2  A    between atoms: C_3  and  C_19
REMARK    3  A    between atoms: C_6  and  S_7
REMARK    4  A    between atoms: S_7  and  C_8
REMARK    5  A    between atoms: C_11  and  C_17
REMARK    6  A    between atoms: C_13  and  N_14
REMARK    7  A    between atoms: C_17  and  N_18
REMARK    8  A    between atoms: C_19  and  N_20
REMARK                            x       y       z     vdW  Elec       q    Type
REMARK                         _______ _______ _______ _____ _____    ______ ____
ROOT
ATOM      1  S   UNL     1       0.034  -0.347   2.779  0.00  0.00    -0.048 S 
ENDROOT
BRANCH   1   7
ATOM      2  C   UNL     1       0.157   1.440  -0.001  0.00  0.00    +0.152 C 
ATOM      3  N   UNL     1       0.267  -0.021   0.010  0.00  0.00    -0.307 N 
ATOM      4  C   UNL     1       0.436  -0.844  -1.069  0.00  0.00    +0.154 A 
ATOM      5  N   UNL     1       0.486  -2.066  -0.620  0.00  0.00    -0.132 NA
ATOM      6  N   UNL     1       0.361  -2.072   0.659  0.00  0.00    -0.122 NA
ATOM      7  C   UNL     1       0.228  -0.842   1.099  0.00  0.00    +0.196 A 
BRANCH   4   8
ATOM      8  C   UNL     1       0.545  -0.416  -2.510  0.00  0.00    +0.200 C 
BRANCH   8   9
ATOM      9  N   UNL     1       1.951  -0.172  -2.842  0.00  0.00    -0.313 N 
ATOM     10  C   UNL     1       2.588   1.019  -2.808  0.00  0.00    +0.202 A 
ATOM     11  N   UNL     1       3.830   0.841  -3.168  0.00  0.00    -0.223 NA
ATOM     12  C   UNL     1       4.029  -0.457  -3.444  0.00  0.00    +0.166 A 
ATOM     13  C   UNL     1       2.867  -1.110  -3.240  0.00  0.00    +0.148 A 
ATOM     14 CL   UNL     1       2.585  -2.811  -3.446  0.00  0.00    -0.061 Cl
ATOM     15 CL   UNL     1       5.524  -1.172  -3.964  0.00  0.00    -0.059 Cl
ENDBRANCH   8   9
ENDBRANCH   4   8
ENDBRANCH   1   7
BRANCH   1  16
ATOM     16  C   UNL     1      -0.086  -1.867   3.661  0.00  0.00    +0.046 A 
ATOM     17  C   UNL     1       1.004  -2.341   4.382  0.00  0.00    +0.017 A 
ATOM     18  C   UNL     1       0.906  -3.533   5.073  0.00  0.00    +0.003 A 
ATOM     19  C   UNL     1      -0.273  -4.255   5.047  0.00  0.00    -0.063 A 
ATOM     20  C   UNL     1      -1.359  -3.786   4.330  0.00  0.00    +0.035 A 
ATOM     21  C   UNL     1      -1.271  -2.592   3.643  0.00  0.00    +0.140 A 
BRANCH  21  22
ATOM     22  N   UNL     1      -2.436  -2.088   2.881  0.00  0.00    +0.058 N 
ATOM     23  O   UNL     1      -3.467  -2.719   2.865  0.00  0.00    -0.126 OA
ATOM     24  O   UNL     1      -2.356  -1.045   2.275  0.00  0.00    -0.126 OA
ENDBRANCH  21  22
BRANCH  19  25
ATOM     25  C   UNL     1      -0.375  -5.555   5.802  0.00  0.00    -0.051 C 
BRANCH  25  26
ATOM     26  N   UNL     1      -0.852  -5.293   7.167  0.00  0.00    +0.381 N 
ATOM     27  H   UNL     1      -0.202  -4.681   7.638  0.00  0.00    -0.090 HD
ATOM     28  H   UNL     1      -1.760  -4.855   7.128  0.00  0.00    -0.090 HD
ATOM     29  H   UNL     1      -0.920  -6.164   7.672  0.00  0.00    -0.090 HD
ENDBRANCH  25  26
ENDBRANCH  19  25
ENDBRANCH   1  16
TORSDOF 7
