REMARK  Name = ZINC10058478
REMARK  11 active torsions:
REMARK  status: ('A' for Active; 'I' for Inactive)
REMARK    1  A    between atoms: C_1  and  C_2
REMARK    2  A    between atoms: C_2  and  N_3
REMARK    3  A    between atoms: C_7  and  C_9
REMARK    4  A    between atoms: C_9  and  C_11
REMARK    5  A    between atoms: C_9  and  S_12
REMARK    6  A    between atoms: S_12  and  C_13
REMARK    7  A    between atoms: N_26  and  C_27
REMARK    8  A    between atoms: C_27  and  C_28
REMARK    9  A    between atoms: C_28  and  C_29
REMARK   10  A    between atoms: C_29  and  C_30
REMARK   11  A    between atoms: C_29  and  C_31
REMARK                            x       y       z     vdW  Elec       q    Type
REMARK                         _______ _______ _______ _____ _____    ______ ____
ROOT
ATOM      1  C   UNL     1       0.002  -0.004   0.002  0.00  0.00    +0.198 A 
ATOM      2  N   UNL     1       1.073  -0.760  -0.018  0.00  0.00    -0.120 NA
ATOM      3  N   UNL     1       0.659  -2.098  -0.015  0.00  0.00    -0.109 NA
ATOM      4  C   UNL     1      -0.655  -2.119  -0.003  0.00  0.00    +0.240 A 
ATOM      5  N   UNL     1      -1.094  -0.824   0.008  0.00  0.00    -0.256 N 
ATOM      6  C   UNL     1      -2.458  -0.539   0.022  0.00  0.00    +0.064 A 
ATOM      7  C   UNL     1      -2.914   0.771   0.035  0.00  0.00    +0.027 A 
ATOM      8  C   UNL     1      -4.271   1.026   0.051  0.00  0.00    +0.002 A 
ATOM      9  C   UNL     1      -5.184  -0.017   0.054  0.00  0.00    +0.001 A 
ATOM     10  C   UNL     1      -4.749  -1.325   0.043  0.00  0.00    +0.015 A 
ATOM     11  C   UNL     1      -3.381  -1.595   0.027  0.00  0.00    +0.064 A 
ATOM     12  C   UNL     1      -2.875  -2.980   0.015  0.00  0.00    +0.263 A 
ATOM     13  O   UNL     1      -3.646  -3.921   0.018  0.00  0.00    -0.267 OA
ATOM     14  N   UNL     1      -1.542  -3.185   0.000  0.00  0.00    -0.277 N 
ENDROOT
BRANCH   1  15
ATOM     15  S   UNL     1      -0.022   1.758   0.012  0.00  0.00    -0.073 S 
BRANCH  15  16
ATOM     16  C   UNL     1       1.732   2.220  -0.003  0.00  0.00    +0.137 C 
ATOM     17  C   UNL     1       2.368   1.768  -1.319  0.00  0.00    +0.029 C 
BRANCH  16  22
ATOM     18  N   UNL     1       4.293   6.144   1.071  0.00  0.00    -0.299 N 
ATOM     19  C   UNL     1       3.132   5.599   0.658  0.00  0.00    +0.306 C 
ATOM     20  O   UNL     1       2.186   6.315   0.391  0.00  0.00    -0.252 OA
ATOM     21  N   UNL     1       3.019   4.262   0.541  0.00  0.00    -0.239 N 
ATOM     22  C   UNL     1       1.858   3.716   0.128  0.00  0.00    +0.233 C 
ATOM     23  O   UNL     1       0.915   4.430  -0.138  0.00  0.00    -0.274 OA
ATOM     24  H   UNL     1       5.048   5.574   1.284  0.00  0.00    +0.150 HD
ATOM     25  H   UNL     1       3.774   3.691   0.754  0.00  0.00    +0.159 HD
BRANCH  18  27
ATOM     26  C   UNL     1       5.824   7.952   1.681  0.00  0.00    +0.024 C 
ATOM     27  C   UNL     1       4.416   7.599   1.198  0.00  0.00    +0.102 C 
ENDBRANCH  18  27
ENDBRANCH  16  22
ENDBRANCH  15  16
ENDBRANCH   1  15
BRANCH  14  28
ATOM     28  C   UNL     1      -1.024  -4.555  -0.012  0.00  0.00    +0.128 C 
BRANCH  28  29
ATOM     29  C   UNL     1      -0.829  -5.040   1.426  0.00  0.00    +0.025 C 
BRANCH  29  30
ATOM     30  C   UNL     1      -0.287  -6.470   1.413  0.00  0.00    -0.016 C 
ATOM     31  C   UNL     1       1.110  -6.481   0.790  0.00  0.00    +0.007 C 
ATOM     32  C   UNL     1      -0.210  -6.999   2.847  0.00  0.00    +0.007 C 
ENDBRANCH  29  30
ENDBRANCH  28  29
ENDBRANCH  14  28
TORSDOF 7
