REMARK  Name = ZINC24210600
REMARK  7 active torsions:
REMARK  status: ('A' for Active; 'I' for Inactive)
REMARK    1  A    between atoms: C_1  and  C_2
REMARK    2  A    between atoms: C_2  and  C_4
REMARK    3  A    between atoms: C_9  and  N_10
REMARK    4  A    between atoms: C_11  and  C_13
REMARK    5  A    between atoms: C_13  and  O_14
REMARK    6  A    between atoms: O_14  and  C_15
REMARK    7  A    between atoms: C_15  and  C_17
REMARK                            x       y       z     vdW  Elec       q    Type
REMARK                         _______ _______ _______ _____ _____    ______ ____
ROOT
ATOM      1  N   UNL     1      -2.653   3.790  -0.006  0.00  0.00    -0.282 N 
ATOM      2  C   UNL     1      -2.779   5.129   0.071  0.00  0.00    +0.255 C 
ATOM      3  O   UNL     1      -1.790   5.832   0.063  0.00  0.00    -0.272 OA
ATOM      4  H   UNL     1      -3.549   3.157  -0.091  0.00  0.00    +0.155 HD
ENDROOT
BRANCH   1  10
ATOM      5  C   UNL     1      -1.179   1.947  -0.570  0.00  0.00    +0.042 A 
ATOM      6  C   UNL     1       0.097   1.366  -0.531  0.00  0.00    +0.062 A 
ATOM      7  C   UNL     1       1.138   2.032   0.077  0.00  0.00    +0.167 A 
ATOM      8  C   UNL     1       0.927   3.285   0.660  0.00  0.00    +0.168 A 
ATOM      9  C   UNL     1      -0.332   3.865   0.631  0.00  0.00    +0.073 A 
ATOM     10  C   UNL     1      -1.389   3.206   0.023  0.00  0.00    +0.048 A 
ATOM     11  O   UNL     1       2.105   3.723   1.187  0.00  0.00    -0.453 OA
ATOM     12  C   UNL     1       2.942   2.556   1.285  0.00  0.00    +0.466 C 
ATOM     13  O   UNL     1       2.451   1.693   0.243  0.00  0.00    -0.453 OA
BRANCH   5  15
ATOM     14  C   UNL     1      -2.091  -0.153  -1.745  0.00  0.00    +0.091 C 
ATOM     15  C   UNL     1      -2.288   1.246  -1.220  0.00  0.00    +0.162 C 
ATOM     16  O   UNL     1      -3.366   1.791  -1.336  0.00  0.00    -0.292 OA
ENDBRANCH   5  15
ENDBRANCH   1  10
BRANCH   2  17
ATOM     17  C   UNL     1      -4.147   5.754   0.167  0.00  0.00    +0.328 C 
BRANCH  17  18
ATOM     18  O   UNL     1      -4.016   7.198   0.238  0.00  0.00    -0.450 OA
BRANCH  18  19
ATOM     19  C   UNL     1      -5.156   7.913   0.328  0.00  0.00    +0.375 C 
ATOM     20  O   UNL     1      -6.230   7.343   0.347  0.00  0.00    -0.241 OA
BRANCH  19  21
ATOM     21  C   UNL     1      -5.100   9.378   0.404  0.00  0.00    +0.213 A 
ATOM     22  C   UNL     1      -6.180  10.198   0.497  0.00  0.00    +0.065 A 
ATOM     23  C   UNL     1      -5.650  11.560   0.546  0.00  0.00    +0.022 A 
ATOM     24  C   UNL     1      -6.231  12.827   0.640  0.00  0.00    +0.031 A 
ATOM     25  C   UNL     1      -5.434  13.938   0.665  0.00  0.00    +0.042 A 
ATOM     26  C   UNL     1      -4.052  13.813   0.595  0.00  0.00    +0.023 A 
ATOM     27  C   UNL     1      -3.460  12.572   0.501  0.00  0.00    +0.048 A 
ATOM     28  C   UNL     1      -4.251  11.428   0.475  0.00  0.00    +0.136 A 
ATOM     29  O   UNL     1      -3.969  10.113   0.397  0.00  0.00    -0.448 OA
ATOM     30 CL   UNL     1      -6.153  15.513   0.783  0.00  0.00    -0.084 Cl
ENDBRANCH  19  21
ENDBRANCH  18  19
ENDBRANCH  17  18
ENDBRANCH   2  17
TORSDOF 6
