REMARK  Name = ZINC00797057
REMARK  14 active torsions:
REMARK  status: ('A' for Active; 'I' for Inactive)
REMARK    1  A    between atoms: C_1  and  C_2
REMARK    2  A    between atoms: C_2  and  N_3
REMARK    3  A    between atoms: N_3  and  C_4
REMARK    4  A    between atoms: N_3  and  C_6
REMARK    5  A    between atoms: C_4  and  C_5
REMARK    6  A    between atoms: C_13  and  C_17
REMARK    7  A    between atoms: N_19  and  C_20
REMARK    8  A    between atoms: C_25  and  C_26
REMARK    9  A    between atoms: N_29  and  C_31
REMARK   10  A    between atoms: C_31  and  C_32
REMARK   11  A    between atoms: N_34  and  C_35
REMARK   12  A    between atoms: C_35  and  C_36
REMARK   13  A    between atoms: C_35  and  C_37
REMARK   14  A    between atoms: C_35  and  C_38
REMARK                            x       y       z     vdW  Elec       q    Type
REMARK                         _______ _______ _______ _____ _____    ______ ____
ROOT
ATOM      1  C   UNL     1      -0.087   1.204   0.593  0.00  0.00    +0.255 C 
ATOM      2  O   UNL     1       0.892   1.696   1.121  0.00  0.00    -0.270 OA
ATOM      3  N   UNL     1       0.002  -0.004   0.002  0.00  0.00    -0.281 N 
ATOM      4  H   UNL     1      -0.794  -0.432  -0.349  0.00  0.00    +0.155 HD
ENDROOT
BRANCH   1  12
ATOM      5  C   UNL     1      -6.031   2.315  -0.558  0.00  0.00    +0.030 A 
ATOM      6  C   UNL     1      -6.073   3.562   0.066  0.00  0.00    +0.027 A 
ATOM      7  C   UNL     1      -4.947   4.086   0.660  0.00  0.00    +0.049 A 
ATOM      8  C   UNL     1      -3.751   3.376   0.644  0.00  0.00    +0.139 A 
ATOM      9  C   UNL     1      -3.701   2.119   0.016  0.00  0.00    +0.020 A 
ATOM     10  C   UNL     1      -4.854   1.593  -0.586  0.00  0.00    +0.034 A 
ATOM     11  C   UNL     1      -2.487   1.387  -0.013  0.00  0.00    +0.031 A 
ATOM     12  C   UNL     1      -1.368   1.930   0.595  0.00  0.00    +0.122 A 
ATOM     13  C   UNL     1      -1.480   3.246   1.234  0.00  0.00    +0.350 A 
ATOM     14  O   UNL     1      -0.508   3.745   1.770  0.00  0.00    -0.244 OA
ATOM     15  O   UNL     1      -2.652   3.901   1.230  0.00  0.00    -0.422 OA
BRANCH   5  16
ATOM     16  N   UNL     1      -7.183   1.795  -1.156  0.00  0.00    -0.330 N 
BRANCH  16  18
ATOM     17  C   UNL     1      -8.508   3.461  -2.361  0.00  0.00    +0.024 C 
ATOM     18  C   UNL     1      -8.432   2.559  -1.127  0.00  0.00    +0.102 C 
ENDBRANCH  16  18
BRANCH  16  19
ATOM     19  C   UNL     1      -7.140   0.486  -1.812  0.00  0.00    +0.102 C 
ATOM     20  C   UNL     1      -7.485  -0.605  -0.796  0.00  0.00    +0.024 C 
ENDBRANCH  16  19
ENDBRANCH   5  16
ENDBRANCH   1  12
BRANCH   3  21
ATOM     21  C   UNL     1       1.241  -0.639  -0.106  0.00  0.00    +0.045 A 
ATOM     22  C   UNL     1       2.410   0.109  -0.105  0.00  0.00    +0.024 A 
ATOM     23  C   UNL     1       3.634  -0.521  -0.212  0.00  0.00    +0.002 A 
ATOM     24  C   UNL     1       3.704  -1.899  -0.320  0.00  0.00    +0.001 A 
ATOM     25  C   UNL     1       2.550  -2.656  -0.321  0.00  0.00    +0.013 A 
ATOM     26  C   UNL     1       1.310  -2.033  -0.209  0.00  0.00    +0.044 A 
BRANCH  26  27
ATOM     27  C   UNL     1       0.066  -2.842  -0.203  0.00  0.00    +0.206 A 
ATOM     28  N   UNL     1      -1.189  -2.382  -0.101  0.00  0.00    -0.108 NA
ATOM     29  N   UNL     1      -1.975  -3.404  -0.139  0.00  0.00    -0.045 NA
ATOM     30  N   UNL     1      -1.267  -4.473  -0.252  0.00  0.00    -0.154 N 
ATOM     31  N   UNL     1      -0.019  -4.155  -0.293  0.00  0.00    -0.130 NA
BRANCH  30  32
ATOM     32  C   UNL     1      -1.797  -5.837  -0.322  0.00  0.00    +0.263 C 
BRANCH  32  33
ATOM     33  C   UNL     1      -1.907  -6.406   1.069  0.00  0.00    +0.237 C 
ATOM     34  O   UNL     1      -1.574  -5.738   2.025  0.00  0.00    -0.274 OA
ATOM     35  N   UNL     1      -2.373  -7.657   1.250  0.00  0.00    -0.309 N 
ATOM     36  H   UNL     1      -2.639  -8.191   0.485  0.00  0.00    +0.149 HD
BRANCH  35  37
ATOM     37  C   UNL     1      -2.480  -8.211   2.602  0.00  0.00    +0.026 C 
ATOM     38  C   UNL     1      -3.421  -7.340   3.437  0.00  0.00    +0.031 C 
ATOM     39  C   UNL     1      -3.033  -9.635   2.528  0.00  0.00    +0.031 C 
ATOM     40  C   UNL     1      -1.095  -8.235   3.254  0.00  0.00    +0.031 C 
ENDBRANCH  35  37
ENDBRANCH  32  33
ENDBRANCH  30  32
ENDBRANCH  26  27
ENDBRANCH   3  21
TORSDOF 9
