REMARK  Name = ZINC09356605
REMARK  5 active torsions:
REMARK  status: ('A' for Active; 'I' for Inactive)
REMARK    1  A    between atoms: C_4  and  C_7
REMARK    2  A    between atoms: C_14  and  N_36
REMARK    3  A    between atoms: C_15  and  C_34
REMARK    4  A    between atoms: N_23  and  C_26
REMARK    5  A    between atoms: C_26  and  C_27
REMARK                            x       y       z     vdW  Elec       q    Type
REMARK                         _______ _______ _______ _____ _____    ______ ____
ROOT
ATOM      1  C   UNL     1       3.699  -0.689  -0.037  0.00  0.00    +0.101 A 
ATOM      2  C   UNL     1       4.001  -1.853   0.676  0.00  0.00    +0.066 A 
ATOM      3  C   UNL     1       5.293  -2.199   0.391  0.00  0.00    +0.224 A 
ATOM      4  N   UNL     1       5.781  -1.284  -0.471  0.00  0.00    -0.246 N 
ATOM      5  H   UNL     1       6.675  -1.275  -0.847  0.00  0.00    +0.192 HD
ATOM      6  N   UNL     1       4.768  -0.349  -0.733  0.00  0.00    -0.171 NA
ATOM      7  O   UNL     1       5.892  -3.289   0.930  0.00  0.00    -0.423 OA
ATOM      8  C   UNL     1       5.282  -3.897   1.968  0.00  0.00    +0.201 C 
ATOM      9  C   UNL     1       4.004  -3.648   2.339  0.00  0.00    +0.110 C 
ATOM     10  C   UNL     1       3.141  -2.656   1.609  0.00  0.00    +0.145 C 
ATOM     11  C   UNL     1       2.032  -3.339   0.875  0.00  0.00    -0.001 A 
ATOM     12  C   UNL     1       2.044  -4.278  -0.133  0.00  0.00    +0.007 A 
ATOM     13  C   UNL     1       0.810  -4.715  -0.603  0.00  0.00    +0.000 A 
ATOM     14  C   UNL     1      -0.371  -4.226  -0.083  0.00  0.00    +0.002 A 
ATOM     15  C   UNL     1      -0.391  -3.282   0.931  0.00  0.00    +0.024 A 
ATOM     16  C   UNL     1       0.841  -2.836   1.414  0.00  0.00    +0.041 A 
ATOM     17  N   UNL     1       1.113  -1.914   2.409  0.00  0.00    -0.265 N 
ATOM     18  C   UNL     1       2.440  -1.746   2.593  0.00  0.00    +0.241 C 
ATOM     19  O   UNL     1       2.969  -1.006   3.395  0.00  0.00    -0.274 OA
ENDROOT
BRANCH   1  23
ATOM     20  C   UNL     1      -0.017   1.379   0.010  0.00  0.00    +0.000 A 
ATOM     21  C   UNL     1       1.160   2.071   0.234  0.00  0.00    +0.001 A 
ATOM     22  C   UNL     1       2.369   1.405   0.220  0.00  0.00    +0.010 A 
ATOM     23  C   UNL     1       2.402   0.033  -0.021  0.00  0.00    +0.003 A 
ATOM     24  C   UNL     1       1.214  -0.659  -0.246  0.00  0.00    +0.010 A 
ATOM     25  C   UNL     1       0.011   0.017  -0.229  0.00  0.00    +0.001 A 
ENDBRANCH   1  23
BRANCH   8  26
ATOM     26  N   UNL     1       5.998  -4.820   2.690  0.00  0.00    -0.328 N 
ATOM     27  H   UNL     1       6.916  -5.019   2.447  0.00  0.00    +0.145 HD
ATOM     28  H   UNL     1       5.586  -5.273   3.442  0.00  0.00    +0.145 HD
ENDBRANCH   8  26
BRANCH   9  29
ATOM     29  C   UNL     1       3.458  -4.352   3.460  0.00  0.00    +0.102 C 
ATOM     30  N   UNL     1       3.024  -4.910   4.350  0.00  0.00    -0.191 NA
ENDBRANCH   9  29
BRANCH  17  31
ATOM     31  C   UNL     1       0.084  -1.204   3.171  0.00  0.00    +0.148 C 
BRANCH  31  32
ATOM     32  C   UNL     1      -0.272  -2.002   4.399  0.00  0.00    -0.030 A 
ATOM     33  C   UNL     1      -1.283  -2.943   4.343  0.00  0.00    +0.006 A 
ATOM     34  C   UNL     1      -1.610  -3.675   5.469  0.00  0.00    +0.020 A 
ATOM     35  C   UNL     1      -0.924  -3.466   6.652  0.00  0.00    +0.041 A 
ATOM     36  C   UNL     1       0.087  -2.524   6.708  0.00  0.00    +0.020 A 
ATOM     37  C   UNL     1       0.417  -1.797   5.580  0.00  0.00    +0.006 A 
ATOM     38 CL   UNL     1      -1.334  -4.385   8.067  0.00  0.00    -0.084 Cl
ENDBRANCH  31  32
ENDBRANCH  17  31
TORSDOF 5
