REMARK  Name = ZINC07860174
REMARK  7 active torsions:
REMARK  status: ('A' for Active; 'I' for Inactive)
REMARK    1  A    between atoms: C_1  and  C_2
REMARK    2  A    between atoms: C_6  and  N_27
REMARK    3  A    between atoms: C_7  and  N_8
REMARK    4  A    between atoms: C_9  and  C_11
REMARK    5  A    between atoms: C_11  and  S_12
REMARK    6  A    between atoms: S_12  and  C_13
REMARK    7  A    between atoms: N_23  and  C_24
REMARK                            x       y       z     vdW  Elec       q    Type
REMARK                         _______ _______ _______ _____ _____    ______ ____
ROOT
ATOM      1  C   UNL     1       4.673  -0.806  -1.567  0.00  0.00    +0.173 C 
ENDROOT
BRANCH   1   3
ATOM      2  N   UNL     1       5.251  -3.190  -1.884  0.00  0.00    -0.283 N 
ATOM      3  C   UNL     1       4.591  -2.103  -2.330  0.00  0.00    +0.228 C 
ATOM      4  O   UNL     1       3.931  -2.168  -3.346  0.00  0.00    -0.275 OA
ATOM      5  H   UNL     1       5.736  -3.152  -1.046  0.00  0.00    +0.155 HD
BRANCH   2  12
ATOM      6  C   UNL     1       2.777  -4.567  -2.170  0.00  0.00    +0.046 C 
ATOM      7  C   UNL     1       4.049  -5.076  -2.796  0.00  0.00    -0.027 A 
ATOM      8  C   UNL     1       4.037  -6.244  -3.534  0.00  0.00    +0.005 A 
ATOM      9  C   UNL     1       5.204  -6.713  -4.109  0.00  0.00    +0.003 A 
ATOM     10  C   UNL     1       6.387  -6.014  -3.946  0.00  0.00    +0.034 A 
ATOM     11  C   UNL     1       6.405  -4.844  -3.214  0.00  0.00    +0.148 A 
ATOM     12  C   UNL     1       5.235  -4.373  -2.631  0.00  0.00    +0.067 A 
BRANCH  11  13
ATOM     13  N   UNL     1       7.670  -4.094  -3.046  0.00  0.00    +0.058 N 
ATOM     14  O   UNL     1       8.673  -4.451  -3.638  0.00  0.00    -0.126 OA
ATOM     15  O   UNL     1       7.708  -3.120  -2.315  0.00  0.00    -0.126 OA
ENDBRANCH  11  13
ENDBRANCH   2  12
ENDBRANCH   1   3
BRANCH   1  16
ATOM     16  S   UNL     1       3.687   0.455  -2.413  0.00  0.00    -0.078 S 
BRANCH  16  17
ATOM     17  C   UNL     1       3.955   1.825  -1.337  0.00  0.00    +0.173 A 
ATOM     18  N   UNL     1       4.721   1.655  -0.288  0.00  0.00    -0.223 NA
ATOM     19  C   UNL     1       4.964   2.657   0.580  0.00  0.00    +0.079 A 
ATOM     20  C   UNL     1       5.777   2.474   1.702  0.00  0.00    +0.028 A 
ATOM     21  C   UNL     1       5.997   3.518   2.556  0.00  0.00    +0.002 A 
ATOM     22  C   UNL     1       5.423   4.762   2.326  0.00  0.00    +0.001 A 
ATOM     23  C   UNL     1       4.623   4.972   1.237  0.00  0.00    +0.015 A 
ATOM     24  C   UNL     1       4.382   3.925   0.349  0.00  0.00    +0.065 A 
ATOM     25  C   UNL     1       3.531   4.092  -0.837  0.00  0.00    +0.263 A 
ATOM     26  O   UNL     1       3.002   5.159  -1.089  0.00  0.00    -0.267 OA
ATOM     27  N   UNL     1       3.358   3.015  -1.639  0.00  0.00    -0.284 N 
BRANCH  27  28
ATOM     28  C   UNL     1       2.519   3.126  -2.834  0.00  0.00    +0.093 C 
ATOM     29  C   UNL     1       2.740   4.338  -3.743  0.00  0.00    +0.027 C 
ATOM     30  C   UNL     1       3.199   2.949  -4.193  0.00  0.00    +0.027 C 
ENDBRANCH  27  28
ENDBRANCH  16  17
ENDBRANCH   1  16
TORSDOF 6
