REMARK  Name = ZINC36925867
REMARK  2 active torsions:
REMARK  status: ('A' for Active; 'I' for Inactive)
REMARK    1  A    between atoms: C_3  and  N_9
REMARK    2  A    between atoms: C_11  and  N_17
REMARK                            x       y       z     vdW  Elec       q    Type
REMARK                         _______ _______ _______ _____ _____    ______ ____
ROOT
ATOM      1  N   UNL     1       3.587   2.133   0.017  0.00  0.00    -0.295 N 
ATOM      2  C   UNL     1       3.568   3.518  -0.100  0.00  0.00    +0.155 A 
ATOM      3  C   UNL     1       4.765   4.215  -0.232  0.00  0.00    +0.166 A 
ATOM      4  C   UNL     1       4.732   5.593  -0.348  0.00  0.00    +0.039 A 
ATOM      5  C   UNL     1       3.499   6.231  -0.328  0.00  0.00    +0.042 A 
ATOM      6  C   UNL     1       2.349   5.477  -0.194  0.00  0.00    +0.131 A 
ATOM      7  N   UNL     1       2.410   4.162  -0.090  0.00  0.00    -0.218 NA
ATOM      8 CL   UNL     1       0.804   6.268  -0.168  0.00  0.00    -0.062 Cl
ATOM      9  H   UNL     1       4.433   1.661   0.059  0.00  0.00    +0.154 HD
ENDROOT
BRANCH   1  12
ATOM     10  C   UNL     1       0.067   1.298   0.683  0.00  0.00    +0.040 A 
ATOM     11  C   UNL     1       1.253   2.004   0.628  0.00  0.00    +0.029 A 
ATOM     12  C   UNL     1       2.383   1.419   0.075  0.00  0.00    +0.068 A 
ATOM     13  C   UNL     1       2.319   0.121  -0.422  0.00  0.00    +0.147 A 
ATOM     14  C   UNL     1       1.129  -0.581  -0.364  0.00  0.00    +0.078 A 
ATOM     15  C   UNL     1       0.004   0.007   0.189  0.00  0.00    +0.126 A 
ATOM     16  F   UNL     1      -1.158  -0.681   0.245  0.00  0.00    -0.205 F 
ATOM     17  F   UNL     1       3.417  -0.452  -0.961  0.00  0.00    -0.203 F 
ENDBRANCH   1  12
BRANCH   3  18
ATOM     18  N   UNL     1       6.056   3.491  -0.247  0.00  0.00    +0.060 N 
ATOM     19  O   UNL     1       7.095   4.109  -0.254  0.00  0.00    -0.126 OA
ATOM     20  O   UNL     1       6.071   2.282  -0.253  0.00  0.00    -0.126 OA
ENDBRANCH   3  18
TORSDOF 2
