REMARK  Name = ZINC02821101
REMARK  4 active torsions:
REMARK  status: ('A' for Active; 'I' for Inactive)
REMARK    1  A    between atoms: C_3  and  N_27
REMARK    2  A    between atoms: C_6  and  C_7
REMARK    3  A    between atoms: N_8  and  C_9
REMARK    4  A    between atoms: C_16  and  C_19
REMARK                            x       y       z     vdW  Elec       q    Type
REMARK                         _______ _______ _______ _____ _____    ______ ____
ROOT
ATOM      1  C   UNL     1       0.693  -2.691  -0.020  0.00  0.00    +0.066 A 
ATOM      2  C   UNL     1      -0.653  -2.301  -0.005  0.00  0.00    +0.030 A 
ATOM      3  C   UNL     1      -0.990  -0.978   0.006  0.00  0.00    +0.030 A 
ATOM      4  C   UNL     1       0.002  -0.004   0.002  0.00  0.00    +0.067 A 
ATOM      5  C   UNL     1       1.359  -0.377  -0.013  0.00  0.00    +0.091 A 
ATOM      6  C   UNL     1       1.700  -1.731  -0.024  0.00  0.00    +0.057 A 
ATOM      7  N   UNL     1       2.089   0.766  -0.014  0.00  0.00    -0.228 NA
ATOM      8  C   UNL     1       1.285   1.801  -0.001  0.00  0.00    +0.141 A 
ATOM      9  N   UNL     1      -0.017   1.377   0.010  0.00  0.00    -0.338 N 
ATOM     10  H   UNL     1      -0.830   1.959   0.021  0.00  0.00    +0.167 HD
ENDROOT
BRANCH   8  11
ATOM     11  C   UNL     1       1.719   3.214   0.003  0.00  0.00    +0.036 A 
ATOM     12  C   UNL     1       0.771   4.238   0.012  0.00  0.00    +0.014 A 
ATOM     13  C   UNL     1       1.182   5.555   0.020  0.00  0.00    +0.021 A 
ATOM     14  C   UNL     1       2.532   5.862   0.009  0.00  0.00    +0.042 A 
ATOM     15  C   UNL     1       3.478   4.852  -0.005  0.00  0.00    +0.040 A 
ATOM     16  C   UNL     1       3.079   3.530  -0.008  0.00  0.00    +0.053 A 
ATOM     17 CL   UNL     1       4.266   2.263  -0.026  0.00  0.00    -0.083 Cl
ATOM     18 CL   UNL     1       3.041   7.522   0.013  0.00  0.00    -0.083 Cl
ENDBRANCH   8  11
BRANCH   1  20
ATOM     19  C   UNL     1       0.405  -4.847   0.768  0.00  0.00    +0.119 C 
ATOM     20  N   UNL     1       1.018  -4.021  -0.030  0.00  0.00    -0.255 NA
BRANCH  19  26
ATOM     21  C   UNL     1       1.740  -6.753  -0.114  0.00  0.00    +0.011 A 
ATOM     22  C   UNL     1       2.065  -8.094  -0.116  0.00  0.00    +0.033 A 
ATOM     23  C   UNL     1       1.411  -8.969   0.734  0.00  0.00    +0.126 A 
ATOM     24  C   UNL     1       0.431  -8.506   1.595  0.00  0.00    +0.033 A 
ATOM     25  C   UNL     1       0.099  -7.168   1.612  0.00  0.00    +0.011 A 
ATOM     26  C   UNL     1       0.755  -6.278   0.756  0.00  0.00    -0.007 A 
BRANCH  23  27
ATOM     27  N   UNL     1       1.762 -10.407   0.722  0.00  0.00    +0.056 N 
ATOM     28  O   UNL     1       1.188 -11.180   1.468  0.00  0.00    -0.126 OA
ATOM     29  O   UNL     1       2.624 -10.817  -0.035  0.00  0.00    -0.126 OA
ENDBRANCH  23  27
ENDBRANCH  19  26
ENDBRANCH   1  20
TORSDOF 4
