REMARK  Name = ZINC67460827
REMARK  6 active torsions:
REMARK  status: ('A' for Active; 'I' for Inactive)
REMARK    1  A    between atoms: C_1  and  C_2
REMARK    2  A    between atoms: C_2  and  N_9
REMARK    3  A    between atoms: N_9  and  N_10
REMARK    4  A    between atoms: N_13  and  C_14
REMARK    5  A    between atoms: C_14  and  C_15
REMARK    6  A    between atoms: C_15  and  C_22
REMARK                            x       y       z     vdW  Elec       q    Type
REMARK                         _______ _______ _______ _____ _____    ______ ____
ROOT
ATOM      1  N   UNL     1      -5.348   2.124  -0.659  0.00  0.00    -0.234 N 
ATOM      2  C   UNL     1      -5.199   0.816  -0.945  0.00  0.00    +0.313 C 
ATOM      3  O   UNL     1      -4.744   0.477  -2.020  0.00  0.00    -0.252 OA
ATOM      4  N   UNL     1      -5.553  -0.117  -0.038  0.00  0.00    -0.298 N 
ATOM      5  H   UNL     1      -5.094   2.796  -1.311  0.00  0.00    +0.171 HD
ATOM      6  H   UNL     1      -5.915   0.154   0.820  0.00  0.00    +0.150 HD
ENDROOT
BRANCH   1   7
ATOM      7  N   UNL     1      -5.859   2.506   0.549  0.00  0.00    -0.232 NA
ATOM      8  H   UNL     1      -5.319   2.119   1.309  0.00  0.00    +0.145 HD
BRANCH   7  10
ATOM      9  C   UNL     1      -6.831   4.490  -0.475  0.00  0.00    +0.031 C 
ATOM     10  C   UNL     1      -5.936   3.969   0.651  0.00  0.00    +0.054 C 
ATOM     11  C   UNL     1      -4.532   4.543   0.466  0.00  0.00    +0.047 C 
ATOM     12  C   UNL     1      -4.397   5.892   1.226  0.00  0.00    +0.168 C 
ATOM     13  S   UNL     1      -5.345   5.479   2.756  0.00  0.00    -0.029 S 
ATOM     14  O   UNL     1      -6.011   6.644   3.223  0.00  0.00    -0.174 OA
ATOM     15  O   UNL     1      -4.508   4.746   3.641  0.00  0.00    -0.174 OA
ATOM     16  C   UNL     1      -6.577   4.338   2.003  0.00  0.00    +0.189 C 
ENDBRANCH   7  10
ENDBRANCH   1   7
BRANCH   4  17
ATOM     17  C   UNL     1      -5.390  -1.539  -0.349  0.00  0.00    +0.117 C 
BRANCH  17  18
ATOM     18  C   UNL     1      -5.721  -2.373   0.890  0.00  0.00    +0.011 C 
ATOM     19  C   UNL     1      -4.814  -3.572   0.950  0.00  0.00    +0.013 C 
ATOM     20  C   UNL     1      -4.294  -3.988  -0.439  0.00  0.00    +0.001 C 
ATOM     21  C   UNL     1      -5.381  -3.923  -1.528  0.00  0.00    +0.000 C 
ATOM     22  C   UNL     1      -6.706  -4.455  -1.052  0.00  0.00    +0.000 C 
ATOM     23  C   UNL     1      -7.553  -3.273  -0.539  0.00  0.00    +0.001 C 
ATOM     24  C   UNL     1      -7.181  -2.866   0.807  0.00  0.00    +0.013 C 
BRANCH  18  25
ATOM     25  C   UNL     1      -5.540  -1.534   2.128  0.00  0.00    -0.040 A 
ATOM     26  C   UNL     1      -6.576  -1.406   3.035  0.00  0.00    +0.004 A 
ATOM     27  C   UNL     1      -6.410  -0.636   4.171  0.00  0.00    +0.000 A 
ATOM     28  C   UNL     1      -5.207   0.006   4.401  0.00  0.00    +0.000 A 
ATOM     29  C   UNL     1      -4.171  -0.122   3.495  0.00  0.00    +0.000 A 
ATOM     30  C   UNL     1      -4.336  -0.896   2.361  0.00  0.00    +0.004 A 
ENDBRANCH  18  25
ENDBRANCH  17  18
ENDBRANCH   4  17
TORSDOF 5
