REMARK  Name = ZINC02131138
REMARK  12 active torsions:
REMARK  status: ('A' for Active; 'I' for Inactive)
REMARK    1  A    between atoms: C_1  and  C_2
REMARK    2  A    between atoms: C_2  and  C_3
REMARK    3  A    between atoms: C_3  and  C_4
REMARK    4  A    between atoms: C_4  and  C_5
REMARK    5  A    between atoms: C_14  and  O_16
REMARK    6  A    between atoms: O_16  and  C_17
REMARK    7  A    between atoms: C_17  and  C_18
REMARK    8  A    between atoms: N_20  and  CA_21
REMARK    9  A    between atoms: CA_21  and  C_23
REMARK   10  A    between atoms: CA_21  and  C_35
REMARK   11  A    between atoms: C_23  and  C_24
REMARK   12  A    between atoms: C_31  and  O_34
REMARK                            x       y       z     vdW  Elec       q    Type
REMARK                         _______ _______ _______ _____ _____    ______ ____
ROOT
ATOM      1  C   UNL     1      -0.108   8.433  -7.427  0.00  0.00    +0.251 C 
ATOM      2  O   UNL     1       0.734   9.040  -6.799  0.00  0.00    -0.272 OA
ATOM      3  N   UNL     1      -0.683   9.000  -8.505  0.00  0.00    -0.299 N 
ATOM      4  H   UNL     1      -1.356   8.514  -9.008  0.00  0.00    +0.150 HD
ENDROOT
BRANCH   1   5
ATOM      5  C   UNL     1      -0.510   7.045  -7.000  0.00  0.00    +0.324 C 
BRANCH   5   6
ATOM      6  O   UNL     1       0.235   6.668  -5.840  0.00  0.00    -0.481 OA
BRANCH   6  16
ATOM      7  C   UNL     1      -0.765   1.598  -3.711  0.00  0.00    -0.030 A 
ATOM      8  C   UNL     1      -1.688   0.824  -4.338  0.00  0.00    +0.096 A 
ATOM      9  C   UNL     1      -2.361   1.315  -5.476  0.00  0.00    +0.337 A 
ATOM     10  O   UNL     1      -3.190   0.612  -6.025  0.00  0.00    -0.245 OA
ATOM     11  O   UNL     1      -2.107   2.537  -5.971  0.00  0.00    -0.422 OA
ATOM     12  C   UNL     1      -1.198   3.355  -5.399  0.00  0.00    +0.143 A 
ATOM     13  C   UNL     1      -0.493   2.930  -4.258  0.00  0.00    +0.022 A 
ATOM     14  C   UNL     1       0.451   3.774  -3.662  0.00  0.00    +0.035 A 
ATOM     15  C   UNL     1       0.685   5.010  -4.193  0.00  0.00    +0.083 A 
ATOM     16  C   UNL     1      -0.009   5.436  -5.324  0.00  0.00    +0.143 A 
ATOM     17  C   UNL     1      -0.947   4.613  -5.926  0.00  0.00    +0.094 A 
ATOM     18 CL   UNL     1       1.856   6.058  -3.455  0.00  0.00    -0.080 Cl
BRANCH   7  19
ATOM     19  C   UNL     1      -0.037   1.099  -2.490  0.00  0.00    +0.036 C 
BRANCH  19  20
ATOM     20  C   UNL     1      -0.753   1.593  -1.232  0.00  0.00    +0.004 C 
BRANCH  20  22
ATOM     21  C   UNL     1      -0.729   1.579   1.267  0.00  0.00    +0.004 C 
ATOM     22  C   UNL     1      -0.013   1.086   0.008  0.00  0.00    -0.003 C 
ENDBRANCH  20  22
ENDBRANCH  19  20
ENDBRANCH   7  19
ENDBRANCH   6  16
ENDBRANCH   5   6
ENDBRANCH   1   5
BRANCH   3  23
ATOM     23  CA  UNL     1      -0.292  10.350  -8.920  0.00  0.00    +0.191 C 
BRANCH  23  24
ATOM     24  C   UNL     1       0.933  10.271  -9.794  0.00  0.00    +0.376 C 
ATOM     25  O   UNL     1       1.429   9.198 -10.045  0.00  0.00    -0.244 OA
ATOM     26  OXT UNL     1       1.474  11.394 -10.294  0.00  0.00    -0.244 OA
ENDBRANCH  23  24
BRANCH  23  27
ATOM     27  C   UNL     1      -1.437  10.995  -9.703  0.00  0.00    +0.071 C 
BRANCH  27  28
ATOM     28  C   UNL     1      -2.623  11.185  -8.793  0.00  0.00    -0.020 A 
ATOM     29  C   UNL     1      -3.667  10.352  -8.657  0.00  0.00    +0.087 A 
ATOM     30  N   UNL     1      -4.547  10.853  -7.738  0.00  0.00    -0.360 N 
ATOM     31  H   UNL     1      -5.376  10.426  -7.469  0.00  0.00    +0.165 HD
ATOM     32  C   UNL     1      -4.084  12.058  -7.254  0.00  0.00    +0.047 A 
ATOM     33  C   UNL     1      -2.859  12.318  -7.894  0.00  0.00    +0.006 A 
ATOM     34  C   UNL     1      -2.150  13.484  -7.599  0.00  0.00    +0.055 A 
ATOM     35  C   UNL     1      -2.659  14.376  -6.676  0.00  0.00    +0.118 A 
ATOM     36  C   UNL     1      -3.872  14.117  -6.044  0.00  0.00    +0.047 A 
ATOM     37  C   UNL     1      -4.580  12.969  -6.328  0.00  0.00    +0.030 A 
BRANCH  35  38
ATOM     38  O   UNL     1      -1.973  15.514  -6.384  0.00  0.00    -0.507 OA
ATOM     39  H   UNL     1      -2.202  16.266  -6.946  0.00  0.00    +0.292 HD
ENDBRANCH  35  38
ENDBRANCH  27  28
ENDBRANCH  23  27
ENDBRANCH   3  23
TORSDOF 11
