REMARK  Name = ZINC35671685
REMARK  4 active torsions:
REMARK  status: ('A' for Active; 'I' for Inactive)
REMARK    1  A    between atoms: C_6  and  C_7
REMARK    2  A    between atoms: C_7  and  C_9
REMARK    3  A    between atoms: C_7  and  N_25
REMARK    4  A    between atoms: C_9  and  N_10
REMARK                            x       y       z     vdW  Elec       q    Type
REMARK                         _______ _______ _______ _____ _____    ______ ____
ROOT
ATOM      1  N   UNL     1      -1.945  -0.127  -2.316  0.00  0.00    -0.300 N 
ATOM      2  C   UNL     1      -3.236   0.299  -2.352  0.00  0.00    +0.202 A 
ATOM      3  N   UNL     1      -3.627   1.314  -3.055  0.00  0.00    -0.235 NA
ATOM      4  C   UNL     1      -2.754   2.044  -3.825  0.00  0.00    +0.107 A 
ATOM      5  C   UNL     1      -3.050   3.162  -4.631  0.00  0.00    +0.081 A 
ATOM      6  C   UNL     1      -2.001   3.729  -5.318  0.00  0.00    +0.070 A 
ATOM      7  S   UNL     1      -0.589   2.764  -4.883  0.00  0.00    -0.073 S 
ATOM      8  C   UNL     1      -1.411   1.620  -3.801  0.00  0.00    +0.105 A 
ATOM      9  C   UNL     1      -1.007   0.532  -3.038  0.00  0.00    +0.268 A 
ATOM     10  O   UNL     1       0.161   0.176  -3.021  0.00  0.00    -0.266 OA
ATOM     11  S   UNL     1      -2.136   5.116  -6.382  0.00  0.00    -0.107 S 
ATOM     12  C   UNL     1      -3.886   5.012  -6.884  0.00  0.00    +0.171 C 
ATOM     13  C   UNL     1      -4.711   4.584  -5.704  0.00  0.00    +0.227 C 
ATOM     14  O   UNL     1      -5.816   5.076  -5.603  0.00  0.00    -0.275 OA
ATOM     15  N   UNL     1      -4.354   3.718  -4.759  0.00  0.00    -0.282 N 
ATOM     16  H   UNL     1      -5.026   3.449  -4.114  0.00  0.00    +0.155 HD
ENDROOT
BRANCH   1  17
ATOM     17  C   UNL     1      -1.571  -1.284  -1.498  0.00  0.00    +0.115 C 
BRANCH  17  18
ATOM     18  C   UNL     1      -1.346  -0.835  -0.053  0.00  0.00    -0.017 C 
BRANCH  18  24
ATOM     19  C   UNL     1      -0.338   1.452   0.064  0.00  0.00    +0.003 A 
ATOM     20  C   UNL     1       0.756   2.295   0.120  0.00  0.00    +0.020 A 
ATOM     21  C   UNL     1       2.036   1.769   0.121  0.00  0.00    +0.041 A 
ATOM     22  C   UNL     1       2.220   0.399   0.066  0.00  0.00    +0.020 A 
ATOM     23  C   UNL     1       1.125  -0.443   0.009  0.00  0.00    +0.003 A 
ATOM     24  C   UNL     1      -0.153   0.083   0.008  0.00  0.00    -0.059 A 
ATOM     25 CL   UNL     1       3.410   2.828   0.191  0.00  0.00    -0.084 Cl
ENDBRANCH  18  24
BRANCH  18  26
ATOM     26  N   UNL     1      -1.102  -2.012   0.792  0.00  0.00    +0.385 N 
ATOM     27  C   UNL     1      -1.016  -1.609   2.219  0.00  0.00    -0.078 C 
ATOM     28  C   UNL     1      -1.327  -2.923   2.979  0.00  0.00    -0.020 C 
ATOM     29  C   UNL     1      -2.416  -3.580   2.100  0.00  0.00    -0.020 C 
ATOM     30  C   UNL     1      -2.244  -2.948   0.706  0.00  0.00    -0.078 C 
ATOM     31  H   UNL     1      -0.251  -2.474   0.508  0.00  0.00    -0.081 HD
ENDBRANCH  18  26
ENDBRANCH  17  18
ENDBRANCH   1  17
TORSDOF 4
