REMARK  Name = ZINC45538354
REMARK  5 active torsions:
REMARK  status: ('A' for Active; 'I' for Inactive)
REMARK    1  A    between atoms: C_8  and  C_12
REMARK    2  A    between atoms: C_12  and  O_14
REMARK    3  A    between atoms: O_14  and  C_15
REMARK    4  A    between atoms: C_15  and  C_16
REMARK    5  A    between atoms: N_18  and  C_19
REMARK                            x       y       z     vdW  Elec       q    Type
REMARK                         _______ _______ _______ _____ _____    ______ ____
ROOT
ATOM      1  C   UNL     1       5.072  -6.880  -0.630  0.00  0.00    +0.255 C 
ATOM      2  O   UNL     1       5.917  -6.176  -1.142  0.00  0.00    -0.272 OA
ATOM      3  N   UNL     1       5.311  -8.194  -0.446  0.00  0.00    -0.283 N 
ATOM      4  H   UNL     1       4.664  -8.743   0.023  0.00  0.00    +0.155 HD
ENDROOT
BRANCH   3   5
ATOM      5  C   UNL     1       6.493  -8.766  -0.934  0.00  0.00    +0.037 A 
ATOM      6  C   UNL     1       6.484 -10.064  -1.427  0.00  0.00    +0.027 A 
ATOM      7  C   UNL     1       7.649 -10.631  -1.909  0.00  0.00    +0.051 A 
ATOM      8  C   UNL     1       8.828  -9.905  -1.901  0.00  0.00    +0.167 A 
ATOM      9  C   UNL     1       8.839  -8.601  -1.406  0.00  0.00    +0.169 A 
ATOM     10  C   UNL     1       7.672  -8.033  -0.929  0.00  0.00    +0.073 A 
ATOM     11  O   UNL     1      10.115  -8.111  -1.514  0.00  0.00    -0.447 OA
ATOM     12  C   UNL     1      10.929  -9.289  -1.606  0.00  0.00    +0.254 C 
ATOM     13  O   UNL     1      10.097 -10.221  -2.311  0.00  0.00    -0.448 OA
ATOM     14  C   UNL     1      11.304  -9.816  -0.217  0.00  0.00    +0.093 C 
ATOM     15  C   UNL     1      12.736 -10.382  -0.405  0.00  0.00    +0.008 C 
ATOM     16  C   UNL     1      13.377  -9.377  -1.397  0.00  0.00    +0.008 C 
ATOM     17  C   UNL     1      12.228  -9.013  -2.364  0.00  0.00    +0.093 C 
ENDBRANCH   3   5
BRANCH   1  18
ATOM     18  C   UNL     1       3.756  -6.286  -0.199  0.00  0.00    +0.328 C 
BRANCH  18  19
ATOM     19  O   UNL     1       3.744  -4.888  -0.497  0.00  0.00    -0.455 OA
BRANCH  19  20
ATOM     20  C   UNL     1       2.635  -4.206  -0.173  0.00  0.00    +0.314 C 
ATOM     21  O   UNL     1       1.705  -4.776   0.347  0.00  0.00    -0.250 OA
BRANCH  20  29
ATOM     22  C   UNL     1      -0.010   1.380   0.024  0.00  0.00    +0.000 A 
ATOM     23  C   UNL     1       1.178   2.087   0.006  0.00  0.00    +0.004 A 
ATOM     24  C   UNL     1       2.381   1.412  -0.018  0.00  0.00    +0.046 A 
ATOM     25  C   UNL     1       2.403   0.020  -0.023  0.00  0.00    +0.124 A 
ATOM     26  C   UNL     1       1.213  -0.684  -0.002  0.00  0.00    -0.005 A 
ATOM     27  C   UNL     1       0.008  -0.001   0.019  0.00  0.00    +0.007 A 
ATOM     28  C   UNL     1       1.192  -2.192   0.005  0.00  0.00    +0.057 C 
ATOM     29  C   UNL     1       2.550  -2.728  -0.457  0.00  0.00    +0.139 C 
ATOM     30  C   UNL     1       3.648  -1.988   0.316  0.00  0.00    +0.244 C 
ATOM     31  O   UNL     1       3.607  -0.609  -0.052  0.00  0.00    -0.491 OA
ENDBRANCH  20  29
ENDBRANCH  19  20
ENDBRANCH  18  19
ENDBRANCH   1  18
TORSDOF 5
