REMARK  Name = ZINC39886066
REMARK  13 active torsions:
REMARK  status: ('A' for Active; 'I' for Inactive)
REMARK    1  A    between atoms: C_1  and  C_2
REMARK    2  A    between atoms: C_2  and  O_3
REMARK    3  A    between atoms: O_3  and  C_4
REMARK    4  A    between atoms: C_4  and  C_6
REMARK    5  A    between atoms: C_9  and  N_12
REMARK    6  A    between atoms: C_13  and  C_15
REMARK    7  A    between atoms: C_15  and  S_16
REMARK    8  A    between atoms: S_16  and  C_17
REMARK    9  A    between atoms: N_22  and  C_25
REMARK   10  A    between atoms: C_28  and  C_31
REMARK   11  A    between atoms: C_31  and  O_33
REMARK   12  A    between atoms: O_33  and  C_34
REMARK   13  A    between atoms: C_34  and  C_35
REMARK                            x       y       z     vdW  Elec       q    Type
REMARK                         _______ _______ _______ _____ _____    ______ ____
ROOT
ATOM      1  C   UNL     1       5.370  -8.087  -8.465  0.00  0.00    +0.142 C 
ATOM      2  C   UNL     1       5.644  -9.604  -8.501  0.00  0.00    +0.120 C 
ATOM      3  C   UNL     1       4.981 -10.054  -9.784  0.00  0.00    +0.228 C 
ATOM      4  O   UNL     1       4.959 -11.192 -10.201  0.00  0.00    -0.275 OA
ATOM      5  N   UNL     1       4.424  -8.997 -10.387  0.00  0.00    -0.209 N 
ATOM      6  C   UNL     1       4.582  -7.835  -9.733  0.00  0.00    +0.240 C 
ATOM      7  O   UNL     1       4.162  -6.758 -10.096  0.00  0.00    -0.274 OA
ENDROOT
BRANCH   5   8
ATOM      8  C   UNL     1       3.734  -9.093 -11.599  0.00  0.00    +0.044 A 
ATOM      9  C   UNL     1       2.525  -9.777 -11.656  0.00  0.00    +0.025 A 
ATOM     10  C   UNL     1       1.843  -9.875 -12.849  0.00  0.00    +0.017 A 
ATOM     11  C   UNL     1       2.368  -9.284 -14.002  0.00  0.00    +0.059 A 
ATOM     12  C   UNL     1       3.583  -8.596 -13.940  0.00  0.00    +0.017 A 
ATOM     13  C   UNL     1       4.256  -8.499 -12.743  0.00  0.00    +0.025 A 
BRANCH  11  14
ATOM     14  C   UNL     1       1.640  -9.386 -15.281  0.00  0.00    +0.339 C 
ATOM     15  O   UNL     1       0.584  -9.985 -15.333  0.00  0.00    -0.245 OA
BRANCH  14  16
ATOM     16  O   UNL     1       2.147  -8.816 -16.392  0.00  0.00    -0.461 OA
BRANCH  16  17
ATOM     17  C   UNL     1       1.390  -8.954 -17.596  0.00  0.00    +0.229 C 
ATOM     18  C   UNL     1       2.118  -8.248 -18.740  0.00  0.00    +0.048 C 
ENDBRANCH  16  17
ENDBRANCH  14  16
ENDBRANCH  11  14
ENDBRANCH   5   8
BRANCH   1  19
ATOM     19  S   UNL     1       4.386  -7.650  -7.005  0.00  0.00    -0.138 S 
BRANCH  19  20
ATOM     20  C   UNL     1       4.246  -5.844  -7.095  0.00  0.00    +0.165 C 
BRANCH  20  22
ATOM     21  N   UNL     1       3.205  -4.024  -5.781  0.00  0.00    -0.285 N 
ATOM     22  C   UNL     1       3.440  -5.344  -5.923  0.00  0.00    +0.227 C 
ATOM     23  O   UNL     1       3.003  -6.129  -5.108  0.00  0.00    -0.275 OA
ATOM     24  H   UNL     1       3.490  -3.404  -6.471  0.00  0.00    +0.155 HD
BRANCH  21  28
ATOM     25  C   UNL     1       1.256  -2.610  -2.382  0.00  0.00    +0.059 A 
ATOM     26  C   UNL     1       2.101  -3.721  -2.295  0.00  0.00    +0.017 A 
ATOM     27  C   UNL     1       2.743  -4.186  -3.420  0.00  0.00    +0.024 A 
ATOM     28  C   UNL     1       2.553  -3.551  -4.644  0.00  0.00    +0.033 A 
ATOM     29  C   UNL     1       1.713  -2.445  -4.735  0.00  0.00    +0.024 A 
ATOM     30  C   UNL     1       1.063  -1.978  -3.615  0.00  0.00    +0.017 A 
BRANCH  25  31
ATOM     31  C   UNL     1       0.566  -2.109  -1.179  0.00  0.00    +0.339 C 
ATOM     32  O   UNL     1      -0.171  -1.147  -1.258  0.00  0.00    -0.245 OA
BRANCH  31  33
ATOM     33  O   UNL     1       0.753  -2.719   0.008  0.00  0.00    -0.461 OA
BRANCH  33  35
ATOM     34  C   UNL     1       0.389  -2.998   2.380  0.00  0.00    +0.048 C 
ATOM     35  C   UNL     1       0.053  -2.181   1.131  0.00  0.00    +0.229 C 
ENDBRANCH  33  35
ENDBRANCH  31  33
ENDBRANCH  25  31
ENDBRANCH  21  28
ENDBRANCH  20  22
ENDBRANCH  19  20
ENDBRANCH   1  19
TORSDOF 11
