REMARK  Name = ZINC36149212
REMARK  16 active torsions:
REMARK  status: ('A' for Active; 'I' for Inactive)
REMARK    1  A    between atoms: C_1  and  C_2
REMARK    2  A    between atoms: C_2  and  C_3
REMARK    3  A    between atoms: C_2  and  C_4
REMARK    4  A    between atoms: C_4  and  C_5
REMARK    5  A    between atoms: C_5  and  N_6
REMARK    6  A    between atoms: N_6  and  C_7
REMARK    7  A    between atoms: N_6  and  C_25
REMARK    8  A    between atoms: C_7  and  C_8
REMARK    9  A    between atoms: C_9  and  C_19
REMARK   10  A    between atoms: C_12  and  N_13
REMARK   11  A    between atoms: C_25  and  C_26
REMARK   12  A    between atoms: C_26  and  C_28
REMARK   13  A    between atoms: C_26  and  O_36
REMARK   14  A    between atoms: C_28  and  O_29
REMARK   15  A    between atoms: O_29  and  C_30
REMARK   16  A    between atoms: C_30  and  C_31
REMARK                            x       y       z     vdW  Elec       q    Type
REMARK                         _______ _______ _______ _____ _____    ______ ____
ROOT
ATOM      1  N   UNL     1       2.170  -0.885  -2.000  0.00  0.00    +0.384 N 
ATOM      2  H   UNL     1       1.894  -1.852  -2.080  0.00  0.00    -0.081 HD
ENDROOT
BRANCH   1   3
ATOM      3  C   UNL     1       1.784  -0.374  -0.678  0.00  0.00    -0.078 C 
BRANCH   3   4
ATOM      4  C   UNL     1       0.290  -0.617  -0.453  0.00  0.00    -0.016 C 
BRANCH   4   6
ATOM      5  C   UNL     1       0.112   1.295   1.146  0.00  0.00    +0.007 C 
ATOM      6  C   UNL     1      -0.083  -0.213   0.975  0.00  0.00    -0.019 C 
ATOM      7  C   UNL     1      -1.547  -0.571   1.240  0.00  0.00    +0.007 C 
ENDBRANCH   4   6
ENDBRANCH   3   4
ENDBRANCH   1   3
BRANCH   1   8
ATOM      8  C   UNL     1       3.626  -0.777  -2.161  0.00  0.00    -0.035 C 
BRANCH   8   9
ATOM      9  C   UNL     1       4.310  -1.681  -1.168  0.00  0.00    +0.025 A 
ATOM     10  C   UNL     1       4.816  -1.298   0.091  0.00  0.00    +0.117 A 
ATOM     11  N   UNL     1       5.336  -2.362   0.659  0.00  0.00    -0.076 NA
ATOM     12  O   UNL     1       5.173  -3.454  -0.227  0.00  0.00    -0.339 OA
ATOM     13  C   UNL     1       4.542  -3.009  -1.326  0.00  0.00    +0.222 A 
BRANCH  13  14
ATOM     14  N   UNL     1       4.192  -3.770  -2.426  0.00  0.00    -0.295 N 
ATOM     15  C   UNL     1       5.152  -4.014  -3.515  0.00  0.00    +0.136 C 
ATOM     16  C   UNL     1       5.193  -5.520  -3.795  0.00  0.00    +0.179 C 
ATOM     17  O   UNL     1       3.861  -5.997  -4.004  0.00  0.00    -0.377 OA
ATOM     18  C   UNL     1       3.002  -5.850  -2.871  0.00  0.00    +0.179 C 
ATOM     19  C   UNL     1       2.851  -4.364  -2.541  0.00  0.00    +0.136 C 
ENDBRANCH  13  14
BRANCH  10  20
ATOM     20  C   UNL     1       4.770   0.067   0.672  0.00  0.00    +0.004 A 
ATOM     21  C   UNL     1       5.063   1.175  -0.120  0.00  0.00    +0.010 A 
ATOM     22  C   UNL     1       5.019   2.442   0.425  0.00  0.00    +0.001 A 
ATOM     23  C   UNL     1       4.683   2.614   1.756  0.00  0.00    +0.000 A 
ATOM     24  C   UNL     1       4.391   1.518   2.547  0.00  0.00    +0.001 A 
ATOM     25  C   UNL     1       4.428   0.246   2.011  0.00  0.00    +0.010 A 
ENDBRANCH  10  20
ENDBRANCH   8   9
ENDBRANCH   1   8
BRANCH   1  26
ATOM     26  C   UNL     1       1.502  -0.097  -3.044  0.00  0.00    -0.044 C 
BRANCH  26  27
ATOM     27  C   UNL     1       1.782  -0.721  -4.412  0.00  0.00    +0.124 C 
BRANCH  27  28
ATOM     28  O   UNL     1       1.183  -2.017  -4.477  0.00  0.00    -0.391 OA
ATOM     29  H   UNL     1       0.217  -2.006  -4.433  0.00  0.00    +0.210 HD
ENDBRANCH  27  28
BRANCH  27  30
ATOM     30  C   UNL     1       1.194   0.168  -5.509  0.00  0.00    +0.189 C 
BRANCH  30  31
ATOM     31  O   UNL     1       1.555  -0.352  -6.790  0.00  0.00    -0.370 OA
BRANCH  31  32
ATOM     32  C   UNL     1       1.053   0.409  -7.890  0.00  0.00    +0.234 C 
BRANCH  32  33
ATOM     33  C   UNL     1       1.492  -0.227  -9.183  0.00  0.00    +0.130 A 
ATOM     34  C   UNL     1       0.814  -1.165  -9.869  0.00  0.00    +0.047 A 
ATOM     35  C   UNL     1       1.586  -1.474 -11.013  0.00  0.00    +0.041 A 
ATOM     36  C   UNL     1       2.690  -0.707 -10.957  0.00  0.00    +0.195 A 
ATOM     37  O   UNL     1       2.625   0.050  -9.850  0.00  0.00    -0.465 OA
ENDBRANCH  32  33
ENDBRANCH  31  32
ENDBRANCH  30  31
ENDBRANCH  27  30
ENDBRANCH  26  27
ENDBRANCH   1  26
TORSDOF 14
