REMARK  Name = ZINC48563304
REMARK  7 active torsions:
REMARK  status: ('A' for Active; 'I' for Inactive)
REMARK    1  A    between atoms: C_1  and  O_2
REMARK    2  A    between atoms: O_2  and  C_3
REMARK    3  A    between atoms: C_3  and  C_5
REMARK    4  A    between atoms: C_11  and  C_13
REMARK    5  A    between atoms: C_13  and  N_14
REMARK    6  A    between atoms: C_17  and  C_20
REMARK    7  A    between atoms: C_20  and  N_21
REMARK                            x       y       z     vdW  Elec       q    Type
REMARK                         _______ _______ _______ _____ _____    ______ ____
ROOT
ATOM      1  N   UNL     1       5.199  -6.462  -2.520  0.00  0.00    +0.385 N 
ATOM      2  C   UNL     1       4.566  -7.596  -1.837  0.00  0.00    -0.078 C 
ATOM      3  C   UNL     1       5.619  -8.663  -1.530  0.00  0.00    -0.017 C 
ATOM      4  C   UNL     1       6.250  -9.142  -2.841  0.00  0.00    -0.031 C 
ATOM      5  C   UNL     1       6.842  -7.939  -3.581  0.00  0.00    -0.017 C 
ATOM      6  C   UNL     1       5.744  -6.899  -3.812  0.00  0.00    -0.078 C 
ATOM      7  H   UNL     1       5.946  -6.100  -1.946  0.00  0.00    -0.081 HD
ENDROOT
BRANCH   1   8
ATOM      8  C   UNL     1       4.201  -5.407  -2.743  0.00  0.00    +0.019 C 
BRANCH   8  15
ATOM      9  C   UNL     1       1.796  -1.250  -1.310  0.00  0.00    +0.101 C 
ATOM     10  C   UNL     1       2.510  -1.837  -0.090  0.00  0.00    +0.033 C 
ATOM     11  C   UNL     1       2.339  -3.359  -0.086  0.00  0.00    +0.108 C 
ATOM     12  N   UNL     1       2.808  -3.891  -1.373  0.00  0.00    -0.303 N 
ATOM     13  C   UNL     1       2.251  -3.333  -2.612  0.00  0.00    +0.108 C 
ATOM     14  C   UNL     1       2.423  -1.810  -2.588  0.00  0.00    +0.033 C 
ATOM     15  C   UNL     1       3.731  -4.872  -1.415  0.00  0.00    +0.199 C 
ATOM     16  O   UNL     1       4.183  -5.324  -0.385  0.00  0.00    -0.278 OA
BRANCH   9  17
ATOM     17  C   UNL     1       1.933   0.250  -1.299  0.00  0.00    +0.310 C 
ATOM     18  O   UNL     1       2.476   0.814  -2.219  0.00  0.00    -0.251 OA
BRANCH  17  20
ATOM     19  C   UNL     1       1.616   2.379  -0.323  0.00  0.00    +0.280 C 
ATOM     20  O   UNL     1       1.451   0.961  -0.267  0.00  0.00    -0.468 OA
ENDBRANCH  17  20
ENDBRANCH   9  17
ENDBRANCH   8  15
ENDBRANCH   1   8
BRANCH   4  21
ATOM     21  C   UNL     1       7.359 -10.152  -2.537  0.00  0.00    -0.076 C 
BRANCH  21  22
ATOM     22  N   UNL     1       7.910 -10.668  -3.796  0.00  0.00    +0.380 N 
ATOM     23  C   UNL     1       6.846 -11.396  -4.515  0.00  0.00    -0.079 C 
ATOM     24  C   UNL     1       7.181 -11.393  -5.986  0.00  0.00    -0.019 C 
ATOM     25  C   UNL     1       7.905 -12.688  -6.401  0.00  0.00    -0.002 C 
ATOM     26  C   UNL     1       8.939 -13.129  -5.345  0.00  0.00    -0.002 C 
ATOM     27  C   UNL     1       9.720 -11.967  -4.786  0.00  0.00    -0.019 C 
ATOM     28  C   UNL     1       9.023 -11.460  -3.507  0.00  0.00    -0.079 C 
ATOM     29  H   UNL     1       8.206  -9.888  -4.363  0.00  0.00    -0.082 HD
ENDBRANCH  21  22
ENDBRANCH   4  21
TORSDOF 6
