REMARK  Name = ZINC46550230
REMARK  10 active torsions:
REMARK  status: ('A' for Active; 'I' for Inactive)
REMARK    1  A    between atoms: C_1  and  C_2
REMARK    2  A    between atoms: C_2  and  C_3
REMARK    3  A    between atoms: C_2  and  C_4
REMARK    4  A    between atoms: C_2  and  O_5
REMARK    5  A    between atoms: O_5  and  C_6
REMARK    6  A    between atoms: C_14  and  C_16
REMARK    7  A    between atoms: C_20  and  O_28
REMARK    8  A    between atoms: C_22  and  O_26
REMARK    9  A    between atoms: O_26  and  C_27
REMARK   10  A    between atoms: O_28  and  C_29
REMARK                            x       y       z     vdW  Elec       q    Type
REMARK                         _______ _______ _______ _____ _____    ______ ____
ROOT
ATOM      1  C   UNL     1       4.310  -1.985  -0.966  0.00  0.00    +0.403 C 
ATOM      2  O   UNL     1       4.873  -1.257  -0.173  0.00  0.00    -0.226 OA
ATOM      3  N   UNL     1       4.525  -1.835  -2.288  0.00  0.00    -0.264 N 
ATOM      4  C   UNL     1       3.847  -2.705  -3.259  0.00  0.00    +0.130 C 
ATOM      5  C   UNL     1       3.094  -1.823  -4.263  0.00  0.00    +0.127 C 
ATOM      6  N   UNL     1       4.011  -0.788  -4.760  0.00  0.00    -0.293 N 
ATOM      7  C   UNL     1       4.689   0.082  -3.788  0.00  0.00    +0.127 C 
ATOM      8  C   UNL     1       5.438  -0.796  -2.784  0.00  0.00    +0.130 C 
ATOM      9  C   UNL     1       4.226  -0.638  -6.082  0.00  0.00    +0.263 C 
ATOM     10  O   UNL     1       4.927   0.270  -6.485  0.00  0.00    -0.268 OA
ENDROOT
BRANCH   9  11
ATOM     11  C   UNL     1       3.613  -1.574  -7.037  0.00  0.00    +0.103 A 
ATOM     12  C   UNL     1       4.238  -2.127  -8.109  0.00  0.00    +0.041 A 
ATOM     13  C   UNL     1       3.306  -2.965  -8.768  0.00  0.00    +0.007 A 
ATOM     14  C   UNL     1       3.382  -3.776  -9.909  0.00  0.00    +0.056 A 
ATOM     15  C   UNL     1       2.277  -4.493 -10.314  0.00  0.00    +0.124 A 
ATOM     16  C   UNL     1       1.085  -4.416  -9.597  0.00  0.00    +0.093 A 
ATOM     17  C   UNL     1       0.993  -3.622  -8.472  0.00  0.00    +0.147 A 
ATOM     18  C   UNL     1       2.102  -2.888  -8.045  0.00  0.00    +0.089 A 
ATOM     19  N   UNL     1       2.313  -2.035  -6.984  0.00  0.00    -0.348 N 
ATOM     20  H   UNL     1       1.655  -1.795  -6.312  0.00  0.00    +0.166 HD
BRANCH  17  21
ATOM     21  O   UNL     1      -0.175  -3.555  -7.780  0.00  0.00    -0.493 OA
ATOM     22  C   UNL     1      -1.267  -4.333  -8.273  0.00  0.00    +0.277 C 
ENDBRANCH  17  21
BRANCH  15  23
ATOM     23  O   UNL     1       2.350  -5.280 -11.421  0.00  0.00    -0.495 OA
ATOM     24  C   UNL     1       1.169  -5.997 -11.787  0.00  0.00    +0.277 C 
ENDBRANCH  15  23
ENDBRANCH   9  11
BRANCH   1  25
ATOM     25  O   UNL     1       3.471  -2.941  -0.524  0.00  0.00    -0.445 OA
BRANCH  25  27
ATOM     26  C   UNL     1       2.731  -1.725   1.428  0.00  0.00    +0.055 C 
ATOM     27  C   UNL     1       3.290  -3.043   0.889  0.00  0.00    +0.107 C 
ATOM     28  C   UNL     1       4.636  -3.337   1.556  0.00  0.00    +0.055 C 
ATOM     29  C   UNL     1       2.310  -4.177   1.198  0.00  0.00    +0.055 C 
ENDBRANCH  25  27
ENDBRANCH   1  25
TORSDOF 5
