REMARK  Name = ZINC12786634
REMARK  9 active torsions:
REMARK  status: ('A' for Active; 'I' for Inactive)
REMARK    1  A    between atoms: C_1  and  C_2
REMARK    2  A    between atoms: C_2  and  C_4
REMARK    3  A    between atoms: C_2  and  O_14
REMARK    4  A    between atoms: N_9  and  C_10
REMARK    5  A    between atoms: C_10  and  C_11
REMARK    6  A    between atoms: C_11  and  C_12
REMARK    7  A    between atoms: C_11  and  C_13
REMARK    8  A    between atoms: O_14  and  C_15
REMARK    9  A    between atoms: C_15  and  C_17
REMARK                            x       y       z     vdW  Elec       q    Type
REMARK                         _______ _______ _______ _____ _____    ______ ____
ROOT
ATOM      1  C   UNL     1      -1.924  -0.704  -1.183  0.00  0.00    +0.340 C 
ATOM      2  O   UNL     1      -1.313  -0.469  -2.207  0.00  0.00    -0.245 OA
ENDROOT
BRANCH   1   3
ATOM      3  C   UNL     1      -3.311  -1.215  -1.250  0.00  0.00    +0.061 A 
ATOM      4  C   UNL     1      -4.009  -1.485  -0.066  0.00  0.00    +0.016 A 
ATOM      5  C   UNL     1      -5.294  -1.952  -0.112  0.00  0.00    +0.016 A 
ATOM      6  C   UNL     1      -5.909  -2.167  -1.342  0.00  0.00    +0.065 A 
ATOM      7  C   UNL     1      -5.215  -1.913  -2.545  0.00  0.00    +0.079 A 
ATOM      8  C   UNL     1      -3.909  -1.425  -2.487  0.00  0.00    +0.043 A 
ATOM      9  N   UNL     1      -5.831  -2.195  -3.708  0.00  0.00    -0.233 NA
ATOM     10  C   UNL     1      -7.069  -2.644  -3.797  0.00  0.00    +0.113 A 
ATOM     11  N   UNL     1      -7.845  -2.767  -2.707  0.00  0.00    -0.296 N 
ATOM     12  C   UNL     1      -7.287  -2.658  -1.458  0.00  0.00    +0.262 A 
ATOM     13  O   UNL     1      -7.942  -2.963  -0.477  0.00  0.00    -0.267 OA
ATOM     14  C   UNL     1      -9.288  -2.936  -2.687  0.00  0.00    +0.126 C 
ATOM     15  C   UNL     1      -9.873  -3.522  -3.998  0.00  0.00    +0.022 C 
ATOM     16  C   UNL     1     -10.517  -2.277  -4.686  0.00  0.00    +0.002 C 
ATOM     17  C   UNL     1      -9.354  -1.351  -5.100  0.00  0.00    +0.000 C 
ATOM     18  C   UNL     1      -8.266  -1.994  -5.928  0.00  0.00    +0.008 C 
ATOM     19  C   UNL     1      -7.445  -3.041  -5.204  0.00  0.00    +0.074 C 
ENDBRANCH   1   3
BRANCH   1  20
ATOM     20  O   UNL     1      -1.339  -0.499   0.012  0.00  0.00    -0.449 OA
BRANCH  20  22
ATOM     21  C   UNL     1      -0.019   1.526   0.010  0.00  0.00    +0.062 C 
ATOM     22  C   UNL     1       0.002  -0.004   0.002  0.00  0.00    +0.259 C 
BRANCH  22  23
ATOM     23  C   UNL     1       0.731  -0.503   1.223  0.00  0.00    +0.261 C 
ATOM     24  O   UNL     1       0.135  -1.137   2.068  0.00  0.00    -0.271 OA
ATOM     25  N   UNL     1       2.045  -0.246   1.375  0.00  0.00    -0.237 N 
ATOM     26  C   UNL     1       2.697  -0.692   2.467  0.00  0.00    +0.306 C 
ATOM     27  O   UNL     1       2.100  -1.327   3.314  0.00  0.00    -0.252 OA
ATOM     28  N   UNL     1       4.011  -0.435   2.620  0.00  0.00    -0.299 N 
ATOM     29  H   UNL     1       2.522   0.261   0.699  0.00  0.00    +0.159 HD
ATOM     30  H   UNL     1       4.488   0.072   1.944  0.00  0.00    +0.150 HD
BRANCH  28  31
ATOM     31  C   UNL     1       4.720  -0.920   3.807  0.00  0.00    +0.108 C 
BRANCH  31  32
ATOM     32  C   UNL     1       6.188  -0.495   3.734  0.00  0.00    -0.000 C 
ATOM     33  C   UNL     1       6.899  -0.893   5.029  0.00  0.00    +0.009 C 
ATOM     34  C   UNL     1       6.861  -1.189   2.548  0.00  0.00    +0.009 C 
ENDBRANCH  31  32
ENDBRANCH  28  31
ENDBRANCH  22  23
ENDBRANCH  20  22
ENDBRANCH   1  20
TORSDOF 6
