REMARK  Name = ZINC14744060
REMARK  14 active torsions:
REMARK  status: ('A' for Active; 'I' for Inactive)
REMARK    1  A    between atoms: C_1  and  C_2
REMARK    2  A    between atoms: C_2  and  C_3
REMARK    3  A    between atoms: C_2  and  C_4
REMARK    4  A    between atoms: C_4  and  N_5
REMARK    5  A    between atoms: C_8  and  C_10
REMARK    6  A    between atoms: C_19  and  N_69
REMARK    7  A    between atoms: C_23  and  C_24
REMARK    8  A    between atoms: C_23  and  N_69
REMARK    9  A    between atoms: C_24  and  C_25
REMARK   10  A    between atoms: C_24  and  C_26
REMARK   11  A    between atoms: C_24  and  C_27
REMARK   12  A    between atoms: C_27  and  N_72
REMARK   13  A    between atoms: C_28  and  N_72
REMARK   14  A    between atoms: C_29  and  N_72
REMARK                            x       y       z     vdW  Elec       q    Type
REMARK                         _______ _______ _______ _____ _____    ______ ____
ROOT
ATOM      1  N   UNL     1      -5.031   3.836  -1.614  0.00  0.00    -0.267 N 
ATOM      2  C   UNL     1      -4.273   4.919  -1.379  0.00  0.00    +0.043 A 
ATOM      3  C   UNL     1      -3.042   4.665  -1.889  0.00  0.00    +0.004 A 
ATOM      4  C   UNL     1      -3.114   3.379  -2.449  0.00  0.00    +0.151 A 
ATOM      5  N   UNL     1      -4.345   2.943  -2.240  0.00  0.00    -0.166 NA
ATOM      6  C   UNL     1      -1.880   5.617  -1.829  0.00  0.00    +0.023 C 
ATOM      7  C   UNL     1      -2.188   6.689  -0.774  0.00  0.00    -0.067 C 
ATOM      8  C   UNL     1      -3.587   7.260  -1.019  0.00  0.00    -0.009 C 
ATOM      9  C   UNL     1      -4.646   6.204  -0.685  0.00  0.00    +0.054 C 
ENDROOT
BRANCH   4  10
ATOM     10  C   UNL     1      -2.026   2.653  -3.134  0.00  0.00    +0.267 C 
ATOM     11  O   UNL     1      -0.903   3.119  -3.155  0.00  0.00    -0.268 OA
ATOM     12  N   UNL     1      -2.278   1.476  -3.740  0.00  0.00    -0.292 N 
ATOM     13  C   UNL     1      -3.603   0.842  -3.643  0.00  0.00    +0.136 C 
ATOM     14  C   UNL     1      -4.066   0.480  -5.063  0.00  0.00    +0.179 C 
ATOM     15  O   UNL     1      -3.044  -0.283  -5.710  0.00  0.00    -0.377 OA
ATOM     16  C   UNL     1      -1.813   0.421  -5.888  0.00  0.00    +0.179 C 
ATOM     17  C   UNL     1      -1.235   0.783  -4.514  0.00  0.00    +0.136 C 
ENDBRANCH   4  10
BRANCH   7  18
ATOM     18  N   UNL     1      -1.190   7.770  -0.877  0.00  0.00    +0.381 N 
ATOM     19  H   UNL     1      -1.486   8.437  -1.599  0.00  0.00    -0.085 HD
ATOM     20  H   UNL     1      -0.281   7.369  -1.134  0.00  0.00    -0.085 HD
BRANCH  18  21
ATOM     21  C   UNL     1      -1.064   8.474   0.413  0.00  0.00    -0.078 C 
BRANCH  21  22
ATOM     22  C   UNL     1      -0.024   9.588   0.277  0.00  0.00    -0.065 C 
ATOM     23  C   UNL     1       1.325   8.981  -0.112  0.00  0.00    +0.007 C 
ATOM     24  C   UNL     1      -0.471  10.573  -0.805  0.00  0.00    +0.007 C 
BRANCH  22  25
ATOM     25  C   UNL     1       0.113  10.324   1.611  0.00  0.00    -0.075 C 
BRANCH  25  28
ATOM     26  C   UNL     1       0.745  12.523   2.403  0.00  0.00    -0.097 C 
ATOM     27  C   UNL     1       2.443  10.985   1.621  0.00  0.00    -0.097 C 
ATOM     28  N   UNL     1       1.053  11.451   1.433  0.00  0.00    +0.376 N 
ATOM     29  H   UNL     1       0.951  11.823   0.482  0.00  0.00    -0.083 HD
ENDBRANCH  25  28
ENDBRANCH  22  25
ENDBRANCH  21  22
ENDBRANCH  18  21
ENDBRANCH   7  18
BRANCH   1  30
ATOM     30  C   UNL     1      -6.434   3.691  -1.216  0.00  0.00    +0.146 C 
BRANCH  30  32
ATOM     31  C   UNL     1      -5.896   4.043   1.198  0.00  0.00    +0.009 C 
ATOM     32  C   UNL     1      -6.507   3.075   0.182  0.00  0.00    +0.004 C 
ATOM     33  C   UNL     1      -7.968   2.808   0.547  0.00  0.00    +0.009 C 
ENDBRANCH  30  32
ENDBRANCH   1  30
TORSDOF 8
