REMARK  Name = ZINC09429642
REMARK  8 active torsions:
REMARK  status: ('A' for Active; 'I' for Inactive)
REMARK    1  A    between atoms: C_1  and  C_2
REMARK    2  A    between atoms: C_2  and  C_3
REMARK    3  A    between atoms: C_3  and  C_5
REMARK    4  A    between atoms: C_3  and  N_6
REMARK    5  A    between atoms: C_11  and  C_28
REMARK    6  A    between atoms: C_28  and  C_29
REMARK    7  A    between atoms: C_29  and  C_30
REMARK    8  A    between atoms: C_29  and  C_31
REMARK                            x       y       z     vdW  Elec       q    Type
REMARK                         _______ _______ _______ _____ _____    ______ ____
ROOT
ATOM      1  N   UNL     1       1.573   5.738   1.455  0.00  0.00    -0.239 N 
ATOM      2  C   UNL     1       2.850   6.094   1.279  0.00  0.00    +0.224 C 
ATOM      3  O   UNL     1       3.305   7.198   1.490  0.00  0.00    -0.275 OA
ATOM      4  C   UNL     1       3.651   4.894   0.779  0.00  0.00    +0.073 C 
ATOM      5  C   UNL     1       4.098   5.145  -0.676  0.00  0.00    -0.057 C 
ATOM      6  C   UNL     1       2.462   3.483  -0.822  0.00  0.00    +0.050 C 
ATOM      7  C   UNL     1       2.570   3.782   0.679  0.00  0.00    +0.088 C 
ATOM      8  C   UNL     1       1.305   4.462   1.153  0.00  0.00    +0.225 C 
ATOM      9  O   UNL     1       0.217   3.934   1.244  0.00  0.00    -0.275 OA
ATOM     10  C   UNL     1       1.049   3.160  -1.218  0.00  0.00    -0.027 A 
ATOM     11  C   UNL     1      -0.140   3.850  -1.138  0.00  0.00    +0.019 A 
ATOM     12  C   UNL     1      -1.310   3.270  -1.598  0.00  0.00    +0.018 A 
ATOM     13  C   UNL     1      -1.280   1.998  -2.142  0.00  0.00    +0.017 A 
ATOM     14  C   UNL     1      -0.092   1.302  -2.219  0.00  0.00    +0.024 A 
ATOM     15  C   UNL     1       1.090   1.878  -1.760  0.00  0.00    +0.036 A 
ATOM     16  N   UNL     1       2.397   1.386  -1.735  0.00  0.00    -0.286 N 
ATOM     17  C   UNL     1       3.263   2.268  -1.200  0.00  0.00    +0.211 C 
ATOM     18  O   UNL     1       4.457   2.112  -1.050  0.00  0.00    -0.277 OA
ATOM     19 BR   UNL     1      -2.944   4.216  -1.488  0.00  0.00    -0.050 Br
ATOM     20  H   UNL     1       2.651   0.510  -2.066  0.00  0.00    +0.155 HD
ATOM     21  N   UNL     1       2.967   4.675  -1.480  0.00  0.00    +0.394 N 
ATOM     22  H   UNL     1       3.278   4.449  -2.433  0.00  0.00    -0.083 HD
ATOM     23  H   UNL     1       2.237   5.396  -1.520  0.00  0.00    -0.083 HD
ENDROOT
BRANCH   1  24
ATOM     24  C   UNL     1       0.550   6.668   1.941  0.00  0.00    +0.081 C 
ATOM     25  C   UNL     1       0.434   7.848   0.974  0.00  0.00    +0.028 C 
BRANCH  24  27
ATOM     26  C   UNL     1       0.940   6.020   4.322  0.00  0.00    +0.006 C 
ATOM     27  C   UNL     1       0.945   7.182   3.327  0.00  0.00    +0.019 C 
ENDBRANCH  24  27
ENDBRANCH   1  24
BRANCH   5  28
ATOM     28  C   UNL     1       5.350   4.326  -0.998  0.00  0.00    -0.012 C 
BRANCH  28  29
ATOM     29  C   UNL     1       6.596   5.165  -0.709  0.00  0.00    -0.019 C 
ATOM     30  C   UNL     1       7.846   4.300  -0.887  0.00  0.00    +0.007 C 
ATOM     31  C   UNL     1       6.652   6.346  -1.680  0.00  0.00    +0.007 C 
ENDBRANCH  28  29
ENDBRANCH   5  28
TORSDOF 4
