REMARK  Name = ZINC14380407
REMARK  7 active torsions:
REMARK  status: ('A' for Active; 'I' for Inactive)
REMARK    1  A    between atoms: C_1  and  C_2
REMARK    2  A    between atoms: C_2  and  C_3
REMARK    3  A    between atoms: C_2  and  C_4
REMARK    4  A    between atoms: C_4  and  C_5
REMARK    5  A    between atoms: C_11  and  C_13
REMARK    6  A    between atoms: N_16  and  C_19
REMARK    7  A    between atoms: C_24  and  N_25
REMARK                            x       y       z     vdW  Elec       q    Type
REMARK                         _______ _______ _______ _____ _____    ______ ____
ROOT
ATOM      1  C   UNL     1      -0.774   3.078  -1.238  0.00  0.00    +0.078 C 
ATOM      2  C   UNL     1      -0.834   1.548  -1.222  0.00  0.00    +0.031 C 
ATOM      3  C   UNL     1      -0.087   1.026   0.008  0.00  0.00    +0.106 C 
ATOM      4  N   UNL     1      -0.704   1.571   1.224  0.00  0.00    -0.328 N 
ATOM      5  C   UNL     1      -0.616   3.037   1.253  0.00  0.00    +0.106 C 
ATOM      6  C   UNL     1      -1.379   3.618   0.060  0.00  0.00    +0.031 C 
ENDROOT
BRANCH   1  13
ATOM      7  C   UNL     1      -3.646   6.652  -5.654  0.00  0.00    +0.104 A 
ATOM      8  N   UNL     1      -3.653   5.336  -5.575  0.00  0.00    -0.145 NA
ATOM      9  N   UNL     1      -3.035   4.744  -4.647  0.00  0.00    -0.126 NA
ATOM     10  C   UNL     1      -2.371   5.408  -3.716  0.00  0.00    +0.188 A 
ATOM     11  S   UNL     1      -2.645   7.048  -4.226  0.00  0.00    -0.035 S 
ATOM     12  N   UNL     1      -1.647   4.926  -2.631  0.00  0.00    -0.263 N 
ATOM     13  C   UNL     1      -1.559   3.599  -2.414  0.00  0.00    +0.222 C 
ATOM     14  O   UNL     1      -2.112   2.824  -3.166  0.00  0.00    -0.275 OA
ATOM     15  H   UNL     1      -1.204   5.546  -2.030  0.00  0.00    +0.157 HD
BRANCH   7  16
ATOM     16  C   UNL     1      -4.298   7.563  -6.662  0.00  0.00    +0.068 C 
BRANCH  16  18
ATOM     17  C   UNL     1      -6.320   8.949  -7.145  0.00  0.00    +0.007 C 
ATOM     18  C   UNL     1      -5.706   7.927  -6.187  0.00  0.00    -0.011 C 
ATOM     19  C   UNL     1      -6.575   6.668  -6.158  0.00  0.00    +0.007 C 
ENDBRANCH  16  18
ENDBRANCH   7  16
ENDBRANCH   1  13
BRANCH   4  20
ATOM     20  C   UNL     1      -0.131   1.013   2.369  0.00  0.00    +0.060 A 
ATOM     21  C   UNL     1       1.208   1.244   2.661  0.00  0.00    +0.025 A 
ATOM     22  C   UNL     1       1.770   0.695   3.797  0.00  0.00    +0.002 A 
ATOM     23  C   UNL     1       1.004  -0.092   4.638  0.00  0.00    +0.002 A 
ATOM     24  C   UNL     1      -0.327  -0.328   4.347  0.00  0.00    +0.034 A 
ATOM     25  C   UNL     1      -0.896   0.222   3.216  0.00  0.00    +0.147 A 
BRANCH  25  26
ATOM     26  N   UNL     1      -2.321  -0.032   2.905  0.00  0.00    +0.058 N 
ATOM     27  O   UNL     1      -3.017  -0.643   3.696  0.00  0.00    -0.126 OA
ATOM     28  O   UNL     1      -2.798   0.371   1.859  0.00  0.00    -0.126 OA
ENDBRANCH  25  26
ENDBRANCH   4  20
TORSDOF 5
