REMARK  Name = ZINC00807298
REMARK  10 active torsions:
REMARK  status: ('A' for Active; 'I' for Inactive)
REMARK    1  A    between atoms: C_1  and  C_2
REMARK    2  A    between atoms: C_2  and  C_3
REMARK    3  A    between atoms: C_3  and  C_5
REMARK    4  A    between atoms: C_3  and  N_6
REMARK    5  A    between atoms: N_6  and  S_7
REMARK    6  A    between atoms: S_7  and  C_10
REMARK    7  A    between atoms: C_13  and  O_16
REMARK    8  A    between atoms: O_16  and  C_17
REMARK    9  A    between atoms: C_17  and  C_18
REMARK   10  A    between atoms: N_20  and  C_21
REMARK                            x       y       z     vdW  Elec       q    Type
REMARK                         _______ _______ _______ _____ _____    ______ ____
ROOT
ATOM      1  C   UNL     1      -4.555  -1.262   0.859  0.00  0.00    +0.105 A 
ATOM      2  C   UNL     1      -4.848  -1.522  -0.467  0.00  0.00    +0.032 A 
ATOM      3  C   UNL     1      -5.544  -2.665  -0.810  0.00  0.00    +0.047 A 
ATOM      4  C   UNL     1      -5.950  -3.551   0.178  0.00  0.00    +0.121 A 
ATOM      5  C   UNL     1      -5.654  -3.287   1.507  0.00  0.00    +0.047 A 
ATOM      6  C   UNL     1      -4.953  -2.146   1.845  0.00  0.00    +0.032 A 
ENDROOT
BRANCH   1   7
ATOM      7  S   UNL     1      -3.666   0.197   1.294  0.00  0.00    +0.059 S 
ATOM      8  O   UNL     1      -3.989   0.481   2.648  0.00  0.00    -0.153 OA
ATOM      9  O   UNL     1      -3.884   1.132   0.246  0.00  0.00    -0.153 OA
BRANCH   7  10
ATOM     10  N   UNL     1      -2.055  -0.184   1.260  0.00  0.00    -0.187 NA
ATOM     11  H   UNL     1      -1.534  -0.161   2.079  0.00  0.00    +0.148 HD
BRANCH  10  12
ATOM     12  C   UNL     1      -1.415  -0.554  -0.005  0.00  0.00    +0.073 C 
ATOM     13  C   UNL     1      -1.404  -2.077  -0.144  0.00  0.00    +0.025 C 
BRANCH  12  15
ATOM     14  C   UNL     1       0.006   1.501  -0.009  0.00  0.00    +0.005 C 
ATOM     15  C   UNL     1       0.022  -0.029  -0.022  0.00  0.00    +0.017 C 
ENDBRANCH  12  15
ENDBRANCH  10  12
ENDBRANCH   7  10
ENDBRANCH   1   7
BRANCH   4  16
ATOM     16  O   UNL     1      -6.636  -4.675  -0.157  0.00  0.00    -0.483 OA
BRANCH  16  17
ATOM     17  C   UNL     1      -7.022  -5.542   0.911  0.00  0.00    +0.324 C 
BRANCH  17  18
ATOM     18  C   UNL     1      -7.767  -6.727   0.353  0.00  0.00    +0.255 C 
ATOM     19  O   UNL     1      -7.950  -6.820  -0.843  0.00  0.00    -0.272 OA
ATOM     20  N   UNL     1      -8.230  -7.684   1.182  0.00  0.00    -0.283 N 
ATOM     21  H   UNL     1      -8.027  -7.644   2.129  0.00  0.00    +0.155 HD
BRANCH  20  22
ATOM     22  C   UNL     1      -9.006  -8.735   0.674  0.00  0.00    +0.037 A 
ATOM     23  C   UNL     1     -10.043  -9.261   1.433  0.00  0.00    +0.027 A 
ATOM     24  C   UNL     1     -10.809 -10.296   0.934  0.00  0.00    +0.051 A 
ATOM     25  C   UNL     1     -10.544 -10.814  -0.324  0.00  0.00    +0.166 A 
ATOM     26  C   UNL     1      -9.504 -10.288  -1.087  0.00  0.00    +0.168 A 
ATOM     27  C   UNL     1      -8.741  -9.246  -0.588  0.00  0.00    +0.072 A 
ATOM     28  O   UNL     1      -9.449 -10.962  -2.273  0.00  0.00    -0.453 OA
ATOM     29  C   UNL     1     -10.199 -12.174  -2.062  0.00  0.00    +0.466 C 
ATOM     30  O   UNL     1     -11.141 -11.818  -1.032  0.00  0.00    -0.453 OA
ENDBRANCH  20  22
ENDBRANCH  17  18
ENDBRANCH  16  17
ENDBRANCH   4  16
TORSDOF 8
