REMARK  Name = ZINC09021898
REMARK  10 active torsions:
REMARK  status: ('A' for Active; 'I' for Inactive)
REMARK    1  A    between atoms: C_1  and  C_2
REMARK    2  A    between atoms: C_5  and  C_9
REMARK    3  A    between atoms: C_6  and  O_8
REMARK    4  A    between atoms: C_9  and  O_11
REMARK    5  A    between atoms: O_11  and  C_12
REMARK    6  A    between atoms: C_12  and  C_14
REMARK    7  A    between atoms: C_12  and  C_15
REMARK    8  A    between atoms: N_17  and  C_18
REMARK    9  A    between atoms: C_21  and  S_24
REMARK   10  A    between atoms: S_24  and  N_27
REMARK                            x       y       z     vdW  Elec       q    Type
REMARK                         _______ _______ _______ _____ _____    ______ ____
ROOT
ATOM      1  C   UNL     1      -0.629  -6.906  -2.351  0.00  0.00    +0.258 C 
ATOM      2  O   UNL     1      -1.032  -6.163  -3.221  0.00  0.00    -0.271 OA
ATOM      3  N   UNL     1      -0.822  -8.236  -2.458  0.00  0.00    -0.282 N 
ATOM      4  H   UNL     1      -0.443  -8.835  -1.797  0.00  0.00    +0.155 HD
ENDROOT
BRANCH   3   5
ATOM      5  C   UNL     1      -1.571  -8.751  -3.522  0.00  0.00    +0.034 A 
ATOM      6  C   UNL     1      -2.382  -9.861  -3.328  0.00  0.00    +0.025 A 
ATOM      7  C   UNL     1      -3.120 -10.367  -4.381  0.00  0.00    +0.030 A 
ATOM      8  C   UNL     1      -3.051  -9.769  -5.626  0.00  0.00    +0.106 A 
ATOM      9  C   UNL     1      -2.244  -8.663  -5.821  0.00  0.00    +0.030 A 
ATOM     10  C   UNL     1      -1.509  -8.149  -4.772  0.00  0.00    +0.025 A 
BRANCH   8  11
ATOM     11  S   UNL     1      -3.994 -10.418  -6.965  0.00  0.00    +0.061 S 
ATOM     12  O   UNL     1      -3.337 -10.012  -8.158  0.00  0.00    -0.153 OA
ATOM     13  O   UNL     1      -4.246 -11.783  -6.661  0.00  0.00    -0.153 OA
BRANCH  11  14
ATOM     14  N   UNL     1      -5.461  -9.650  -6.949  0.00  0.00    -0.172 NA
ATOM     15  C   UNL     1      -6.591 -10.193  -6.178  0.00  0.00    +0.137 C 
ATOM     16  C   UNL     1      -7.168  -9.069  -5.310  0.00  0.00    +0.177 C 
ATOM     17  O   UNL     1      -7.448  -7.934  -6.133  0.00  0.00    -0.377 OA
ATOM     18  C   UNL     1      -6.295  -7.368  -6.761  0.00  0.00    +0.177 C 
ATOM     19  C   UNL     1      -5.672  -8.402  -7.699  0.00  0.00    +0.137 C 
ENDBRANCH  11  14
ENDBRANCH   8  11
ENDBRANCH   3   5
BRANCH   1  20
ATOM     20  C   UNL     1       0.088  -6.343  -1.151  0.00  0.00    +0.259 C 
ATOM     21  C   UNL     1       1.538  -6.830  -1.147  0.00  0.00    +0.062 C 
BRANCH  20  22
ATOM     22  O   UNL     1       0.066  -4.915  -1.210  0.00  0.00    -0.449 OA
BRANCH  22  23
ATOM     23  C   UNL     1       0.070  -4.254  -0.035  0.00  0.00    +0.343 C 
ATOM     24  O   UNL     1       0.092  -4.873   1.010  0.00  0.00    -0.245 OA
BRANCH  23  29
ATOM     25  C   UNL     1      -0.017   1.500   0.022  0.00  0.00    +0.044 C 
ATOM     26  C   UNL     1       0.006  -0.007   0.011  0.00  0.00    -0.047 A 
ATOM     27  C   UNL     1       0.002  -0.687  -1.197  0.00  0.00    +0.004 A 
ATOM     28  C   UNL     1       0.023  -2.064  -1.219  0.00  0.00    +0.019 A 
ATOM     29  C   UNL     1       0.048  -2.780  -0.019  0.00  0.00    +0.100 A 
ATOM     30  C   UNL     1       0.052  -2.088   1.200  0.00  0.00    +0.131 A 
ATOM     31  C   UNL     1       0.036  -0.702   1.203  0.00  0.00    +0.049 A 
BRANCH  30  32
ATOM     32  O   UNL     1       0.076  -2.772   2.372  0.00  0.00    -0.506 OA
ATOM     33  H   UNL     1       0.966  -2.957   2.701  0.00  0.00    +0.292 HD
ENDBRANCH  30  32
ENDBRANCH  23  29
ENDBRANCH  22  23
ENDBRANCH  20  22
ENDBRANCH   1  20
TORSDOF 8
