REMARK  Name = ZINC49908073
REMARK  8 active torsions:
REMARK  status: ('A' for Active; 'I' for Inactive)
REMARK    1  A    between atoms: C_1  and  C_2
REMARK    2  A    between atoms: C_2  and  C_3
REMARK    3  A    between atoms: C_2  and  N_20
REMARK    4  A    between atoms: N_9  and  C_12
REMARK    5  A    between atoms: C_15  and  O_18
REMARK    6  A    between atoms: O_18  and  C_19
REMARK    7  A    between atoms: N_20  and  C_21
REMARK    8  A    between atoms: C_22  and  C_23
REMARK                            x       y       z     vdW  Elec       q    Type
REMARK                         _______ _______ _______ _____ _____    ______ ____
ROOT
ATOM      1  C   UNL     1      -2.552   1.586  -1.516  0.00  0.00    +0.100 A 
ATOM      2  C   UNL     1      -3.053   1.454  -0.208  0.00  0.00    +0.263 A 
ATOM      3  O   UNL     1      -2.687   2.219   0.668  0.00  0.00    -0.267 OA
ATOM      4  N   UNL     1      -3.940   0.478   0.069  0.00  0.00    -0.274 N 
ATOM      5  C   UNL     1      -4.348  -0.368  -0.894  0.00  0.00    +0.337 A 
ATOM      6  O   UNL     1      -5.149  -1.242  -0.624  0.00  0.00    -0.246 OA
ATOM      7  N   UNL     1      -3.882  -0.261  -2.152  0.00  0.00    -0.229 N 
ATOM      8  C   UNL     1      -2.981   0.722  -2.479  0.00  0.00    +0.270 A 
ATOM      9  O   UNL     1      -2.520   0.829  -3.744  0.00  0.00    -0.267 OA
ATOM     10  H   UNL     1      -4.287   0.385   0.970  0.00  0.00    +0.173 HD
ENDROOT
BRANCH   7  11
ATOM     11  C   UNL     1      -4.325  -1.157  -3.137  0.00  0.00    +0.055 A 
ATOM     12  C   UNL     1      -5.447  -0.855  -3.896  0.00  0.00    +0.030 A 
ATOM     13  C   UNL     1      -5.882  -1.736  -4.866  0.00  0.00    +0.047 A 
ATOM     14  C   UNL     1      -5.198  -2.923  -5.082  0.00  0.00    +0.120 A 
ATOM     15  C   UNL     1      -4.076  -3.225  -4.323  0.00  0.00    +0.047 A 
ATOM     16  C   UNL     1      -3.637  -2.342  -3.357  0.00  0.00    +0.030 A 
BRANCH  14  17
ATOM     17  O   UNL     1      -5.626  -3.791  -6.036  0.00  0.00    -0.495 OA
ATOM     18  C   UNL     1      -4.874  -4.994  -6.205  0.00  0.00    +0.277 C 
ENDBRANCH  14  17
ENDBRANCH   7  11
BRANCH   1  20
ATOM     19  C   UNL     1      -0.254   2.416  -1.093  0.00  0.00    +0.031 C 
ATOM     20  C   UNL     1      -1.560   2.670  -1.849  0.00  0.00    +0.091 C 
BRANCH  20  21
ATOM     21  N   UNL     1      -2.108   3.974  -1.453  0.00  0.00    -0.405 NA
ATOM     22  H   UNL     1      -3.009   4.106  -1.888  0.00  0.00    +0.123 HD
ATOM     23  H   UNL     1      -2.211   4.005  -0.450  0.00  0.00    +0.123 HD
BRANCH  21  24
ATOM     24  C   UNL     1      -1.239   4.989  -1.864  0.00  0.00    +0.050 C 
ATOM     25  C   UNL     1      -1.689   5.981  -2.625  0.00  0.00    +0.016 C 
BRANCH  25  26
ATOM     26  C   UNL     1      -0.775   7.049  -3.058  0.00  0.00    -0.050 C 
ATOM     27  C   UNL     1      -1.261   8.015  -3.805  0.00  0.00    -0.023 C 
ATOM     28  C   UNL     1      -0.443   9.161  -4.325  0.00  0.00    +0.027 C 
ATOM     29  C   UNL     1       0.864   9.275  -3.537  0.00  0.00    +0.004 C 
ATOM     30  C   UNL     1       1.524   7.891  -3.485  0.00  0.00    +0.005 C 
ATOM     31  C   UNL     1       0.657   6.976  -2.615  0.00  0.00    +0.035 C 
ENDBRANCH  25  26
ENDBRANCH  21  24
ENDBRANCH  20  21
ENDBRANCH   1  20
TORSDOF 6
