REMARK  Name = ZINC14471754
REMARK  8 active torsions:
REMARK  status: ('A' for Active; 'I' for Inactive)
REMARK    1  A    between atoms: C_1  and  C_2
REMARK    2  A    between atoms: C_2  and  N_3
REMARK    3  A    between atoms: N_3  and  C_4
REMARK    4  A    between atoms: N_3  and  S_6
REMARK    5  A    between atoms: C_4  and  C_5
REMARK    6  A    between atoms: S_6  and  C_9
REMARK    7  A    between atoms: C_22  and  C_25
REMARK    8  A    between atoms: C_29  and  N_31
REMARK                            x       y       z     vdW  Elec       q    Type
REMARK                         _______ _______ _______ _____ _____    ______ ____
ROOT
ATOM      1  C   UNL     1      -0.022   1.758   0.012  0.00  0.00    +0.106 A 
ATOM      2  C   UNL     1       1.168   2.462   0.004  0.00  0.00    +0.030 A 
ATOM      3  C   UNL     1       1.146   3.843   0.013  0.00  0.00    +0.025 A 
ATOM      4  C   UNL     1      -0.068   4.518   0.030  0.00  0.00    +0.031 A 
ATOM      5  C   UNL     1      -1.264   3.816   0.034  0.00  0.00    -0.018 A 
ATOM      6  C   UNL     1      -1.228   2.428   0.021  0.00  0.00    +0.034 A 
ATOM      7  C   UNL     1      -2.594   4.500   0.047  0.00  0.00    +0.049 C 
ATOM      8  C   UNL     1      -3.247   4.410   1.406  0.00  0.00    -0.023 C 
ATOM      9  C   UNL     1      -3.899   5.516   1.670  0.00  0.00    -0.030 C 
ATOM     10  C   UNL     1      -3.774   6.494   0.518  0.00  0.00    +0.033 C 
ATOM     11  C   UNL     1      -2.496   6.013  -0.229  0.00  0.00    +0.029 C 
ATOM     12  C   UNL     1      -1.288   6.601   0.506  0.00  0.00    +0.105 C 
ATOM     13  N   UNL     1      -0.074   5.917   0.047  0.00  0.00    -0.336 N 
ATOM     14  H   UNL     1       0.704   6.422  -0.237  0.00  0.00    +0.147 HD
ENDROOT
BRANCH  12  15
ATOM     15  C   UNL     1      -1.183   8.074   0.205  0.00  0.00    -0.025 A 
ATOM     16  C   UNL     1      -0.620   8.497  -0.985  0.00  0.00    +0.005 A 
ATOM     17  C   UNL     1      -0.522   9.848  -1.261  0.00  0.00    +0.003 A 
ATOM     18  C   UNL     1      -0.989  10.776  -0.348  0.00  0.00    +0.033 A 
ATOM     19  C   UNL     1      -1.552  10.352   0.841  0.00  0.00    +0.127 A 
ATOM     20  C   UNL     1      -1.653   9.001   1.115  0.00  0.00    +0.038 A 
BRANCH  19  21
ATOM     21  N   UNL     1      -2.051  11.345   1.819  0.00  0.00    +0.056 N 
ATOM     22  O   UNL     1      -1.965  12.536   1.576  0.00  0.00    -0.126 OA
ATOM     23  O   UNL     1      -2.548  10.972   2.866  0.00  0.00    -0.126 OA
ENDBRANCH  19  21
ENDBRANCH  12  15
BRANCH   1  24
ATOM     24  S   UNL     1       0.002  -0.004   0.002  0.00  0.00    +0.061 S 
ATOM     25  O   UNL     1      -1.243  -0.424  -0.539  0.00  0.00    -0.153 OA
ATOM     26  O   UNL     1       1.248  -0.390  -0.563  0.00  0.00    -0.153 OA
BRANCH  24  27
ATOM     27  N   UNL     1       0.024  -0.502   1.581  0.00  0.00    -0.177 NA
BRANCH  27  29
ATOM     28  C   UNL     1      -1.595  -2.225   2.210  0.00  0.00    +0.022 C 
ATOM     29  C   UNL     1      -1.235  -0.740   2.292  0.00  0.00    +0.106 C 
ENDBRANCH  27  29
BRANCH  27  30
ATOM     30  C   UNL     1       1.302  -0.705   2.268  0.00  0.00    +0.106 C 
ATOM     31  C   UNL     1       1.671   0.561   3.043  0.00  0.00    +0.022 C 
ENDBRANCH  27  30
ENDBRANCH  24  27
ENDBRANCH   1  24
TORSDOF 6
