REMARK  Name = ZINC39949007
REMARK  6 active torsions:
REMARK  status: ('A' for Active; 'I' for Inactive)
REMARK    1  A    between atoms: C_1  and  C_2
REMARK    2  A    between atoms: C_2  and  O_3
REMARK    3  A    between atoms: O_3  and  C_4
REMARK    4  A    between atoms: C_4  and  C_6
REMARK    5  A    between atoms: C_8  and  N_17
REMARK    6  A    between atoms: N_17  and  C_18
REMARK                            x       y       z     vdW  Elec       q    Type
REMARK                         _______ _______ _______ _____ _____    ______ ____
ROOT
ATOM      1  N   UNL     1       0.313  -4.367  -1.637  0.00  0.00    -0.276 NA
ATOM      2  H   UNL     1       0.662  -4.653  -0.734  0.00  0.00    +0.125 HD
ENDROOT
BRANCH   1   3
ATOM      3  C   UNL     1      -0.437  -5.454  -2.280  0.00  0.00    +0.237 C 
ATOM      4  C   UNL     1      -1.908  -5.121  -2.182  0.00  0.00    +0.255 C 
ATOM      5  O   UNL     1      -2.337  -4.085  -2.650  0.00  0.00    -0.272 OA
ATOM      6  N   UNL     1      -2.730  -5.979  -1.574  0.00  0.00    -0.281 N 
ATOM      7  C   UNL     1      -2.288  -7.113  -1.056  0.00  0.00    +0.057 A 
ATOM      8  C   UNL     1      -3.186  -7.999  -0.419  0.00  0.00    +0.025 A 
ATOM      9  C   UNL     1      -2.739  -9.161   0.114  0.00  0.00    +0.002 A 
ATOM     10  C   UNL     1      -1.390  -9.549   0.068  0.00  0.00    +0.002 A 
ATOM     11  C   UNL     1      -0.449  -8.776  -0.518  0.00  0.00    +0.027 A 
ATOM     12  C   UNL     1      -0.855  -7.496  -1.120  0.00  0.00    +0.058 A 
ATOM     13  N   UNL     1       0.021  -6.723  -1.693  0.00  0.00    -0.361 N 
ATOM     14  H   UNL     1       0.956  -6.979  -1.732  0.00  0.00    +0.162 HD
ATOM     15  H   UNL     1      -3.674  -5.766  -1.510  0.00  0.00    +0.155 HD
ENDBRANCH   1   3
BRANCH   1  17
ATOM     16  C   UNL     1       1.468  -2.353  -2.550  0.00  0.00    +0.152 C 
ATOM     17  C   UNL     1       1.406  -3.899  -2.500  0.00  0.00    +0.136 C 
ATOM     18  S   UNL     1       3.053  -4.221  -1.742  0.00  0.00    -0.110 S 
ATOM     19  C   UNL     1       3.843  -2.690  -2.182  0.00  0.00    -0.013 C 
ATOM     20  C   UNL     1       2.892  -1.857  -2.578  0.00  0.00    -0.044 C 
ATOM     21  C   UNL     1       3.233  -0.444  -3.046  0.00  0.00    +0.032 C 
ATOM     22  C   UNL     1       4.621  -0.067  -2.532  0.00  0.00    +0.005 C 
ATOM     23  C   UNL     1       5.625  -1.156  -2.924  0.00  0.00    +0.005 C 
ATOM     24  C   UNL     1       5.319  -2.411  -2.110  0.00  0.00    +0.042 C 
BRANCH  16  25
ATOM     25  C   UNL     1       0.775  -1.794  -1.334  0.00  0.00    +0.317 C 
ATOM     26  O   UNL     1       0.314  -2.540  -0.504  0.00  0.00    -0.250 OA
BRANCH  25  27
ATOM     27  O   UNL     1       0.671  -0.465  -1.174  0.00  0.00    -0.464 OA
BRANCH  27  29
ATOM     28  C   UNL     1      -0.019   1.526   0.010  0.00  0.00    +0.048 C 
ATOM     29  C   UNL     1       0.002  -0.004   0.002  0.00  0.00    +0.229 C 
ENDBRANCH  27  29
ENDBRANCH  25  27
ENDBRANCH  16  25
ENDBRANCH   1  17
TORSDOF 5
