REMARK  Name = ZINC59405470
REMARK  12 active torsions:
REMARK  status: ('A' for Active; 'I' for Inactive)
REMARK    1  A    between atoms: C_1  and  C_2
REMARK    2  A    between atoms: C_2  and  C_23
REMARK    3  A    between atoms: N_5  and  C_9
REMARK    4  A    between atoms: C_9  and  C_10
REMARK    5  A    between atoms: N_12  and  C_13
REMARK    6  A    between atoms: C_15  and  C_19
REMARK    7  A    between atoms: N_17  and  C_18
REMARK    8  A    between atoms: C_19  and  C_20
REMARK    9  A    between atoms: C_19  and  C_21
REMARK   10  A    between atoms: C_19  and  C_22
REMARK   11  A    between atoms: C_26  and  O_29
REMARK   12  A    between atoms: O_29  and  C_30
REMARK                            x       y       z     vdW  Elec       q    Type
REMARK                         _______ _______ _______ _____ _____    ______ ____
ROOT
ATOM      1  C   UNL     1      -0.019   1.526   0.010  0.00  0.00    +0.047 C 
ATOM      2  C   UNL     1       0.002  -0.004   0.002  0.00  0.00    +0.135 C 
ATOM      3  C   UNL     1      -1.403  -0.557   0.139  0.00  0.00    +0.251 C 
ATOM      4  O   UNL     1      -2.332  -0.392  -0.621  0.00  0.00    -0.272 OA
ATOM      5  N   UNL     1      -1.403  -1.272   1.282  0.00  0.00    -0.215 N 
ATOM      6  C   UNL     1      -0.206  -1.247   1.879  0.00  0.00    +0.310 C 
ATOM      7  O   UNL     1       0.040  -1.819   2.924  0.00  0.00    -0.252 OA
ATOM      8  N   UNL     1       0.695  -0.520   1.195  0.00  0.00    -0.281 N 
ATOM      9  H   UNL     1       1.621  -0.365   1.440  0.00  0.00    +0.152 HD
ENDROOT
BRANCH   2  10
ATOM     10  C   UNL     1       0.657  -0.517  -1.255  0.00  0.00    -0.015 A 
ATOM     11  C   UNL     1      -0.109  -0.772  -2.377  0.00  0.00    +0.010 A 
ATOM     12  C   UNL     1       0.489  -1.242  -3.530  0.00  0.00    +0.046 A 
ATOM     13  C   UNL     1       1.859  -1.459  -3.561  0.00  0.00    +0.127 A 
ATOM     14  C   UNL     1       2.625  -1.202  -2.433  0.00  0.00    +0.046 A 
ATOM     15  C   UNL     1       2.023  -0.727  -1.285  0.00  0.00    +0.010 A 
BRANCH  13  16
ATOM     16  O   UNL     1       2.450  -1.922  -4.694  0.00  0.00    -0.434 OA
BRANCH  16  17
ATOM     17  C   UNL     1       3.864  -2.122  -4.654  0.00  0.00    +0.541 C 
ATOM     18  F   UNL     1       4.498  -0.908  -4.369  0.00  0.00    -0.166 F 
ATOM     19  F   UNL     1       4.175  -3.055  -3.659  0.00  0.00    -0.166 F 
ENDBRANCH  16  17
ENDBRANCH  13  16
ENDBRANCH   2  10
BRANCH   5  20
ATOM     20  C   UNL     1      -2.569  -1.986   1.805  0.00  0.00    +0.214 C 
BRANCH  20  21
ATOM     21  C   UNL     1      -2.585  -3.391   1.260  0.00  0.00    +0.236 C 
ATOM     22  O   UNL     1      -1.707  -3.759   0.508  0.00  0.00    -0.274 OA
ATOM     23  N   UNL     1      -3.573  -4.239   1.608  0.00  0.00    -0.269 N 
ATOM     24  H   UNL     1      -4.275  -3.944   2.209  0.00  0.00    +0.156 HD
BRANCH  23  25
ATOM     25  C   UNL     1      -3.587  -5.539   1.103  0.00  0.00    +0.123 A 
ATOM     26  C   UNL     1      -2.668  -6.084   0.259  0.00  0.00    +0.069 A 
ATOM     27  C   UNL     1      -3.053  -7.402   0.002  0.00  0.00    +0.070 A 
ATOM     28  N   UNL     1      -4.158  -7.645   0.660  0.00  0.00    -0.174 NA
ATOM     29  N   UNL     1      -4.513  -6.489   1.367  0.00  0.00    -0.253 N 
ATOM     30  C   UNL     1      -5.683  -6.335   2.235  0.00  0.00    +0.174 C 
BRANCH  27  31
ATOM     31  C   UNL     1      -2.322  -8.378  -0.884  0.00  0.00    +0.006 C 
ATOM     32  C   UNL     1      -1.069  -8.880  -0.164  0.00  0.00    +0.017 C 
ATOM     33  C   UNL     1      -3.237  -9.562  -1.202  0.00  0.00    +0.017 C 
ATOM     34  C   UNL     1      -1.918  -7.681  -2.185  0.00  0.00    +0.017 C 
ENDBRANCH  27  31
ENDBRANCH  23  25
ENDBRANCH  20  21
ENDBRANCH   5  20
TORSDOF 7
