REMARK  Name = ZINC15140672
REMARK  6 active torsions:
REMARK  status: ('A' for Active; 'I' for Inactive)
REMARK    1  A    between atoms: C_1  and  C_2
REMARK    2  A    between atoms: C_2  and  C_3
REMARK    3  A    between atoms: N_12  and  C_13
REMARK    4  A    between atoms: C_16  and  S_22
REMARK    5  A    between atoms: C_18  and  N_19
REMARK    6  A    between atoms: S_22  and  N_25
REMARK                            x       y       z     vdW  Elec       q    Type
REMARK                         _______ _______ _______ _____ _____    ______ ____
ROOT
ATOM      1  C   UNL     1       1.447   2.134  -0.404  0.00  0.00    +0.061 A 
ATOM      2  C   UNL     1       2.340   1.515  -1.270  0.00  0.00    +0.027 A 
ATOM      3  C   UNL     1       2.388   0.137  -1.340  0.00  0.00    +0.030 A 
ATOM      4  C   UNL     1       1.550  -0.627  -0.550  0.00  0.00    +0.107 A 
ATOM      5  C   UNL     1       0.660  -0.015   0.314  0.00  0.00    +0.063 A 
ATOM      6  C   UNL     1       0.607   1.364   0.389  0.00  0.00    +0.149 A 
ENDROOT
BRANCH   1  15
ATOM      7  C   UNL     1       2.707   4.085   0.028  0.00  0.00    +0.104 C 
ATOM      8  C   UNL     1       2.596   5.606   0.070  0.00  0.00    -0.017 A 
ATOM      9  C   UNL     1       3.509   6.434   0.719  0.00  0.00    +0.013 A 
ATOM     10  C   UNL     1       3.331   7.776   0.709  0.00  0.00    +0.046 A 
ATOM     11  S   UNL     1       1.828   7.942  -0.242  0.00  0.00    -0.101 S 
ATOM     12  C   UNL     1       1.552   6.221  -0.553  0.00  0.00    -0.004 A 
ATOM     13  C   UNL     1       0.451   5.558  -1.314  0.00  0.00    +0.061 C 
ATOM     14  C   UNL     1       0.874   4.103  -1.578  0.00  0.00    +0.111 C 
ATOM     15  N   UNL     1       1.396   3.528  -0.330  0.00  0.00    -0.321 N 
BRANCH   7  17
ATOM     16  C   UNL     1       3.429   2.065   1.310  0.00  0.00    +0.006 C 
ATOM     17  C   UNL     1       3.128   3.562   1.403  0.00  0.00    +0.024 C 
ENDBRANCH   7  17
ENDBRANCH   1  15
BRANCH   6  18
ATOM     18  N   UNL     1      -0.345   2.019   1.314  0.00  0.00    +0.058 N 
ATOM     19  O   UNL     1      -1.149   1.348   1.937  0.00  0.00    -0.126 OA
ATOM     20  O   UNL     1      -0.325   3.229   1.452  0.00  0.00    -0.126 OA
ENDBRANCH   6  18
BRANCH   4  21
ATOM     21  S   UNL     1       1.615  -2.385  -0.642  0.00  0.00    +0.056 S 
ATOM     22  O   UNL     1       0.350  -2.862  -0.202  0.00  0.00    -0.153 OA
ATOM     23  O   UNL     1       2.147  -2.705  -1.921  0.00  0.00    -0.153 OA
BRANCH  21  24
ATOM     24  N   UNL     1       2.727  -2.894   0.474  0.00  0.00    -0.204 NA
ATOM     25  H   UNL     1       3.195  -2.245   1.022  0.00  0.00    +0.144 HD
ATOM     26  H   UNL     1       2.911  -3.841   0.579  0.00  0.00    +0.144 HD
ENDBRANCH  21  24
ENDBRANCH   4  21
TORSDOF 5
