REMARK  Name = ZINC33912519
REMARK  8 active torsions:
REMARK  status: ('A' for Active; 'I' for Inactive)
REMARK    1  A    between atoms: C_1  and  O_2
REMARK    2  A    between atoms: O_2  and  C_3
REMARK    3  A    between atoms: C_10  and  C_23
REMARK    4  A    between atoms: N_12  and  C_18
REMARK    5  A    between atoms: C_18  and  C_19
REMARK    6  A    between atoms: C_19  and  C_20
REMARK    7  A    between atoms: C_26  and  S_29
REMARK    8  A    between atoms: S_29  and  C_30
REMARK                            x       y       z     vdW  Elec       q    Type
REMARK                         _______ _______ _______ _____ _____    ______ ____
ROOT
ATOM      1  C   UNL     1       0.600  -0.601  -1.045  0.00  0.00    +0.416 C 
ATOM      2  O   UNL     1       1.091   0.072  -1.928  0.00  0.00    -0.225 OA
ATOM      3  N   UNL     1       0.653  -1.946  -1.114  0.00  0.00    -0.142 N 
ATOM      4  C   UNL     1       1.247  -2.631  -2.143  0.00  0.00    +0.239 C 
ATOM      5  O   UNL     1       1.978  -2.188  -2.998  0.00  0.00    -0.274 OA
ATOM      6  C   UNL     1       0.809  -3.998  -1.980  0.00  0.00    +0.140 C 
ATOM      7  C   UNL     1       1.225  -5.354  -2.377  0.00  0.00    +0.129 C 
ATOM      8  N   UNL     1       0.551  -6.213  -1.345  0.00  0.00    -0.178 NA
ATOM      9  O   UNL     1      -0.115  -5.288  -0.380  0.00  0.00    -0.283 OA
ATOM     10  C   UNL     1       0.736  -4.127  -0.407  0.00  0.00    +0.242 C 
ATOM     11  C   UNL     1       0.126  -2.773  -0.164  0.00  0.00    +0.263 C 
ATOM     12  O   UNL     1      -0.670  -2.478   0.696  0.00  0.00    -0.272 OA
ENDROOT
BRANCH   7  13
ATOM     13  C   UNL     1       2.723  -5.498  -2.304  0.00  0.00    -0.027 A 
ATOM     14  C   UNL     1       3.336  -5.727  -1.085  0.00  0.00    +0.006 A 
ATOM     15  C   UNL     1       4.708  -5.859  -1.014  0.00  0.00    +0.015 A 
ATOM     16  C   UNL     1       5.475  -5.761  -2.170  0.00  0.00    +0.016 A 
ATOM     17  C   UNL     1       4.856  -5.531  -3.392  0.00  0.00    +0.015 A 
ATOM     18  C   UNL     1       3.482  -5.405  -3.456  0.00  0.00    +0.006 A 
BRANCH  16  19
ATOM     19  S   UNL     1       7.227  -5.928  -2.084  0.00  0.00    -0.016 S 
BRANCH  19  20
ATOM     20  C   UNL     1       7.771  -5.730  -3.803  0.00  0.00    +0.448 C 
ATOM     21  F   UNL     1       7.384  -4.470  -4.272  0.00  0.00    -0.160 F 
ATOM     22  F   UNL     1       9.164  -5.844  -3.867  0.00  0.00    -0.160 F 
ATOM     23  F   UNL     1       7.185  -6.723  -4.595  0.00  0.00    -0.160 F 
ENDBRANCH  19  20
ENDBRANCH  16  19
ENDBRANCH   7  13
BRANCH   1  25
ATOM     24  C   UNL     1      -0.017   1.425   0.010  0.00  0.00    +0.282 C 
ATOM     25  O   UNL     1       0.002  -0.004   0.002  0.00  0.00    -0.453 OA
ENDBRANCH   1  25
BRANCH   8  26
ATOM     26  C   UNL     1      -0.426  -7.116  -1.968  0.00  0.00    +0.124 C 
BRANCH  26  27
ATOM     27  C   UNL     1      -1.000  -8.057  -0.907  0.00  0.00    +0.113 C 
BRANCH  27  28
ATOM     28  C   UNL     1      -2.002  -8.984  -1.546  0.00  0.00    +0.212 C 
ATOM     29  O   UNL     1      -2.234  -8.899  -2.733  0.00  0.00    -0.276 OA
ATOM     30  N   UNL     1      -2.639  -9.906  -0.798  0.00  0.00    -0.329 N 
ATOM     31  H   UNL     1      -2.453  -9.974   0.151  0.00  0.00    +0.145 HD
ATOM     32  H   UNL     1      -3.284 -10.502  -1.210  0.00  0.00    +0.145 HD
ENDBRANCH  27  28
ENDBRANCH  26  27
ENDBRANCH   8  26
TORSDOF 7
