REMARK  Name = ZINC36579459
REMARK  16 active torsions:
REMARK  status: ('A' for Active; 'I' for Inactive)
REMARK    1  A    between atoms: C_1  and  C_2
REMARK    2  A    between atoms: C_2  and  C_3
REMARK    3  A    between atoms: C_2  and  C_4
REMARK    4  A    between atoms: C_2  and  N_5
REMARK    5  A    between atoms: C_6  and  C_8
REMARK    6  A    between atoms: C_8  and  C_10
REMARK    7  A    between atoms: C_8  and  N_17
REMARK    8  A    between atoms: C_15  and  O_16
REMARK    9  A    between atoms: N_17  and  C_36
REMARK   10  A    between atoms: C_18  and  C_20
REMARK   11  A    between atoms: C_26  and  O_28
REMARK   12  A    between atoms: O_28  and  C_29
REMARK   13  A    between atoms: C_29  and  C_30
REMARK   14  A    between atoms: C_36  and  C_37
REMARK   15  A    between atoms: C_36  and  C_38
REMARK   16  A    between atoms: C_36  and  C_39
REMARK                            x       y       z     vdW  Elec       q    Type
REMARK                         _______ _______ _______ _____ _____    ______ ____
ROOT
ATOM      1  N   UNL     1       4.039  -0.751  -2.859  0.00  0.00    -0.279 N 
ATOM      2  C   UNL     1       4.474  -0.193  -4.006  0.00  0.00    +0.238 C 
ATOM      3  O   UNL     1       3.871  -0.384  -5.040  0.00  0.00    -0.274 OA
ENDROOT
BRANCH   2   4
ATOM      4  C   UNL     1       5.710   0.669  -4.003  0.00  0.00    +0.165 C 
ATOM      5  C   UNL     1       6.958  -0.201  -4.261  0.00  0.00    +0.033 C 
ATOM      6  C   UNL     1       7.832   0.705  -5.169  0.00  0.00    +0.021 C 
ATOM      7  C   UNL     1       6.755   1.425  -6.019  0.00  0.00    +0.112 C 
ATOM      8  N   UNL     1       5.632   1.659  -5.087  0.00  0.00    -0.256 N 
ATOM      9  C   UNL     1       4.693   2.618  -5.210  0.00  0.00    +0.404 C 
ATOM     10  O   UNL     1       3.812   2.715  -4.378  0.00  0.00    -0.226 OA
BRANCH   9  11
ATOM     11  O   UNL     1       4.730   3.468  -6.253  0.00  0.00    -0.445 OA
BRANCH  11  12
ATOM     12  C   UNL     1       3.703   4.459  -6.320  0.00  0.00    +0.269 C 
BRANCH  12  13
ATOM     13  C   UNL     1       3.907   5.312  -7.545  0.00  0.00    -0.010 A 
ATOM     14  C   UNL     1       4.688   6.451  -7.473  0.00  0.00    +0.007 A 
ATOM     15  C   UNL     1       4.875   7.233  -8.597  0.00  0.00    +0.000 A 
ATOM     16  C   UNL     1       4.281   6.877  -9.793  0.00  0.00    +0.000 A 
ATOM     17  C   UNL     1       3.501   5.738  -9.866  0.00  0.00    +0.000 A 
ATOM     18  C   UNL     1       3.318   4.953  -8.743  0.00  0.00    +0.007 A 
ENDBRANCH  12  13
ENDBRANCH  11  12
ENDBRANCH   9  11
ENDBRANCH   2   4
BRANCH   1  19
ATOM     19  C   UNL     1       4.737  -0.477  -1.600  0.00  0.00    +0.030 C 
ATOM     20  C   UNL     1       4.311  -1.503  -0.548  0.00  0.00    +0.031 C 
ATOM     21  C   UNL     1       6.248  -0.573  -1.823  0.00  0.00    +0.031 C 
ATOM     22  C   UNL     1       4.381   0.929  -1.116  0.00  0.00    +0.031 C 
ENDBRANCH   1  19
BRANCH   1  23
ATOM     23  C   UNL     1       2.869  -1.632  -2.871  0.00  0.00    +0.196 C 
BRANCH  23  24
ATOM     24  C   UNL     1       1.667  -0.864  -3.356  0.00  0.00    +0.023 A 
ATOM     25  C   UNL     1       1.836   0.274  -4.121  0.00  0.00    +0.009 A 
ATOM     26  C   UNL     1       0.734   0.980  -4.566  0.00  0.00    +0.001 A 
ATOM     27  C   UNL     1      -0.541   0.548  -4.247  0.00  0.00    +0.004 A 
ATOM     28  C   UNL     1      -0.716  -0.589  -3.483  0.00  0.00    +0.046 A 
ATOM     29  C   UNL     1       0.389  -1.302  -3.040  0.00  0.00    +0.122 A 
BRANCH  29  30
ATOM     30  O   UNL     1       0.220  -2.424  -2.292  0.00  0.00    -0.506 OA
ATOM     31  H   UNL     1       0.186  -2.261  -1.340  0.00  0.00    +0.292 HD
ENDBRANCH  29  30
ENDBRANCH  23  24
BRANCH  23  33
ATOM     32  N   UNL     1       2.230  -3.800  -3.878  0.00  0.00    -0.309 N 
ATOM     33  C   UNL     1       3.127  -2.797  -3.793  0.00  0.00    +0.239 C 
ATOM     34  O   UNL     1       4.140  -2.831  -4.458  0.00  0.00    -0.273 OA
ATOM     35  H   UNL     1       1.420  -3.772  -3.346  0.00  0.00    +0.149 HD
BRANCH  32  37
ATOM     36  C   UNL     1       3.779  -5.629  -4.364  0.00  0.00    +0.031 C 
ATOM     37  C   UNL     1       2.481  -4.931  -4.774  0.00  0.00    +0.026 C 
ATOM     38  C   UNL     1       2.606  -4.425  -6.212  0.00  0.00    +0.031 C 
ATOM     39  C   UNL     1       1.318  -5.922  -4.682  0.00  0.00    +0.031 C 
ENDBRANCH  32  37
ENDBRANCH  23  33
ENDBRANCH   1  23
TORSDOF 10
