REMARK  Name = ZINC17099644
REMARK  16 active torsions:
REMARK  status: ('A' for Active; 'I' for Inactive)
REMARK    1  A    between atoms: C_1  and  C_2
REMARK    2  A    between atoms: C_2  and  N_3
REMARK    3  A    between atoms: C_4  and  C_29
REMARK    4  A    between atoms: C_5  and  C_8
REMARK    5  A    between atoms: C_8  and  N_59
REMARK    6  A    between atoms: C_9  and  N_59
REMARK    7  A    between atoms: C_10  and  C_11
REMARK    8  A    between atoms: C_10  and  N_59
REMARK    9  A    between atoms: N_13  and  C_14
REMARK   10  A    between atoms: C_15  and  C_23
REMARK   11  A    between atoms: C_16  and  C_22
REMARK   12  A    between atoms: C_17  and  C_19
REMARK   13  A    between atoms: C_23  and  O_25
REMARK   14  A    between atoms: O_25  and  C_26
REMARK   15  A    between atoms: C_26  and  C_27
REMARK   16  A    between atoms: C_26  and  C_28
REMARK                            x       y       z     vdW  Elec       q    Type
REMARK                         _______ _______ _______ _____ _____    ______ ____
ROOT
ATOM      1  C   UNL     1      -1.971  -0.165  -1.354  0.00  0.00    +0.201 C 
ATOM      2  O   UNL     1      -1.492   0.748  -1.994  0.00  0.00    -0.278 OA
ATOM      3  N   UNL     1      -3.136  -0.720  -1.740  0.00  0.00    -0.281 N 
ATOM      4  H   UNL     1      -3.519  -1.450  -1.228  0.00  0.00    +0.155 HD
ENDROOT
BRANCH   3   5
ATOM      5  C   UNL     1      -3.786  -0.250  -2.865  0.00  0.00    +0.087 A 
ATOM      6  C   UNL     1      -4.991  -0.689  -3.423  0.00  0.00    +0.091 A 
ATOM      7  C   UNL     1      -5.443  -0.050  -4.568  0.00  0.00    -0.015 A 
ATOM      8  C   UNL     1      -4.677   0.965  -5.073  0.00  0.00    +0.079 A 
ATOM      9  S   UNL     1      -3.312   1.033  -3.929  0.00  0.00    -0.068 S 
ATOM     10  C   UNL     1      -6.731  -0.461  -5.234  0.00  0.00    +0.046 C 
BRANCH   8  11
ATOM     11  C   UNL     1      -4.922   1.794  -6.255  0.00  0.00    +0.248 C 
ATOM     12  O   UNL     1      -5.920   1.613  -6.929  0.00  0.00    -0.270 OA
ATOM     13  N   UNL     1      -4.043   2.757  -6.597  0.00  0.00    -0.325 N 
ATOM     14  H   UNL     1      -3.248   2.900  -6.060  0.00  0.00    +0.145 HD
ATOM     15  H   UNL     1      -4.205   3.306  -7.380  0.00  0.00    +0.145 HD
ENDBRANCH   8  11
BRANCH   6  16
ATOM     16  C   UNL     1      -5.752  -1.788  -2.818  0.00  0.00    +0.342 C 
ATOM     17  O   UNL     1      -6.594  -1.552  -1.973  0.00  0.00    -0.245 OA
BRANCH  16  18
ATOM     18  O   UNL     1      -5.516  -3.061  -3.198  0.00  0.00    -0.458 OA
BRANCH  18  19
ATOM     19  C   UNL     1      -6.306  -4.097  -2.557  0.00  0.00    +0.171 C 
ATOM     20  C   UNL     1      -7.584  -4.337  -3.364  0.00  0.00    +0.052 C 
ATOM     21  C   UNL     1      -5.493  -5.391  -2.492  0.00  0.00    +0.052 C 
ENDBRANCH  18  19
ENDBRANCH  16  18
ENDBRANCH   6  16
ENDBRANCH   3   5
BRANCH   1  22
ATOM     22  C   UNL     1      -1.262  -0.677  -0.126  0.00  0.00    +0.019 C 
BRANCH  22  24
ATOM     23  C   UNL     1      -0.321   1.489   0.407  0.00  0.00    -0.095 C 
ATOM     24  N   UNL     1      -0.010   0.087   0.055  0.00  0.00    +0.386 N 
ATOM     25  H   UNL     1       0.519   0.073  -0.824  0.00  0.00    -0.081 HD
BRANCH  24  26
ATOM     26  C   UNL     1       0.809  -0.531   1.119  0.00  0.00    -0.039 C 
BRANCH  26  29
ATOM     27  N   UNL     1       4.268   0.227   0.250  0.00  0.00    -0.269 N 
ATOM     28  C   UNL     1       3.113  -0.435   0.031  0.00  0.00    +0.037 A 
ATOM     29  C   UNL     1       2.228  -0.046   0.979  0.00  0.00    -0.024 A 
ATOM     30  C   UNL     1       2.863   0.891   1.801  0.00  0.00    +0.136 A 
ATOM     31  N   UNL     1       4.088   1.051   1.369  0.00  0.00    -0.179 NA
ATOM     32  C   UNL     1       2.854  -1.430  -1.070  0.00  0.00    +0.065 C 
BRANCH  27  34
ATOM     33  C   UNL     1       5.471   1.132  -1.677  0.00  0.00    +0.029 C 
ATOM     34  C   UNL     1       5.494   0.106  -0.542  0.00  0.00    +0.140 C 
ENDBRANCH  27  34
ENDBRANCH  26  29
ENDBRANCH  24  26
ENDBRANCH  22  24
ENDBRANCH   1  22
TORSDOF 10
