REMARK  Name = ZINC33811795
REMARK  5 active torsions:
REMARK  status: ('A' for Active; 'I' for Inactive)
REMARK    1  A    between atoms: C_1  and  N_2
REMARK    2  A    between atoms: C_14  and  N_16
REMARK    3  A    between atoms: N_16  and  S_17
REMARK    4  A    between atoms: S_17  and  C_20
REMARK    5  A    between atoms: C_24  and  N_26
REMARK                            x       y       z     vdW  Elec       q    Type
REMARK                         _______ _______ _______ _____ _____    ______ ____
ROOT
ATOM      1  C   UNL     1       4.526   4.326  -0.740  0.00  0.00    -0.095 C 
ATOM      2  N   UNL     1       3.328   3.480  -0.653  0.00  0.00    +0.383 N 
ATOM      3  C   UNL     1       3.654   2.163  -0.093  0.00  0.00    -0.074 C 
ATOM      4  C   UNL     1       2.518   1.158  -0.162  0.00  0.00    +0.017 C 
ATOM      5  C   UNL     1       1.167   1.789   0.001  0.00  0.00    -0.047 A 
ATOM      6  C   UNL     1      -0.013   1.076   0.008  0.00  0.00    +0.004 A 
ATOM      7  C   UNL     1      -1.217   1.761   0.017  0.00  0.00    +0.001 A 
ATOM      8  C   UNL     1      -1.255   3.144   0.010  0.00  0.00    +0.005 A 
ATOM      9  C   UNL     1      -0.072   3.864   0.015  0.00  0.00    -0.027 A 
ATOM     10  C   UNL     1       1.108   3.169   0.076  0.00  0.00    -0.053 A 
ATOM     11  C   UNL     1       2.288   4.123   0.162  0.00  0.00    -0.036 C 
ATOM     12  C   UNL     1       1.737   5.430  -0.423  0.00  0.00    +0.014 C 
ATOM     13  C   UNL     1       0.235   5.344  -0.038  0.00  0.00    +0.105 C 
ATOM     14  H   UNL     1       2.945   3.343  -1.675  0.00  0.00    -0.081 HD
ENDROOT
BRANCH  13  15
ATOM     15  N   UNL     1       0.009   5.959   1.272  0.00  0.00    -0.183 NA
ATOM     16  H   UNL     1       0.691   5.739   2.107  0.00  0.00    +0.149 HD
BRANCH  15  17
ATOM     17  S   UNL     1      -1.397   6.780   1.570  0.00  0.00    +0.059 S 
ATOM     18  O   UNL     1      -1.329   7.228   2.917  0.00  0.00    -0.153 OA
ATOM     19  O   UNL     1      -1.586   7.671   0.480  0.00  0.00    -0.153 OA
BRANCH  17  20
ATOM     20  C   UNL     1      -2.711   5.608   1.496  0.00  0.00    +0.107 A 
ATOM     21  C   UNL     1      -3.354   5.365   0.296  0.00  0.00    +0.028 A 
ATOM     22  C   UNL     1      -4.381   4.443   0.237  0.00  0.00    +0.004 A 
ATOM     23  C   UNL     1      -4.772   3.769   1.379  0.00  0.00    +0.033 A 
ATOM     24  C   UNL     1      -4.133   4.015   2.579  0.00  0.00    +0.128 A 
ATOM     25  C   UNL     1      -3.102   4.935   2.638  0.00  0.00    +0.061 A 
BRANCH  24  26
ATOM     26  N   UNL     1      -4.551   3.294   3.803  0.00  0.00    +0.056 N 
ATOM     27  O   UNL     1      -3.988   3.511   4.861  0.00  0.00    -0.126 OA
ATOM     28  O   UNL     1      -5.459   2.484   3.751  0.00  0.00    -0.126 OA
ENDBRANCH  24  26
ENDBRANCH  17  20
ENDBRANCH  15  17
ENDBRANCH  13  15
TORSDOF 4
