REMARK  Name = ZINC12106041
REMARK  9 active torsions:
REMARK  status: ('A' for Active; 'I' for Inactive)
REMARK    1  A    between atoms: C_4  and  C_7
REMARK    2  A    between atoms: C_7  and  C_8
REMARK    3  A    between atoms: C_11  and  S_19
REMARK    4  A    between atoms: N_12  and  C_13
REMARK    5  A    between atoms: S_19  and  C_20
REMARK    6  A    between atoms: C_20  and  C_21
REMARK    7  A    between atoms: C_21  and  C_23
REMARK    8  A    between atoms: C_24  and  N_35
REMARK    9  A    between atoms: N_25  and  C_32
REMARK                            x       y       z     vdW  Elec       q    Type
REMARK                         _______ _______ _______ _____ _____    ______ ____
ROOT
ATOM      1  S   UNL     1      -4.429  -2.092   4.551  0.00  0.00    -0.078 S 
ENDROOT
BRANCH   1   5
ATOM      2  C   UNL     1      -5.358  -0.838   0.972  0.00  0.00    +0.143 A 
ATOM      3  N   UNL     1      -5.944   0.036   1.740  0.00  0.00    -0.133 NA
ATOM      4  N   UNL     1      -5.728  -0.244   2.976  0.00  0.00    -0.122 NA
ATOM      5  C   UNL     1      -4.984  -1.323   3.066  0.00  0.00    +0.197 A 
ATOM      6  N   UNL     1      -4.729  -1.740   1.788  0.00  0.00    -0.274 N 
BRANCH   6   7
ATOM      7  C   UNL     1      -3.978  -2.858   1.396  0.00  0.00    +0.050 A 
ATOM      8  C   UNL     1      -4.593  -3.913   0.737  0.00  0.00    +0.026 A 
ATOM      9  C   UNL     1      -3.850  -5.010   0.346  0.00  0.00    +0.002 A 
ATOM     10  C   UNL     1      -2.496  -5.062   0.623  0.00  0.00    +0.000 A 
ATOM     11  C   UNL     1      -1.881  -4.016   1.285  0.00  0.00    +0.002 A 
ATOM     12  C   UNL     1      -2.619  -2.914   1.672  0.00  0.00    +0.026 A 
ENDBRANCH   6   7
BRANCH   2  13
ATOM     13  C   UNL     1      -5.374  -0.856  -0.534  0.00  0.00    +0.111 C 
BRANCH  13  17
ATOM     14  C   UNL     1      -2.071   1.405  -2.027  0.00  0.00    +0.000 A 
ATOM     15  C   UNL     1      -1.928   0.052  -1.782  0.00  0.00    +0.000 A 
ATOM     16  C   UNL     1      -2.996  -0.679  -1.295  0.00  0.00    +0.004 A 
ATOM     17  C   UNL     1      -4.208  -0.058  -1.059  0.00  0.00    -0.040 A 
ATOM     18  C   UNL     1      -4.350   1.296  -1.300  0.00  0.00    +0.004 A 
ATOM     19  C   UNL     1      -3.282   2.027  -1.786  0.00  0.00    +0.000 A 
ENDBRANCH  13  17
ENDBRANCH   2  13
ENDBRANCH   1   5
BRANCH   1  20
ATOM     20  C   UNL     1      -5.168  -0.982   5.775  0.00  0.00    +0.157 C 
BRANCH  20  21
ATOM     21  C   UNL     1      -4.816  -1.457   7.161  0.00  0.00    +0.182 C 
ATOM     22  O   UNL     1      -4.131  -2.450   7.307  0.00  0.00    -0.291 OA
BRANCH  21  23
ATOM     23  C   UNL     1      -5.281  -0.749   8.289  0.00  0.00    +0.120 A 
ATOM     24  C   UNL     1      -5.087  -1.247   9.589  0.00  0.00    +0.116 A 
ATOM     25  N   UNL     1      -5.551  -0.522  10.650  0.00  0.00    -0.278 N 
ATOM     26  C   UNL     1      -6.194   0.642  10.472  0.00  0.00    +0.331 A 
ATOM     27  O   UNL     1      -6.591   1.247  11.449  0.00  0.00    -0.246 OA
ATOM     28  N   UNL     1      -6.413   1.165   9.255  0.00  0.00    -0.274 N 
ATOM     29  H   UNL     1      -6.897   2.036   9.171  0.00  0.00    +0.173 HD
ATOM     30  C   UNL     1      -5.990   0.529   8.143  0.00  0.00    +0.266 A 
ATOM     31  O   UNL     1      -6.190   1.006   7.040  0.00  0.00    -0.267 OA
BRANCH  25  32
ATOM     32  C   UNL     1      -5.348  -1.030  12.010  0.00  0.00    +0.094 C 
ATOM     33  C   UNL     1      -4.811  -0.051  13.056  0.00  0.00    +0.027 C 
ATOM     34  C   UNL     1      -3.907  -1.159  12.508  0.00  0.00    +0.027 C 
ENDBRANCH  25  32
BRANCH  24  35
ATOM     35  N   UNL     1      -4.443  -2.429   9.788  0.00  0.00    -0.344 N 
ATOM     36  H   UNL     1      -3.793  -2.742   9.139  0.00  0.00    +0.144 HD
ATOM     37  H   UNL     1      -4.633  -2.958  10.578  0.00  0.00    +0.144 HD
ENDBRANCH  24  35
ENDBRANCH  21  23
ENDBRANCH  20  21
ENDBRANCH   1  20
TORSDOF 9
