REMARK  Name = ZINC39000581
REMARK  6 active torsions:
REMARK  status: ('A' for Active; 'I' for Inactive)
REMARK    1  A    between atoms: C_1  and  C_2
REMARK    2  A    between atoms: C_2  and  C_20
REMARK    3  A    between atoms: N_3  and  N_4
REMARK    4  A    between atoms: C_5  and  C_7
REMARK    5  A    between atoms: C_10  and  C_13
REMARK    6  A    between atoms: C_23  and  N_26
REMARK                            x       y       z     vdW  Elec       q    Type
REMARK                         _______ _______ _______ _____ _____    ______ ____
ROOT
ATOM      1  N   UNL     1      -1.158  -1.484   1.499  0.00  0.00    -0.205 N 
ATOM      2  C   UNL     1      -1.609  -1.619   2.762  0.00  0.00    +0.263 C 
ATOM      3  O   UNL     1      -1.356  -0.769   3.590  0.00  0.00    -0.271 OA
ATOM      4  H   UNL     1      -1.361  -2.163   0.837  0.00  0.00    +0.177 HD
ENDROOT
BRANCH   2   5
ATOM      5  C   UNL     1      -2.428  -2.824   3.145  0.00  0.00    +0.240 C 
ATOM      6  C   UNL     1      -3.883  -2.629   2.757  0.00  0.00    +0.041 C 
ATOM      7  C   UNL     1      -4.540  -2.680   3.933  0.00  0.00    +0.093 C 
ATOM      8  N   UNL     1      -3.667  -2.878   4.955  0.00  0.00    -0.153 NA
ATOM      9  N   UNL     1      -2.484  -2.970   4.609  0.00  0.00    -0.170 NA
BRANCH   7  10
ATOM     10  C   UNL     1      -6.008  -2.539   4.088  0.00  0.00    +0.020 A 
ATOM     11  C   UNL     1      -6.797  -2.186   2.995  0.00  0.00    +0.011 A 
ATOM     12  C   UNL     1      -8.163  -2.056   3.145  0.00  0.00    +0.001 A 
ATOM     13  C   UNL     1      -8.750  -2.277   4.378  0.00  0.00    +0.001 A 
ATOM     14  C   UNL     1      -7.973  -2.628   5.467  0.00  0.00    +0.020 A 
ATOM     15  C   UNL     1      -6.606  -2.766   5.328  0.00  0.00    +0.050 A 
ATOM     16 CL   UNL     1      -5.633  -3.213   6.694  0.00  0.00    -0.083 Cl
ENDBRANCH   7  10
ENDBRANCH   2   5
BRANCH   1  19
ATOM     17  C   UNL     1       0.877   0.946  -0.462  0.00  0.00    +0.068 C 
ATOM     18  C   UNL     1      -0.069  -0.170  -0.098  0.00  0.00    +0.063 C 
ATOM     19  N   UNL     1      -0.397  -0.363   1.142  0.00  0.00    -0.184 NA
BRANCH  18  20
ATOM     20  C   UNL     1      -0.622  -1.041  -1.152  0.00  0.00    -0.002 A 
ATOM     21  C   UNL     1      -1.921  -1.540  -1.039  0.00  0.00    +0.012 A 
ATOM     22  C   UNL     1      -2.432  -2.355  -2.029  0.00  0.00    +0.033 A 
ATOM     23  C   UNL     1      -1.659  -2.678  -3.131  0.00  0.00    +0.126 A 
ATOM     24  C   UNL     1      -0.371  -2.187  -3.248  0.00  0.00    +0.033 A 
ATOM     25  C   UNL     1       0.150  -1.367  -2.269  0.00  0.00    +0.012 A 
BRANCH  23  26
ATOM     26  N   UNL     1      -2.214  -3.553  -4.188  0.00  0.00    +0.056 N 
ATOM     27  O   UNL     1      -3.339  -3.984  -4.087  0.00  0.00    -0.126 OA
ATOM     28  O   UNL     1      -1.542  -3.837  -5.152  0.00  0.00    -0.126 OA
ENDBRANCH  23  26
ENDBRANCH  18  20
ENDBRANCH   1  19
TORSDOF 5
