REMARK  Name = ZINC13446993
REMARK  7 active torsions:
REMARK  status: ('A' for Active; 'I' for Inactive)
REMARK    1  A    between atoms: C_4  and  N_9
REMARK    2  A    between atoms: C_5  and  C_7
REMARK    3  A    between atoms: C_10  and  C_12
REMARK    4  A    between atoms: C_12  and  S_13
REMARK    5  A    between atoms: S_13  and  C_14
REMARK    6  A    between atoms: C_17  and  C_26
REMARK    7  A    between atoms: N_18  and  C_19
REMARK                            x       y       z     vdW  Elec       q    Type
REMARK                         _______ _______ _______ _____ _____    ______ ____
ROOT
ATOM      1  C   UNL     1       0.593  -2.099   0.196  0.00  0.00    +0.197 A 
ATOM      2  N   UNL     1      -0.681  -2.034  -0.119  0.00  0.00    -0.122 NA
ATOM      3  N   UNL     1      -1.059  -0.808  -0.190  0.00  0.00    -0.125 NA
ATOM      4  C   UNL     1      -0.048  -0.010   0.076  0.00  0.00    +0.205 A 
ATOM      5  N   UNL     1       1.045  -0.814   0.326  0.00  0.00    -0.268 N 
ENDROOT
BRANCH   5   6
ATOM      6  C   UNL     1       2.346  -0.401   0.649  0.00  0.00    +0.051 A 
ATOM      7  C   UNL     1       3.101   0.304  -0.278  0.00  0.00    +0.029 A 
ATOM      8  C   UNL     1       4.380   0.715   0.044  0.00  0.00    +0.040 A 
ATOM      9  C   UNL     1       4.913   0.414   1.286  0.00  0.00    +0.124 A 
ATOM     10  C   UNL     1       4.163  -0.293   2.210  0.00  0.00    +0.040 A 
ATOM     11  C   UNL     1       2.881  -0.701   1.894  0.00  0.00    +0.029 A 
ATOM     12  F   UNL     1       6.166   0.812   1.597  0.00  0.00    -0.205 F 
ENDBRANCH   5   6
BRANCH   4  13
ATOM     13  C   UNL     1      -0.076   1.460   0.097  0.00  0.00    +0.172 A 
ATOM     14  C   UNL     1      -1.194   2.240   0.124  0.00  0.00    +0.053 A 
ATOM     15  C   UNL     1      -0.755   3.578   0.140  0.00  0.00    +0.042 A 
ATOM     16  C   UNL     1       0.593   3.553   0.113  0.00  0.00    +0.196 A 
ATOM     17  O   UNL     1       1.000   2.273   0.087  0.00  0.00    -0.460 OA
ENDBRANCH   4  13
BRANCH   1  18
ATOM     18  S   UNL     1       1.544  -3.568   0.405  0.00  0.00    -0.076 S 
BRANCH  18  19
ATOM     19  C   UNL     1       0.276  -4.814   0.067  0.00  0.00    +0.173 C 
BRANCH  19  21
ATOM     20  N   UNL     1       0.116  -7.281  -0.019  0.00  0.00    -0.284 N 
ATOM     21  C   UNL     1       0.878  -6.190   0.191  0.00  0.00    +0.228 C 
ATOM     22  O   UNL     1       2.050  -6.316   0.479  0.00  0.00    -0.275 OA
ATOM     23  H   UNL     1      -0.835  -7.184  -0.186  0.00  0.00    +0.155 HD
BRANCH  20  27
ATOM     24  C   UNL     1       1.843 -11.076   0.052  0.00  0.00    +0.001 A 
ATOM     25  C   UNL     1       2.298 -10.085   0.906  0.00  0.00    +0.002 A 
ATOM     26  C   UNL     1       1.732  -8.826   0.881  0.00  0.00    +0.024 A 
ATOM     27  C   UNL     1       0.692  -8.549   0.004  0.00  0.00    +0.048 A 
ATOM     28  C   UNL     1       0.228  -9.550  -0.863  0.00  0.00    +0.084 A 
ATOM     29  C   UNL     1       0.815 -10.818  -0.829  0.00  0.00    +0.017 A 
BRANCH  28  30
ATOM     30  C   UNL     1      -0.871  -9.266  -1.803  0.00  0.00    +0.388 C 
ATOM     31  O   UNL     1      -1.313  -8.138  -1.898  0.00  0.00    -0.241 OA
ATOM     32  O   UNL     1      -1.385 -10.258  -2.556  0.00  0.00    -0.241 OA
ENDBRANCH  28  30
ENDBRANCH  20  27
ENDBRANCH  19  21
ENDBRANCH  18  19
ENDBRANCH   1  18
TORSDOF 7
