REMARK  Name = ZINC32569721
REMARK  14 active torsions:
REMARK  status: ('A' for Active; 'I' for Inactive)
REMARK    1  A    between atoms: C_1  and  C_2
REMARK    2  A    between atoms: C_7  and  C_9
REMARK    3  A    between atoms: C_7  and  C_10
REMARK    4  A    between atoms: N_13  and  C_17
REMARK    5  A    between atoms: C_17  and  C_18
REMARK    6  A    between atoms: C_18  and  O_20
REMARK    7  A    between atoms: O_20  and  C_21
REMARK    8  A    between atoms: C_21  and  C_23
REMARK    9  A    between atoms: C_21  and  C_24
REMARK   10  A    between atoms: C_24  and  C_26
REMARK   11  A    between atoms: C_29  and  N_32
REMARK   12  A    between atoms: C_33  and  C_35
REMARK   13  A    between atoms: C_35  and  C_36
REMARK   14  A    between atoms: C_35  and  C_37
REMARK                            x       y       z     vdW  Elec       q    Type
REMARK                         _______ _______ _______ _____ _____    ______ ____
ROOT
ATOM      1  C   UNL     1      -2.482  -3.274  -4.046  0.00  0.00    +0.326 C 
ATOM      2  O   UNL     1      -2.211  -2.100  -4.138  0.00  0.00    -0.249 OA
ENDROOT
BRANCH   1   3
ATOM      3  C   UNL     1      -1.796  -4.127  -3.011  0.00  0.00    +0.238 C 
BRANCH   3  15
ATOM      4  C   UNL     1      -0.991   1.273   0.949  0.00  0.00    +0.007 C 
ATOM      5  C   UNL     1      -0.850  -0.245   0.803  0.00  0.00    -0.011 C 
ATOM      6  C   UNL     1       0.020  -0.556  -0.417  0.00  0.00    +0.038 C 
ATOM      7  C   UNL     1       0.126  -2.064  -0.602  0.00  0.00    +0.113 C 
ATOM      8  C   UNL     1       0.610  -2.778   0.644  0.00  0.00    +0.041 C 
ATOM      9  C   UNL     1      -0.027  -2.328   1.948  0.00  0.00    -0.032 C 
ATOM     10  C   UNL     1      -0.165  -0.813   2.044  0.00  0.00    +0.009 C 
ATOM     11  C   UNL     1       0.881  -2.791   3.107  0.00  0.00    +0.011 C 
ATOM     12  C   UNL     1      -1.393  -2.993   2.141  0.00  0.00    +0.011 C 
ATOM     13  C   UNL     1      -1.171  -2.636  -1.119  0.00  0.00    +0.247 C 
ATOM     14  O   UNL     1      -2.283  -2.516  -0.651  0.00  0.00    -0.273 OA
ATOM     15  N   UNL     1      -0.853  -3.305  -2.248  0.00  0.00    -0.213 N 
ATOM     16  C   UNL     1       0.430  -3.123  -2.581  0.00  0.00    +0.310 C 
ATOM     17  O   UNL     1       0.949  -3.612  -3.565  0.00  0.00    -0.252 OA
ATOM     18  N   UNL     1       1.078  -2.340  -1.701  0.00  0.00    -0.285 N 
ATOM     19  H   UNL     1       1.988  -2.013  -1.761  0.00  0.00    +0.151 HD
ENDBRANCH   3  15
ENDBRANCH   1   3
BRANCH   1  20
ATOM     20  O   UNL     1      -3.394  -3.818  -4.867  0.00  0.00    -0.452 OA
BRANCH  20  21
ATOM     21  C   UNL     1      -4.005  -2.951  -5.825  0.00  0.00    +0.244 C 
ATOM     22  C   UNL     1      -3.182  -2.956  -7.115  0.00  0.00    +0.061 C 
BRANCH  21  23
ATOM     23  C   UNL     1      -5.402  -3.432  -6.119  0.00  0.00    +0.203 C 
ATOM     24  O   UNL     1      -5.742  -4.549  -5.787  0.00  0.00    -0.288 OA
BRANCH  23  25
ATOM     25  C   UNL     1      -6.353  -2.550  -6.806  0.00  0.00    +0.021 A 
ATOM     26  C   UNL     1      -5.962  -1.262  -7.195  0.00  0.00    +0.013 A 
ATOM     27  C   UNL     1      -6.853  -0.442  -7.837  0.00  0.00    +0.024 A 
ATOM     28  C   UNL     1      -8.145  -0.886  -8.103  0.00  0.00    +0.033 A 
ATOM     29  C   UNL     1      -8.539  -2.165  -7.718  0.00  0.00    +0.024 A 
ATOM     30  C   UNL     1      -7.653  -2.994  -7.080  0.00  0.00    +0.013 A 
BRANCH  28  31
ATOM     31  N   UNL     1      -9.047  -0.049  -8.755  0.00  0.00    -0.285 N 
ATOM     32  C   UNL     1      -8.607   0.818  -9.689  0.00  0.00    +0.220 C 
ATOM     33  O   UNL     1      -7.444   0.804 -10.029  0.00  0.00    -0.275 OA
ATOM     34  H   UNL     1      -9.992  -0.090  -8.538  0.00  0.00    +0.155 HD
BRANCH  32  35
ATOM     35  C   UNL     1      -9.562   1.806 -10.309  0.00  0.00    +0.069 C 
ATOM     36  C   UNL     1     -10.148   2.703  -9.217  0.00  0.00    +0.017 C 
ATOM     37  C   UNL     1      -8.814   2.666 -11.329  0.00  0.00    +0.017 C 
ENDBRANCH  32  35
ENDBRANCH  28  31
ENDBRANCH  23  25
ENDBRANCH  21  23
ENDBRANCH  20  21
ENDBRANCH   1  20
TORSDOF 8
