REMARK  Name = ZINC00910277
REMARK  8 active torsions:
REMARK  status: ('A' for Active; 'I' for Inactive)
REMARK    1  A    between atoms: C_1  and  C_2
REMARK    2  A    between atoms: C_4  and  C_25
REMARK    3  A    between atoms: C_5  and  O_9
REMARK    4  A    between atoms: O_9  and  C_10
REMARK    5  A    between atoms: C_10  and  C_11
REMARK    6  A    between atoms: N_13  and  N_14
REMARK    7  A    between atoms: C_15  and  C_16
REMARK    8  A    between atoms: C_19  and  N_22
REMARK                            x       y       z     vdW  Elec       q    Type
REMARK                         _______ _______ _______ _____ _____    ______ ____
ROOT
ATOM      1  C   UNL     1       1.145   5.582   1.096  0.00  0.00    +0.270 C 
ATOM      2  O   UNL     1       1.129   6.052  -0.023  0.00  0.00    -0.270 OA
ATOM      3  N   UNL     1       1.145   6.398   2.169  0.00  0.00    -0.204 N 
ATOM      4  H   UNL     1       1.158   6.023   3.063  0.00  0.00    +0.177 HD
ENDROOT
BRANCH   3   5
ATOM      5  N   UNL     1       1.127   7.788   1.992  0.00  0.00    -0.188 NA
ATOM      6  C   UNL     1       1.127   8.573   3.025  0.00  0.00    +0.138 C 
BRANCH   6   7
ATOM      7  C   UNL     1       1.108  10.036   2.840  0.00  0.00    -0.005 A 
ATOM      8  C   UNL     1       1.096  10.580   1.553  0.00  0.00    +0.012 A 
ATOM      9  C   UNL     1       1.072  11.949   1.387  0.00  0.00    +0.033 A 
ATOM     10  C   UNL     1       1.073  12.783   2.491  0.00  0.00    +0.126 A 
ATOM     11  C   UNL     1       1.091  12.251   3.768  0.00  0.00    +0.033 A 
ATOM     12  C   UNL     1       1.109  10.884   3.950  0.00  0.00    +0.012 A 
BRANCH  10  13
ATOM     13  N   UNL     1       1.054  14.252   2.305  0.00  0.00    +0.056 N 
ATOM     14  O   UNL     1       1.055  14.989   3.274  0.00  0.00    -0.126 OA
ATOM     15  O   UNL     1       1.038  14.723   1.182  0.00  0.00    -0.126 OA
ENDBRANCH  10  13
ENDBRANCH   6   7
ENDBRANCH   3   5
BRANCH   1  16
ATOM     16  C   UNL     1       1.164   4.088   1.286  0.00  0.00    +0.326 C 
BRANCH  16  17
ATOM     17  O   UNL     1       1.160   3.445   0.009  0.00  0.00    -0.481 OA
BRANCH  17  22
ATOM     18  C   UNL     1       1.225  -2.188  -0.021  0.00  0.00    +0.044 C 
ATOM     19  C   UNL     1       1.208  -0.681  -0.013  0.00  0.00    -0.049 A 
ATOM     20  C   UNL     1       0.002  -0.004   0.002  0.00  0.00    +0.010 A 
ATOM     21  C   UNL     1      -0.017   1.377   0.010  0.00  0.00    -0.007 A 
ATOM     22  C   UNL     1       1.176   2.086   0.002  0.00  0.00    +0.138 A 
ATOM     23  C   UNL     1       2.385   1.405  -0.013  0.00  0.00    +0.060 A 
ATOM     24  C   UNL     1       2.398   0.023  -0.021  0.00  0.00    +0.022 A 
ATOM     25 BR   UNL     1       4.013   2.367  -0.023  0.00  0.00    -0.047 Br
ATOM     26  C   UNL     1      -1.332   2.113   0.020  0.00  0.00    +0.047 C 
ENDBRANCH  17  22
ENDBRANCH  16  17
ENDBRANCH   1  16
TORSDOF 6
