REMARK  Name = ZINC63517445
REMARK  6 active torsions:
REMARK  status: ('A' for Active; 'I' for Inactive)
REMARK    1  A    between atoms: C_6  and  C_7
REMARK    2  A    between atoms: N_11  and  C_12
REMARK    3  A    between atoms: C_12  and  C_13
REMARK    4  A    between atoms: C_13  and  C_14
REMARK    5  A    between atoms: C_14  and  N_15
REMARK    6  A    between atoms: C_23  and  N_24
REMARK                            x       y       z     vdW  Elec       q    Type
REMARK                         _______ _______ _______ _____ _____    ______ ____
ROOT
ATOM      1  C   UNL     1      -1.293  -0.774   0.009  0.00  0.00    -0.038 C 
ATOM      2  C   UNL     1      -1.933  -0.742   1.419  0.00  0.00    -0.013 C 
ATOM      3  C   UNL     1      -3.429  -0.985   1.091  0.00  0.00    -0.020 C 
ATOM      4  C   UNL     1      -3.617  -0.240  -0.248  0.00  0.00    -0.078 C 
ATOM      5  N   UNL     1      -2.286  -0.119  -0.871  0.00  0.00    +0.384 N 
ATOM      6  H   UNL     1      -2.050   0.855  -0.982  0.00  0.00    -0.081 HD
ENDROOT
BRANCH   1  12
ATOM      7  C   UNL     1      -0.017   1.378   0.010  0.00  0.00    +0.006 A 
ATOM      8  C   UNL     1       1.170   2.088   0.002  0.00  0.00    +0.049 A 
ATOM      9  C   UNL     1       2.382   1.415  -0.013  0.00  0.00    +0.162 A 
ATOM     10  C   UNL     1       2.401   0.025  -0.018  0.00  0.00    +0.162 A 
ATOM     11  C   UNL     1       1.207  -0.681  -0.011  0.00  0.00    +0.051 A 
ATOM     12  C   UNL     1       0.002  -0.004   0.002  0.00  0.00    -0.057 A 
ATOM     13  O   UNL     1       3.579  -0.656  -0.024  0.00  0.00    -0.485 OA
ATOM     14  C   UNL     1       4.746   0.081  -0.406  0.00  0.00    +0.270 C 
ATOM     15  C   UNL     1       4.733   1.422   0.340  0.00  0.00    +0.270 C 
ATOM     16  O   UNL     1       3.542   2.127  -0.024  0.00  0.00    -0.485 OA
ENDBRANCH   1  12
BRANCH   5  17
ATOM     17  C   UNL     1      -2.292  -0.777  -2.184  0.00  0.00    -0.076 C 
BRANCH  17  18
ATOM     18  C   UNL     1      -3.228  -0.020  -3.129  0.00  0.00    +0.003 C 
BRANCH  18  19
ATOM     19  C   UNL     1      -3.235  -0.706  -4.497  0.00  0.00    +0.123 C 
BRANCH  19  20
ATOM     20  N   UNL     1      -4.131   0.019  -5.401  0.00  0.00    -0.315 N 
ATOM     21  C   UNL     1      -5.441  -0.272  -5.644  0.00  0.00    +0.201 A 
ATOM     22  N   UNL     1      -5.934   0.576  -6.500  0.00  0.00    -0.231 NA
ATOM     23  C   UNL     1      -4.975   1.462  -6.859  0.00  0.00    +0.147 A 
ATOM     24  C   UNL     1      -3.808   1.119  -6.155  0.00  0.00    +0.165 A 
ATOM     25  N   UNL     1      -2.710   1.847  -6.329  0.00  0.00    -0.216 NA
ATOM     26  C   UNL     1      -2.712   2.878  -7.148  0.00  0.00    +0.225 A 
ATOM     27  N   UNL     1      -3.784   3.241  -7.828  0.00  0.00    -0.219 NA
ATOM     28  C   UNL     1      -4.926   2.568  -7.725  0.00  0.00    +0.147 A 
BRANCH  28  29
ATOM     29  N   UNL     1      -6.044   2.956  -8.442  0.00  0.00    -0.341 N 
ATOM     30  H   UNL     1      -6.874   2.463  -8.350  0.00  0.00    +0.144 HD
ATOM     31  H   UNL     1      -5.997   3.721  -9.036  0.00  0.00    +0.144 HD
ENDBRANCH  28  29
ENDBRANCH  19  20
ENDBRANCH  18  19
ENDBRANCH  17  18
ENDBRANCH   5  17
TORSDOF 6
