REMARK  Name = ZINC16010203
REMARK  5 active torsions:
REMARK  status: ('A' for Active; 'I' for Inactive)
REMARK    1  A    between atoms: C_1  and  C_2
REMARK    2  A    between atoms: C_16  and  C_19
REMARK    3  A    between atoms: C_19  and  C_20
REMARK    4  A    between atoms: N_25  and  C_28
REMARK    5  A    between atoms: C_28  and  C_29
REMARK                            x       y       z     vdW  Elec       q    Type
REMARK                         _______ _______ _______ _____ _____    ______ ____
ROOT
ATOM      1  C   UNL     1      -0.612   1.155   0.109  0.00  0.00    +0.047 C 
ATOM      2  C   UNL     1      -0.445  -0.342   0.070  0.00  0.00    -0.011 A 
ATOM      3  C   UNL     1      -0.366  -0.995  -1.145  0.00  0.00    +0.046 A 
ATOM      4  C   UNL     1      -0.212  -2.369  -1.190  0.00  0.00    +0.021 A 
ATOM      5  C   UNL     1      -0.136  -3.092  -0.012  0.00  0.00    +0.009 A 
ATOM      6  C   UNL     1      -0.213  -2.445   1.200  0.00  0.00    +0.004 A 
ATOM      7  C   UNL     1      -0.363  -1.062   1.258  0.00  0.00    +0.043 A 
ATOM      8  N   UNL     1      -0.412  -0.637   2.588  0.00  0.00    -0.283 N 
ATOM      9  C   UNL     1      -0.296  -1.663   3.454  0.00  0.00    +0.243 C 
ATOM     10  O   UNL     1      -0.306  -1.593   4.665  0.00  0.00    -0.273 OA
ATOM     11  C   UNL     1      -0.167  -2.913   2.627  0.00  0.00    +0.136 C 
ATOM     12  C   UNL     1       1.147  -3.640   2.940  0.00  0.00    +0.122 C 
ATOM     13  C   UNL     1       0.794  -5.150   2.839  0.00  0.00    +0.107 C 
ATOM     14  C   UNL     1      -0.704  -5.182   2.465  0.00  0.00    +0.076 C 
ATOM     15  N   UNL     1      -1.243  -3.879   2.916  0.00  0.00    -0.295 NA
ATOM     16  C   UNL     1       1.622  -5.623   1.666  0.00  0.00    +0.227 C 
ATOM     17  O   UNL     1       1.650  -6.758   1.240  0.00  0.00    -0.275 OA
ATOM     18  N   UNL     1       2.320  -4.594   1.170  0.00  0.00    -0.237 N 
ATOM     19  C   UNL     1       2.133  -3.421   1.816  0.00  0.00    +0.229 C 
ATOM     20  O   UNL     1       2.662  -2.364   1.544  0.00  0.00    -0.275 OA
ATOM     21 CL   UNL     1      -0.462  -0.087  -2.621  0.00  0.00    -0.083 Cl
ATOM     22  H   UNL     1      -0.516   0.289   2.857  0.00  0.00    +0.155 HD
ATOM     23  H   UNL     1      -1.449  -3.906   3.904  0.00  0.00    +0.124 HD
ENDROOT
BRANCH  14  24
ATOM     24  C   UNL     1      -1.405  -6.343   3.173  0.00  0.00    +0.115 C 
BRANCH  24  25
ATOM     25  C   UNL     1      -2.833  -6.430   2.701  0.00  0.00    +0.212 C 
ATOM     26  O   UNL     1      -3.249  -5.642   1.879  0.00  0.00    -0.276 OA
ATOM     27  N   UNL     1      -3.648  -7.385   3.192  0.00  0.00    -0.329 N 
ATOM     28  H   UNL     1      -3.315  -8.016   3.849  0.00  0.00    +0.145 HD
ATOM     29  H   UNL     1      -4.567  -7.441   2.888  0.00  0.00    +0.145 HD
ENDBRANCH  24  25
ENDBRANCH  14  24
BRANCH  18  30
ATOM     30  C   UNL     1       3.221  -4.728   0.023  0.00  0.00    +0.151 C 
BRANCH  30  31
ATOM     31  C   UNL     1       4.603  -5.083   0.508  0.00  0.00    -0.029 A 
ATOM     32  C   UNL     1       5.504  -4.082   0.820  0.00  0.00    +0.008 A 
ATOM     33  C   UNL     1       6.772  -4.407   1.265  0.00  0.00    +0.038 A 
ATOM     34  C   UNL     1       7.138  -5.736   1.399  0.00  0.00    +0.123 A 
ATOM     35  C   UNL     1       6.234  -6.737   1.087  0.00  0.00    +0.038 A 
ATOM     36  C   UNL     1       4.966  -6.410   0.647  0.00  0.00    +0.008 A 
ATOM     37  F   UNL     1       8.377  -6.055   1.834  0.00  0.00    -0.205 F 
ENDBRANCH  30  31
ENDBRANCH  18  30
TORSDOF 4
