REMARK  Name = ZINC63932925
REMARK  6 active torsions:
REMARK  status: ('A' for Active; 'I' for Inactive)
REMARK    1  A    between atoms: C_1  and  C_2
REMARK    2  A    between atoms: C_4  and  C_15
REMARK    3  A    between atoms: C_5  and  C_14
REMARK    4  A    between atoms: N_7  and  C_8
REMARK    5  A    between atoms: N_16  and  N_17
REMARK    6  A    between atoms: C_18  and  C_24
REMARK                            x       y       z     vdW  Elec       q    Type
REMARK                         _______ _______ _______ _____ _____    ______ ____
ROOT
ATOM      1  C   UNL     1       0.485   1.859  -0.087  0.00  0.00    +0.035 C 
ATOM      2  C   UNL     1       0.227   0.352  -0.026  0.00  0.00    +0.124 C 
ATOM      3  C   UNL     1       0.870  -0.342  -1.207  0.00  0.00    +0.012 C 
ATOM      4  C   UNL     1       1.773  -1.204  -0.714  0.00  0.00    +0.025 C 
ATOM      5  N   UNL     1       1.809  -1.167   0.656  0.00  0.00    -0.267 N 
ATOM      6  N   UNL     1       0.885  -0.235   1.153  0.00  0.00    -0.246 N 
ATOM      7  C   UNL     1       2.640  -2.100  -1.560  0.00  0.00    +0.062 C 
ATOM      8  H   UNL     1       2.393  -1.712   1.207  0.00  0.00    +0.170 HD
ENDROOT
BRANCH   6   9
ATOM      9  C   UNL     1       0.639   0.075   2.492  0.00  0.00    +0.048 A 
ATOM     10  C   UNL     1      -0.318   1.026   2.822  0.00  0.00    +0.025 A 
ATOM     11  C   UNL     1      -0.559   1.330   4.148  0.00  0.00    +0.002 A 
ATOM     12  C   UNL     1       0.152   0.690   5.146  0.00  0.00    +0.000 A 
ATOM     13  C   UNL     1       1.106  -0.257   4.821  0.00  0.00    +0.002 A 
ATOM     14  C   UNL     1       1.348  -0.570   3.498  0.00  0.00    +0.025 A 
ENDBRANCH   6   9
BRANCH   3  15
ATOM     15  C   UNL     1       0.574  -0.124  -2.577  0.00  0.00    +0.137 C 
ATOM     16  N   UNL     1       1.209  -0.795  -3.496  0.00  0.00    -0.183 NA
BRANCH  16  17
ATOM     17  N   UNL     1       0.838  -0.665  -4.840  0.00  0.00    -0.169 N 
ATOM     18  C   UNL     1      -0.300   0.092  -5.394  0.00  0.00    +0.299 C 
ATOM     19  N   UNL     1      -0.197  -0.127  -6.845  0.00  0.00    -0.186 NA
ATOM     20  N   UNL     1       0.783  -0.847  -7.055  0.00  0.00    -0.219 N 
ATOM     21  C   UNL     1       1.447  -1.200  -5.922  0.00  0.00    +0.174 C 
ATOM     22  S   UNL     1       2.848  -2.182  -5.872  0.00  0.00    -0.015 S 
ATOM     23  H   UNL     1       1.056  -1.129  -7.942  0.00  0.00    +0.176 HD
BRANCH  18  24
ATOM     24  C   UNL     1      -1.603  -0.451  -4.866  0.00  0.00    +0.150 A 
ATOM     25  C   UNL     1      -2.781  -0.441  -5.516  0.00  0.00    +0.049 A 
ATOM     26  C   UNL     1      -3.728  -1.046  -4.658  0.00  0.00    +0.041 A 
ATOM     27  C   UNL     1      -3.072  -1.391  -3.535  0.00  0.00    +0.195 A 
ATOM     28  O   UNL     1      -1.784  -1.033  -3.669  0.00  0.00    -0.464 OA
ENDBRANCH  18  24
ENDBRANCH  16  17
ENDBRANCH   3  15
TORSDOF 4
