REMARK  Name = ZINC38596992
REMARK  7 active torsions:
REMARK  status: ('A' for Active; 'I' for Inactive)
REMARK    1  A    between atoms: C_1  and  C_2
REMARK    2  A    between atoms: N_8  and  C_9
REMARK    3  A    between atoms: C_9  and  C_10
REMARK    4  A    between atoms: N_12  and  C_13
REMARK    5  A    between atoms: C_21  and  C_23
REMARK    6  A    between atoms: C_23  and  O_25
REMARK    7  A    between atoms: O_25  and  C_26
REMARK                            x       y       z     vdW  Elec       q    Type
REMARK                         _______ _______ _______ _____ _____    ______ ____
ROOT
ATOM      1  C   UNL     1       1.151  -0.364   6.034  0.00  0.00    +0.053 C 
ATOM      2  C   UNL     1       0.861  -0.203   7.378  0.00  0.00    +0.019 A 
ATOM      3  C   UNL     1      -0.162   0.502   8.056  0.00  0.00    +0.026 A 
ATOM      4  C   UNL     1      -0.203   0.487   9.412  0.00  0.00    +0.019 A 
ATOM      5  C   UNL     1       0.745  -0.212  10.166  0.00  0.00    +0.017 A 
ATOM      6  C   UNL     1       1.750  -0.908   9.584  0.00  0.00    +0.027 A 
ATOM      7  C   UNL     1       1.861  -0.940   8.169  0.00  0.00    +0.045 A 
ATOM      8  N   UNL     1       2.731  -1.532   7.376  0.00  0.00    -0.367 N 
ATOM      9  C   UNL     1       2.380  -1.244   5.981  0.00  0.00    +0.234 C 
ATOM     10 BR   UNL     1      -1.575   1.435  10.304  0.00  0.00    -0.050 Br
ATOM     11  H   UNL     1       3.480  -2.075   7.667  0.00  0.00    +0.161 HD
ENDROOT
BRANCH   1  14
ATOM     12  C   UNL     1       0.703  -0.299   3.731  0.00  0.00    +0.200 C 
ATOM     13  O   UNL     1       1.569  -1.126   3.542  0.00  0.00    -0.278 OA
ATOM     14  N   UNL     1       0.467   0.157   4.977  0.00  0.00    -0.288 N 
ATOM     15  H   UNL     1      -0.189   0.857   5.121  0.00  0.00    +0.155 HD
BRANCH  12  16
ATOM     16  C   UNL     1      -0.111   0.218   2.573  0.00  0.00    +0.019 C 
BRANCH  16  23
ATOM     17  C   UNL     1      -0.138   1.672   0.171  0.00  0.00    -0.013 C 
ATOM     18  C   UNL     1      -0.374   0.160   0.191  0.00  0.00    -0.071 C 
ATOM     19  C   UNL     1       0.146  -0.455  -1.110  0.00  0.00    -0.016 C 
ATOM     20  C   UNL     1      -0.093  -1.967  -1.085  0.00  0.00    -0.003 C 
ATOM     21  C   UNL     1       0.589  -2.561   0.150  0.00  0.00    -0.019 C 
ATOM     22  C   UNL     1       0.052  -1.869   1.405  0.00  0.00    -0.078 C 
ATOM     23  N   UNL     1       0.335  -0.430   1.332  0.00  0.00    +0.387 N 
ATOM     24  H   UNL     1       1.328  -0.288   1.220  0.00  0.00    -0.081 HD
ENDBRANCH  16  23
ENDBRANCH  12  16
ENDBRANCH   1  14
BRANCH   9  25
ATOM     25  C   UNL     1       3.512  -0.516   5.305  0.00  0.00    +0.335 C 
ATOM     26  O   UNL     1       4.387  -0.011   5.967  0.00  0.00    -0.248 OA
BRANCH  25  27
ATOM     27  O   UNL     1       3.548  -0.427   3.966  0.00  0.00    -0.466 OA
ATOM     28  C   UNL     1       4.650   0.278   3.392  0.00  0.00    +0.280 C 
ENDBRANCH  25  27
ENDBRANCH   9  25
TORSDOF 5
