REMARK  Name = ZINC16221492
REMARK  9 active torsions:
REMARK  status: ('A' for Active; 'I' for Inactive)
REMARK    1  A    between atoms: C_1  and  C_2
REMARK    2  A    between atoms: C_6  and  N_9
REMARK    3  A    between atoms: C_7  and  C_8
REMARK    4  A    between atoms: C_19  and  S_20
REMARK    5  A    between atoms: S_20  and  C_21
REMARK    6  A    between atoms: C_21  and  C_22
REMARK    7  A    between atoms: C_22  and  C_24
REMARK    8  A    between atoms: C_25  and  N_36
REMARK    9  A    between atoms: N_26  and  C_33
REMARK                            x       y       z     vdW  Elec       q    Type
REMARK                         _______ _______ _______ _____ _____    ______ ____
ROOT
ATOM      1  N   UNL     1      -5.187   1.199   1.323  0.00  0.00    -0.255 N 
ATOM      2  C   UNL     1      -6.246   1.982   1.632  0.00  0.00    +0.267 A 
ATOM      3  O   UNL     1      -7.356   1.508   1.794  0.00  0.00    -0.267 OA
ATOM      4  C   UNL     1      -6.010   3.426   1.757  0.00  0.00    +0.065 A 
ATOM      5  C   UNL     1      -7.038   4.317   2.066  0.00  0.00    +0.015 A 
ATOM      6  C   UNL     1      -6.763   5.652   2.170  0.00  0.00    +0.001 A 
ATOM      7  C   UNL     1      -5.474   6.130   1.972  0.00  0.00    +0.002 A 
ATOM      8  C   UNL     1      -4.448   5.279   1.669  0.00  0.00    +0.028 A 
ATOM      9  C   UNL     1      -4.697   3.909   1.555  0.00  0.00    +0.079 A 
ATOM     10  N   UNL     1      -3.711   3.031   1.256  0.00  0.00    -0.223 NA
ATOM     11  C   UNL     1      -3.946   1.746   1.149  0.00  0.00    +0.177 A 
ENDROOT
BRANCH   1  17
ATOM     12  C   UNL     1      -6.190  -2.681  -1.527  0.00  0.00    +0.044 C 
ATOM     13  C   UNL     1      -5.848  -2.091  -0.183  0.00  0.00    -0.046 A 
ATOM     14  C   UNL     1      -5.707  -2.916   0.918  0.00  0.00    +0.004 A 
ATOM     15  C   UNL     1      -5.393  -2.379   2.153  0.00  0.00    +0.002 A 
ATOM     16  C   UNL     1      -5.220  -1.016   2.290  0.00  0.00    +0.026 A 
ATOM     17  C   UNL     1      -5.361  -0.184   1.187  0.00  0.00    +0.055 A 
ATOM     18  C   UNL     1      -5.682  -0.727  -0.050  0.00  0.00    -0.024 A 
ATOM     19  C   UNL     1      -5.842   0.172  -1.249  0.00  0.00    +0.046 C 
ENDBRANCH   1  17
BRANCH  11  20
ATOM     20  S   UNL     1      -2.602   0.676   0.756  0.00  0.00    -0.079 S 
BRANCH  20  21
ATOM     21  C   UNL     1      -1.262   1.886   0.635  0.00  0.00    +0.157 C 
BRANCH  21  22
ATOM     22  C   UNL     1       0.025   1.178   0.297  0.00  0.00    +0.182 C 
ATOM     23  O   UNL     1       0.034  -0.028   0.151  0.00  0.00    -0.291 OA
BRANCH  22  24
ATOM     24  C   UNL     1       1.218   1.917   0.143  0.00  0.00    +0.120 A 
ATOM     25  C   UNL     1       2.453   1.270  -0.033  0.00  0.00    +0.116 A 
ATOM     26  N   UNL     1       3.580   2.028  -0.182  0.00  0.00    -0.278 N 
ATOM     27  C   UNL     1       3.527   3.369  -0.153  0.00  0.00    +0.331 A 
ATOM     28  O   UNL     1       4.559   3.998  -0.286  0.00  0.00    -0.246 OA
ATOM     29  N   UNL     1       2.377   4.041   0.016  0.00  0.00    -0.274 N 
ATOM     30  H   UNL     1       2.387   5.041   0.031  0.00  0.00    +0.173 HD
ATOM     31  C   UNL     1       1.208   3.385   0.168  0.00  0.00    +0.266 A 
ATOM     32  O   UNL     1       0.167   3.997   0.321  0.00  0.00    -0.267 OA
BRANCH  26  33
ATOM     33  C   UNL     1       4.872   1.365  -0.372  0.00  0.00    +0.094 C 
ATOM     34  C   UNL     1       5.772   1.879  -1.497  0.00  0.00    +0.027 C 
ATOM     35  C   UNL     1       5.059   0.532  -1.642  0.00  0.00    +0.027 C 
ENDBRANCH  26  33
BRANCH  25  36
ATOM     36  N   UNL     1       2.526  -0.088  -0.059  0.00  0.00    -0.344 N 
ATOM     37  H   UNL     1       1.725  -0.614  -0.213  0.00  0.00    +0.144 HD
ATOM     38  H   UNL     1       3.378  -0.531   0.077  0.00  0.00    +0.144 HD
ENDBRANCH  25  36
ENDBRANCH  22  24
ENDBRANCH  21  22
ENDBRANCH  20  21
ENDBRANCH  11  20
TORSDOF 7
