REMARK  Name = ZINC35316338
REMARK  8 active torsions:
REMARK  status: ('A' for Active; 'I' for Inactive)
REMARK    1  A    between atoms: C_1  and  C_2
REMARK    2  A    between atoms: C_2  and  O_3
REMARK    3  A    between atoms: O_3  and  C_4
REMARK    4  A    between atoms: C_6  and  C_12
REMARK    5  A    between atoms: C_9  and  O_10
REMARK    6  A    between atoms: C_15  and  C_26
REMARK    7  A    between atoms: C_21  and  N_25
REMARK    8  A    between atoms: C_22  and  C_23
REMARK                            x       y       z     vdW  Elec       q    Type
REMARK                         _______ _______ _______ _____ _____    ______ ____
ROOT
ATOM      1  C   UNL     1      -0.219  -4.963  -0.535  0.00  0.00    +0.102 C 
ATOM      2  C   UNL     1       0.866  -5.827  -1.124  0.00  0.00    +0.054 A 
ATOM      3  C   UNL     1       1.895  -5.478  -2.004  0.00  0.00    +0.100 A 
ATOM      4  N   UNL     1       2.606  -6.562  -2.247  0.00  0.00    -0.171 NA
ATOM      5  N   UNL     1       2.047  -7.629  -1.526  0.00  0.00    -0.246 N 
ATOM      6  H   UNL     1       2.369  -8.544  -1.518  0.00  0.00    +0.192 HD
ATOM      7  C   UNL     1       0.981  -7.158  -0.846  0.00  0.00    +0.223 A 
ATOM      8  O   UNL     1       0.126  -7.810  -0.018  0.00  0.00    -0.423 OA
ATOM      9  C   UNL     1      -1.017  -7.180   0.321  0.00  0.00    +0.200 C 
ATOM     10  C   UNL     1      -1.244  -5.864   0.107  0.00  0.00    +0.098 C 
ENDROOT
BRANCH   1  13
ATOM     11  C   UNL     1       0.802  -1.825   1.306  0.00  0.00    +0.163 A 
ATOM     12  C   UNL     1       0.260  -2.673   0.352  0.00  0.00    +0.054 A 
ATOM     13  C   UNL     1       0.371  -4.043   0.502  0.00  0.00    -0.030 A 
ATOM     14  C   UNL     1       1.022  -4.571   1.602  0.00  0.00    +0.023 A 
ATOM     15  C   UNL     1       1.565  -3.730   2.557  0.00  0.00    +0.063 A 
ATOM     16  C   UNL     1       1.462  -2.356   2.409  0.00  0.00    +0.173 A 
ATOM     17 BR   UNL     1       2.453  -4.456   4.061  0.00  0.00    -0.046 Br
BRANCH  16  18
ATOM     18  O   UNL     1       2.000  -1.528   3.345  0.00  0.00    -0.503 OA
ATOM     19  H   UNL     1       1.395  -1.301   4.064  0.00  0.00    +0.292 HD
ENDBRANCH  16  18
BRANCH  11  20
ATOM     20  O   UNL     1       0.693  -0.477   1.160  0.00  0.00    -0.489 OA
BRANCH  20  22
ATOM     21  C   UNL     1      -0.019   1.526   0.010  0.00  0.00    +0.048 C 
ATOM     22  C   UNL     1       0.002  -0.004   0.002  0.00  0.00    +0.226 C 
ENDBRANCH  20  22
ENDBRANCH  11  20
ENDBRANCH   1  13
BRANCH   3  23
ATOM     23  C   UNL     1       2.142  -4.127  -2.567  0.00  0.00    +0.003 A 
ATOM     24  C   UNL     1       1.071  -3.288  -2.868  0.00  0.00    +0.010 A 
ATOM     25  C   UNL     1       1.307  -2.033  -3.391  0.00  0.00    +0.001 A 
ATOM     26  C   UNL     1       2.603  -1.608  -3.617  0.00  0.00    +0.000 A 
ATOM     27  C   UNL     1       3.670  -2.437  -3.321  0.00  0.00    +0.001 A 
ATOM     28  C   UNL     1       3.446  -3.691  -2.791  0.00  0.00    +0.010 A 
ENDBRANCH   3  23
BRANCH   9  29
ATOM     29  N   UNL     1      -2.010  -7.918   0.917  0.00  0.00    -0.328 N 
ATOM     30  H   UNL     1      -1.877  -8.864   1.082  0.00  0.00    +0.145 HD
ATOM     31  H   UNL     1      -2.843  -7.493   1.172  0.00  0.00    +0.145 HD
ENDBRANCH   9  29
BRANCH  10  32
ATOM     32  C   UNL     1      -2.501  -5.305   0.506  0.00  0.00    +0.101 C 
ATOM     33  N   UNL     1      -3.498  -4.862   0.822  0.00  0.00    -0.191 NA
ENDBRANCH  10  32
TORSDOF 7
