REMARK  Name = ZINC02625470
REMARK  9 active torsions:
REMARK  status: ('A' for Active; 'I' for Inactive)
REMARK    1  A    between atoms: C_2  and  C_3
REMARK    2  A    between atoms: C_3  and  N_4
REMARK    3  A    between atoms: C_5  and  C_22
REMARK    4  A    between atoms: C_8  and  S_9
REMARK    5  A    between atoms: S_9  and  C_10
REMARK    6  A    between atoms: C_10  and  C_11
REMARK    7  A    between atoms: N_13  and  C_14
REMARK    8  A    between atoms: C_17  and  C_20
REMARK    9  A    between atoms: C_25  and  N_28
REMARK                            x       y       z     vdW  Elec       q    Type
REMARK                         _______ _______ _______ _____ _____    ______ ____
ROOT
ATOM      1  N   UNL     1      -1.212   2.310   0.497  0.00  0.00    -0.298 N 
ATOM      2  C   UNL     1      -2.150   1.599   1.210  0.00  0.00    +0.165 A 
ATOM      3  N   UNL     1      -2.366   2.257   2.325  0.00  0.00    -0.128 NA
ATOM      4  N   UNL     1      -1.638   3.315   2.358  0.00  0.00    -0.122 NA
ATOM      5  C   UNL     1      -0.907   3.395   1.268  0.00  0.00    +0.193 A 
ENDROOT
BRANCH   2   6
ATOM      6  C   UNL     1      -2.792   0.333   0.798  0.00  0.00    +0.019 A 
ATOM      7  C   UNL     1      -2.797  -0.046  -0.546  0.00  0.00    +0.014 A 
ATOM      8  C   UNL     1      -3.394  -1.231  -0.923  0.00  0.00    +0.033 A 
ATOM      9  C   UNL     1      -3.997  -2.038   0.026  0.00  0.00    +0.126 A 
ATOM     10  C   UNL     1      -4.001  -1.666   1.358  0.00  0.00    +0.033 A 
ATOM     11  C   UNL     1      -3.402  -0.486   1.750  0.00  0.00    +0.014 A 
BRANCH   9  12
ATOM     12  N   UNL     1      -4.641  -3.306  -0.387  0.00  0.00    +0.056 N 
ATOM     13  O   UNL     1      -5.172  -4.018   0.446  0.00  0.00    -0.126 OA
ATOM     14  O   UNL     1      -4.639  -3.636  -1.559  0.00  0.00    -0.126 OA
ENDBRANCH   9  12
ENDBRANCH   2   6
BRANCH   1  15
ATOM     15  C   UNL     1      -0.652   1.970  -0.813  0.00  0.00    +0.152 C 
BRANCH  15  17
ATOM     16  C   UNL     1      -1.922   2.035  -2.897  0.00  0.00    +0.005 C 
ATOM     17  C   UNL     1      -1.413   2.700  -1.890  0.00  0.00    -0.013 C 
ENDBRANCH  15  17
ENDBRANCH   1  15
BRANCH   5  18
ATOM     18  S   UNL     1       0.246   4.667   0.874  0.00  0.00    -0.077 S 
BRANCH  18  19
ATOM     19  C   UNL     1       0.085   5.705   2.348  0.00  0.00    +0.173 C 
BRANCH  19  20
ATOM     20  C   UNL     1       1.008   6.891   2.230  0.00  0.00    +0.227 C 
ATOM     21  O   UNL     1       1.704   7.022   1.246  0.00  0.00    -0.275 OA
ATOM     22  N   UNL     1       1.058   7.807   3.218  0.00  0.00    -0.285 N 
ATOM     23  H   UNL     1       0.552   7.668   4.034  0.00  0.00    +0.155 HD
BRANCH  22  24
ATOM     24  C   UNL     1       1.837   8.954   3.067  0.00  0.00    +0.033 A 
ATOM     25  C   UNL     1       3.053   8.884   2.396  0.00  0.00    +0.024 A 
ATOM     26  C   UNL     1       3.823  10.015   2.240  0.00  0.00    +0.020 A 
ATOM     27  C   UNL     1       3.385  11.233   2.767  0.00  0.00    +0.052 A 
ATOM     28  C   UNL     1       2.165  11.300   3.445  0.00  0.00    +0.020 A 
ATOM     29  C   UNL     1       1.398  10.165   3.592  0.00  0.00    +0.024 A 
BRANCH  27  30
ATOM     30  C   UNL     1       4.185  12.411   2.612  0.00  0.00    +0.099 C 
ATOM     31  N   UNL     1       4.819  13.345   2.489  0.00  0.00    -0.191 NA
ENDBRANCH  27  30
ENDBRANCH  22  24
ENDBRANCH  19  20
ENDBRANCH  18  19
ENDBRANCH   5  18
TORSDOF 9
