REMARK  Name = ZINC67391829
REMARK  6 active torsions:
REMARK  status: ('A' for Active; 'I' for Inactive)
REMARK    1  A    between atoms: C_5  and  C_7
REMARK    2  A    between atoms: N_16  and  C_17
REMARK    3  A    between atoms: C_17  and  C_18
REMARK    4  A    between atoms: C_18  and  N_19
REMARK    5  A    between atoms: N_19  and  C_20
REMARK    6  A    between atoms: C_25  and  C_26
REMARK                            x       y       z     vdW  Elec       q    Type
REMARK                         _______ _______ _______ _____ _____    ______ ____
ROOT
ATOM      1  C   UNL     1       1.231  -2.186  -0.021  0.00  0.00    +0.168 C 
ATOM      2  C   UNL     1       1.345  -2.688  -1.465  0.00  0.00    +0.145 C 
ATOM      3  N   UNL     1       1.175  -4.150  -1.463  0.00  0.00    -0.281 N 
ATOM      4  C   UNL     1       0.009  -4.709  -0.760  0.00  0.00    +0.137 C 
ATOM      5  C   UNL     1      -0.040  -4.109   0.650  0.00  0.00    +0.179 C 
ATOM      6  O   UNL     1       0.022  -2.683   0.557  0.00  0.00    -0.369 OA
ATOM      7  C   UNL     1       2.059  -4.953  -2.086  0.00  0.00    +0.302 C 
ATOM      8  O   UNL     1       2.965  -4.469  -2.738  0.00  0.00    -0.253 OA
ATOM      9  N   UNL     1       1.941  -6.292  -1.988  0.00  0.00    -0.298 N 
ATOM     10  H   UNL     1       1.178  -6.678  -1.530  0.00  0.00    +0.150 HD
ENDROOT
BRANCH   1  15
ATOM     11  C   UNL     1      -0.013   1.378   0.013  0.00  0.00    +0.001 A 
ATOM     12  C   UNL     1       1.174   2.087   0.003  0.00  0.00    +0.003 A 
ATOM     13  C   UNL     1       2.381   1.414  -0.014  0.00  0.00    +0.039 A 
ATOM     14  C   UNL     1       2.401   0.029  -0.021  0.00  0.00    +0.129 A 
ATOM     15  C   UNL     1       1.211  -0.679  -0.012  0.00  0.00    +0.018 A 
ATOM     16  C   UNL     1       0.005  -0.004   0.005  0.00  0.00    +0.009 A 
ATOM     17  F   UNL     1       3.580  -0.630  -0.038  0.00  0.00    -0.205 F 
ENDBRANCH   1  15
BRANCH   9  18
ATOM     18  C   UNL     1       2.964  -7.163  -2.571  0.00  0.00    +0.124 C 
BRANCH  18  19
ATOM     19  C   UNL     1       2.591  -8.625  -2.321  0.00  0.00    +0.120 C 
BRANCH  19  20
ATOM     20  N   UNL     1       3.615  -9.496  -2.904  0.00  0.00    -0.341 N 
ATOM     21  H   UNL     1       4.378  -9.110  -3.362  0.00  0.00    +0.146 HD
BRANCH  20  22
ATOM     22  C   UNL     1       3.492 -10.878  -2.803  0.00  0.00    +0.048 A 
ATOM     23  C   UNL     1       2.398 -11.435  -2.154  0.00  0.00    +0.024 A 
ATOM     24  C   UNL     1       2.277 -12.807  -2.054  0.00  0.00    +0.005 A 
ATOM     25  C   UNL     1       3.241 -13.638  -2.597  0.00  0.00    +0.040 A 
ATOM     26  C   UNL     1       4.337 -13.104  -3.247  0.00  0.00    +0.142 A 
ATOM     27  C   UNL     1       4.471 -11.716  -3.361  0.00  0.00    +0.108 A 
ATOM     28  F   UNL     1       5.275 -13.920  -3.775  0.00  0.00    -0.204 F 
BRANCH  27  29
ATOM     29  C   UNL     1       5.601 -11.153  -4.037  0.00  0.00    +0.104 C 
ATOM     30  N   UNL     1       6.497 -10.707  -4.574  0.00  0.00    -0.191 NA
ENDBRANCH  27  29
ENDBRANCH  20  22
ENDBRANCH  19  20
ENDBRANCH  18  19
ENDBRANCH   9  18
TORSDOF 6
