REMARK  Name = ZINC06818202
REMARK  3 active torsions:
REMARK  status: ('A' for Active; 'I' for Inactive)
REMARK    1  A    between atoms: C_1  and  C_2
REMARK    2  A    between atoms: C_7  and  C_8
REMARK    3  A    between atoms: C_17  and  C_19
REMARK                            x       y       z     vdW  Elec       q    Type
REMARK                         _______ _______ _______ _____ _____    ______ ____
ROOT
ATOM      1  C   UNL     1       1.250  -2.160  -0.022  0.00  0.00    +0.186 A 
ATOM      2  N   UNL     1       2.326  -2.914  -0.042  0.00  0.00    -0.126 NA
ATOM      3  N   UNL     1       1.988  -4.157  -0.042  0.00  0.00    -0.120 NA
ATOM      4  C   UNL     1       0.692  -4.256  -0.029  0.00  0.00    +0.220 A 
ATOM      5  N   UNL     1       0.145  -2.998  -0.016  0.00  0.00    -0.184 N 
ATOM      6  N   UNL     1      -1.241  -2.924  -0.002  0.00  0.00    -0.140 NA
ATOM      7  C   UNL     1      -1.978  -4.002  -0.002  0.00  0.00    +0.188 A 
ATOM      8  S   UNL     1      -0.747  -5.297  -0.022  0.00  0.00    -0.011 S 
ATOM      9  N   UNL     1      -3.363  -4.114   0.011  0.00  0.00    -0.263 N 
ATOM     10  C   UNL     1      -3.940  -5.332   0.009  0.00  0.00    +0.222 C 
ATOM     11  O   UNL     1      -3.252  -6.330  -0.003  0.00  0.00    -0.275 OA
ATOM     12  H   UNL     1      -3.987  -3.209   0.022  0.00  0.00    +0.157 HD
ENDROOT
BRANCH   1  19
ATOM     13  C   UNL     1       3.738  -0.682  -0.037  0.00  0.00    +0.044 C 
ATOM     14  C   UNL     1       2.416   0.041  -0.021  0.00  0.00    -0.040 A 
ATOM     15  C   UNL     1       2.383   1.420  -0.013  0.00  0.00    +0.004 A 
ATOM     16  C   UNL     1       1.170   2.086   0.002  0.00  0.00    +0.000 A 
ATOM     17  C   UNL     1      -0.017   1.375   0.010  0.00  0.00    +0.001 A 
ATOM     18  C   UNL     1       0.002  -0.004   0.002  0.00  0.00    +0.012 A 
ATOM     19  C   UNL     1       1.222  -0.682  -0.013  0.00  0.00    +0.024 A 
ENDBRANCH   1  19
BRANCH  10  20
ATOM     20  C   UNL     1      -5.442  -5.453   0.023  0.00  0.00    +0.075 C 
ATOM     21  C   UNL     1      -5.997  -4.783   1.282  0.00  0.00    +0.013 C 
ATOM     22  C   UNL     1      -7.522  -4.906   1.296  0.00  0.00    +0.001 C 
ATOM     23  C   UNL     1      -7.914  -6.385   1.291  0.00  0.00    +0.000 C 
ATOM     24  C   UNL     1      -7.360  -7.055   0.033  0.00  0.00    +0.001 C 
ATOM     25  C   UNL     1      -5.835  -6.932   0.018  0.00  0.00    +0.013 C 
ENDBRANCH  10  20
TORSDOF 2
