REMARK  Name = ZINC19146660
REMARK  8 active torsions:
REMARK  status: ('A' for Active; 'I' for Inactive)
REMARK    1  A    between atoms: C_1  and  N_2
REMARK    2  A    between atoms: N_2  and  C_3
REMARK    3  A    between atoms: C_4  and  C_6
REMARK    4  A    between atoms: C_7  and  C_16
REMARK    5  A    between atoms: C_16  and  N_17
REMARK    6  A    between atoms: N_17  and  C_18
REMARK    7  A    between atoms: N_17  and  C_19
REMARK    8  A    between atoms: C_19  and  C_20
REMARK                            x       y       z     vdW  Elec       q    Type
REMARK                         _______ _______ _______ _____ _____    ______ ____
ROOT
ATOM      1  C   UNL     1       3.038   5.903  -1.467  0.00  0.00    -0.022 C 
ENDROOT
BRANCH   1   3
ATOM      2  C   UNL     1       4.173   5.106  -3.625  0.00  0.00    +0.146 A 
ATOM      3  C   UNL     1       3.264   5.875  -2.956  0.00  0.00    +0.039 A 
ATOM      4  N   UNL     1       2.597   6.609  -3.890  0.00  0.00    -0.303 N 
ATOM      5  C   UNL     1       1.600   7.539  -3.788  0.00  0.00    +0.113 A 
ATOM      6  C   UNL     1       1.104   8.139  -4.891  0.00  0.00    +0.058 A 
ATOM      7  C   UNL     1       1.613   7.819  -6.162  0.00  0.00    +0.025 A 
ATOM      8  C   UNL     1       2.608   6.901  -6.278  0.00  0.00    +0.048 A 
ATOM      9  C   UNL     1       3.117   6.280  -5.117  0.00  0.00    +0.139 A 
ATOM     10  N   UNL     1       4.062   5.372  -4.939  0.00  0.00    -0.223 NA
ATOM     11 CL   UNL     1      -0.167   9.312  -4.739  0.00  0.00    -0.082 Cl
BRANCH   2  15
ATOM     12  C   UNL     1       6.881   2.481  -3.200  0.00  0.00    +0.132 C 
ATOM     13  N   UNL     1       6.047   3.540  -3.772  0.00  0.00    -0.302 N 
ATOM     14  C   UNL     1       6.227   3.939  -5.170  0.00  0.00    +0.132 C 
ATOM     15  C   UNL     1       5.114   4.148  -3.013  0.00  0.00    +0.266 C 
ATOM     16  O   UNL     1       5.047   3.906  -1.823  0.00  0.00    -0.268 OA
ENDBRANCH   2  15
ENDBRANCH   1   3
BRANCH   1  17
ATOM     17  N   UNL     1       2.021   4.905  -1.108  0.00  0.00    +0.385 N 
ATOM     18  C   UNL     1       0.711   5.265  -1.667  0.00  0.00    -0.095 C 
ATOM     19  H   UNL     1       2.323   3.942  -1.545  0.00  0.00    -0.081 HD
BRANCH  17  20
ATOM     20  C   UNL     1       1.943   4.734   0.349  0.00  0.00    -0.023 C 
BRANCH  20  21
ATOM     21  C   UNL     1       1.077   3.543   0.670  0.00  0.00    +0.023 A 
ATOM     22  C   UNL     1      -0.305   3.565   0.873  0.00  0.00    -0.006 A 
ATOM     23  C   UNL     1      -0.705   2.302   1.153  0.00  0.00    +0.066 A 
ATOM     24  N   UNL     1       0.384   1.509   1.125  0.00  0.00    -0.178 NA
ATOM     25  H   UNL     1       2.565   2.078   0.740  0.00  0.00    +0.188 HD
ATOM     26  N   UNL     1       1.495   2.313   0.836  0.00  0.00    -0.283 N 
ATOM     27  C   UNL     1      -2.121   1.874   1.444  0.00  0.00    +0.057 C 
ATOM     28  C   UNL     1      -3.063   2.479   0.414  0.00  0.00    +0.006 C 
ATOM     29  C   UNL     1      -3.530   3.856   0.878  0.00  0.00    +0.001 C 
ATOM     30  C   UNL     1      -2.430   4.560   1.667  0.00  0.00    +0.005 C 
ATOM     31  C   UNL     1      -1.202   4.775   0.796  0.00  0.00    +0.039 C 
ENDBRANCH  20  21
ENDBRANCH  17  20
ENDBRANCH   1  17
TORSDOF 5
