REMARK  Name = ZINC20504573
REMARK  15 active torsions:
REMARK  status: ('A' for Active; 'I' for Inactive)
REMARK    1  A    between atoms: C_1  and  C_2
REMARK    2  A    between atoms: N_9  and  C_10
REMARK    3  A    between atoms: C_10  and  C_12
REMARK    4  A    between atoms: C_12  and  N_13
REMARK    5  A    between atoms: N_13  and  C_14
REMARK    6  A    between atoms: N_13  and  C_15
REMARK    7  A    between atoms: C_17  and  C_37
REMARK    8  A    between atoms: C_20  and  O_36
REMARK    9  A    between atoms: C_22  and  C_26
REMARK   10  A    between atoms: C_26  and  C_28
REMARK   11  A    between atoms: C_26  and  C_29
REMARK   12  A    between atoms: N_31  and  C_32
REMARK   13  A    between atoms: C_32  and  C_33
REMARK   14  A    between atoms: C_33  and  O_34
REMARK   15  A    between atoms: O_34  and  C_35
REMARK                            x       y       z     vdW  Elec       q    Type
REMARK                         _______ _______ _______ _____ _____    ______ ____
ROOT
ATOM      1  C   UNL     1       2.327  -0.457   3.605  0.00  0.00    +0.014 C 
ATOM      2  C   UNL     1       2.817  -1.040   2.278  0.00  0.00    +0.039 C 
ATOM      3  C   UNL     1       4.337  -0.984   2.219  0.00  0.00    +0.031 A 
ATOM      4  C   UNL     1       4.963  -0.618   1.071  0.00  0.00    +0.013 A 
ATOM      5  S   UNL     1       6.677  -0.709   1.517  0.00  0.00    -0.057 S 
ATOM      6  C   UNL     1       6.441  -1.213   3.164  0.00  0.00    +0.163 A 
ATOM      7  N   UNL     1       5.128  -1.273   3.249  0.00  0.00    -0.339 N 
ATOM      8  N   UNL     1       7.393  -1.484   4.140  0.00  0.00    -0.158 NA
ATOM      9  C   UNL     1       4.339  -0.240  -0.225  0.00  0.00    +0.051 C 
ATOM     10  C   UNL     1       2.857  -0.663  -0.212  0.00  0.00    -0.022 C 
ATOM     11  C   UNL     1       2.229  -0.230   1.115  0.00  0.00    +0.033 C 
ATOM     12  C   UNL     1       0.719  -0.488   1.092  0.00  0.00    +0.123 C 
ATOM     13  C   UNL     1       0.070   0.252  -0.076  0.00  0.00    +0.029 C 
ATOM     14  C   UNL     1       0.674  -0.263  -1.386  0.00  0.00    +0.007 C 
ATOM     15  C   UNL     1       2.162   0.041  -1.381  0.00  0.00    +0.008 C 
ATOM     16  C   UNL     1       2.745  -2.180  -0.373  0.00  0.00    +0.012 C 
ATOM     17  H   UNL     1       4.690  -1.575   4.212  0.00  0.00    +0.167 HD
ENDROOT
BRANCH   8  18
ATOM     18  C   UNL     1       8.704  -1.364   3.854  0.00  0.00    +0.222 C 
ATOM     19  O   UNL     1       9.054  -1.020   2.744  0.00  0.00    -0.276 OA
BRANCH  18  20
ATOM     20  C   UNL     1       9.737  -1.657   4.912  0.00  0.00    +0.020 C 
BRANCH  20  21
ATOM     21  N   UNL     1      11.081  -1.455   4.354  0.00  0.00    +0.382 N 
ATOM     22  C   UNL     1      11.307  -0.041   4.027  0.00  0.00    -0.096 C 
ATOM     23  C   UNL     1      12.113  -1.955   5.272  0.00  0.00    -0.096 C 
ATOM     24  H   UNL     1      11.150  -2.033   3.421  0.00  0.00    -0.082 HD
ENDBRANCH  20  21
ENDBRANCH  18  20
ENDBRANCH   8  18
BRANCH  13  25
ATOM     25  C   UNL     1       0.337   1.752   0.057  0.00  0.00    +0.077 C 
ATOM     26  C   UNL     1      -0.195   2.248   1.403  0.00  0.00    +0.017 C 
BRANCH  25  27
ATOM     27  C   UNL     1      -0.360   2.487  -1.060  0.00  0.00    +0.216 C 
ATOM     28  O   UNL     1      -1.006   1.871  -1.880  0.00  0.00    -0.276 OA
ATOM     29  N   UNL     1      -0.266   3.829  -1.146  0.00  0.00    -0.313 N 
ATOM     30  H   UNL     1       0.321   4.388  -0.402  0.00  0.00    +0.149 HD
BRANCH  29  31
ATOM     31  C   UNL     1      -0.943   4.542  -2.231  0.00  0.00    +0.132 C 
BRANCH  31  32
ATOM     32  C   UNL     1      -0.677   6.043  -2.099  0.00  0.00    +0.178 C 
BRANCH  32  33
ATOM     33  O   UNL     1       0.716   6.298  -2.290  0.00  0.00    -0.381 OA
ATOM     34  C   UNL     1       1.074   7.678  -2.186  0.00  0.00    +0.194 C 
ENDBRANCH  32  33
ENDBRANCH  31  32
ENDBRANCH  29  31
ENDBRANCH  25  27
ENDBRANCH  13  25
BRANCH  12  35
ATOM     35  O   UNL     1       0.142  -0.034   2.318  0.00  0.00    -0.391 OA
ATOM     36  H   UNL     1      -0.940  -0.135   2.489  0.00  0.00    +0.210 HD
ENDBRANCH  12  35
TORSDOF 9
