REMARK  Name = ZINC19534522
REMARK  14 active torsions:
REMARK  status: ('A' for Active; 'I' for Inactive)
REMARK    1  A    between atoms: C_1  and  C_2
REMARK    2  A    between atoms: C_2  and  C_3
REMARK    3  A    between atoms: C_3  and  C_4
REMARK    4  A    between atoms: C_4  and  N_5
REMARK    5  A    between atoms: N_5  and  C_6
REMARK    6  A    between atoms: C_7  and  N_18
REMARK    7  A    between atoms: N_8  and  C_15
REMARK    8  A    between atoms: C_15  and  C_16
REMARK    9  A    between atoms: C_16  and  C_17
REMARK   10  A    between atoms: C_19  and  C_21
REMARK   11  A    between atoms: C_21  and  N_22
REMARK   12  A    between atoms: C_26  and  C_28
REMARK   13  A    between atoms: C_31  and  O_34
REMARK   14  A    between atoms: O_34  and  C_35
REMARK                            x       y       z     vdW  Elec       q    Type
REMARK                         _______ _______ _______ _____ _____    ______ ____
ROOT
ATOM      1  N   UNL     1      -2.261   4.352  -4.170  0.00  0.00    -0.266 N 
ATOM      2  C   UNL     1      -1.619   4.415  -2.985  0.00  0.00    +0.203 C 
ATOM      3  O   UNL     1      -1.163   5.471  -2.597  0.00  0.00    -0.277 OA
ENDROOT
BRANCH   1   4
ATOM      4  C   UNL     1      -2.488   5.529  -4.913  0.00  0.00    +0.140 A 
ATOM      5  C   UNL     1      -3.287   6.535  -4.409  0.00  0.00    +0.127 A 
ATOM      6  N   UNL     1      -3.490   7.671  -5.157  0.00  0.00    -0.280 N 
ATOM      7  C   UNL     1      -2.915   7.801  -6.367  0.00  0.00    +0.331 A 
ATOM      8  O   UNL     1      -3.106   8.813  -7.013  0.00  0.00    -0.246 OA
ATOM      9  N   UNL     1      -2.133   6.832  -6.874  0.00  0.00    -0.273 N 
ATOM     10  H   UNL     1      -1.676   6.957  -7.867  0.00  0.00    +0.173 HD
ATOM     11  C   UNL     1      -1.898   5.701  -6.179  0.00  0.00    +0.277 A 
ATOM     12  O   UNL     1      -1.183   4.831  -6.647  0.00  0.00    -0.266 OA
BRANCH   5  13
ATOM     13  N   UNL     1      -3.875   6.402  -3.174  0.00  0.00    -0.343 N 
ATOM     14  H   UNL     1      -4.511   7.207  -2.778  0.00  0.00    +0.144 HD
ATOM     15  H   UNL     1      -3.709   5.490  -2.581  0.00  0.00    +0.144 HD
ENDBRANCH   5  13
BRANCH   6  16
ATOM     16  C   UNL     1      -4.336   8.746  -4.634  0.00  0.00    +0.128 C 
BRANCH  16  17
ATOM     17  C   UNL     1      -3.477   9.730  -3.838  0.00  0.00    +0.018 C 
ATOM     18  C   UNL     1      -4.362  10.853  -3.292  0.00  0.00    +0.005 C 
ENDBRANCH  16  17
ENDBRANCH   6  16
ENDBRANCH   1   4
BRANCH   1  19
ATOM     19  C   UNL     1      -2.722   3.060  -4.685  0.00  0.00    +0.114 C 
BRANCH  19  20
ATOM     20  C   UNL     1      -4.165   2.818  -4.237  0.00  0.00    +0.019 C 
BRANCH  20  22
ATOM     21  C   UNL     1      -6.090   1.228  -4.327  0.00  0.00    +0.004 C 
ATOM     22  C   UNL     1      -4.647   1.470  -4.775  0.00  0.00    -0.002 C 
ENDBRANCH  20  22
ENDBRANCH  19  20
ENDBRANCH   1  19
BRANCH   2  23
ATOM     23  C   UNL     1      -1.469   3.175  -2.142  0.00  0.00    +0.020 C 
BRANCH  23  24
ATOM     24  N   UNL     1      -0.739   3.505  -0.910  0.00  0.00    +0.390 N 
ATOM     25  C   UNL     1      -1.315   4.696  -0.258  0.00  0.00    -0.077 C 
ATOM     26  C   UNL     1      -1.704   4.287   1.178  0.00  0.00    -0.020 C 
ATOM     27  C   UNL     1      -0.811   3.046   1.445  0.00  0.00    -0.013 C 
ATOM     28  C   UNL     1      -0.778   2.379   0.047  0.00  0.00    -0.037 C 
ATOM     29  H   UNL     1       0.301   3.711  -1.203  0.00  0.00    -0.080 HD
BRANCH  28  30
ATOM     30  C   UNL     1       0.455   1.524  -0.098  0.00  0.00    -0.061 A 
ATOM     31  C   UNL     1       1.680   2.116  -0.345  0.00  0.00    +0.005 A 
ATOM     32  C   UNL     1       2.810   1.334  -0.484  0.00  0.00    +0.046 A 
ATOM     33  C   UNL     1       2.715  -0.046  -0.377  0.00  0.00    +0.120 A 
ATOM     34  C   UNL     1       1.485  -0.637  -0.129  0.00  0.00    +0.046 A 
ATOM     35  C   UNL     1       0.357   0.149   0.010  0.00  0.00    +0.005 A 
BRANCH  33  36
ATOM     36  O   UNL     1       3.826  -0.817  -0.514  0.00  0.00    -0.495 OA
ATOM     37  C   UNL     1       5.059  -0.140  -0.767  0.00  0.00    +0.277 C 
ENDBRANCH  33  36
ENDBRANCH  28  30
ENDBRANCH  23  24
ENDBRANCH   2  23
TORSDOF 11
