REMARK  Name = ZINC08614100
REMARK  7 active torsions:
REMARK  status: ('A' for Active; 'I' for Inactive)
REMARK    1  A    between atoms: C_1  and  C_2
REMARK    2  A    between atoms: C_2  and  N_3
REMARK    3  A    between atoms: C_4  and  C_18
REMARK    4  A    between atoms: C_7  and  S_8
REMARK    5  A    between atoms: S_8  and  C_9
REMARK    6  A    between atoms: C_9  and  C_10
REMARK    7  A    between atoms: C_24  and  C_26
REMARK                            x       y       z     vdW  Elec       q    Type
REMARK                         _______ _______ _______ _____ _____    ______ ____
ROOT
ATOM      1  N   UNL     1      -1.372  -0.511   0.012  0.00  0.00    -0.301 N 
ATOM      2  C   UNL     1      -2.144  -0.800   1.115  0.00  0.00    +0.190 A 
ATOM      3  N   UNL     1      -3.305  -1.226   0.673  0.00  0.00    -0.126 NA
ATOM      4  N   UNL     1      -3.312  -1.224  -0.612  0.00  0.00    -0.122 NA
ATOM      5  C   UNL     1      -2.156  -0.790  -1.069  0.00  0.00    +0.192 A 
ENDROOT
BRANCH   2   6
ATOM      6  C   UNL     1      -1.742  -0.657   2.530  0.00  0.00    +0.193 A 
ATOM      7  C   UNL     1      -2.574  -0.975   3.697  0.00  0.00    +0.200 A 
ATOM      8  N   UNL     1      -1.883  -0.723   4.773  0.00  0.00    -0.033 NA
ATOM      9  O   UNL     1      -0.610  -0.246   4.375  0.00  0.00    -0.240 OA
ATOM     10  N   UNL     1      -0.580  -0.232   2.958  0.00  0.00    -0.044 NA
ATOM     11  N   UNL     1      -3.879  -1.461   3.661  0.00  0.00    -0.266 N 
ATOM     12  C   UNL     1      -4.536  -1.713   4.811  0.00  0.00    +0.215 C 
ATOM     13  O   UNL     1      -3.991  -1.516   5.876  0.00  0.00    -0.276 OA
ATOM     14  C   UNL     1      -5.948  -2.238   4.771  0.00  0.00    +0.109 C 
ATOM     15  H   UNL     1      -4.314  -1.618   2.809  0.00  0.00    +0.156 HD
ENDBRANCH   2   6
BRANCH   1  17
ATOM     16  C   UNL     1      -0.019   1.526   0.010  0.00  0.00    +0.027 C 
ATOM     17  C   UNL     1       0.002  -0.004   0.002  0.00  0.00    +0.122 C 
ENDBRANCH   1  17
BRANCH   5  18
ATOM     18  S   UNL     1      -1.704  -0.608  -2.762  0.00  0.00    -0.081 S 
BRANCH  18  19
ATOM     19  C   UNL     1      -3.180  -1.144  -3.671  0.00  0.00    +0.114 C 
BRANCH  19  20
ATOM     20  C   UNL     1      -2.924  -1.036  -5.152  0.00  0.00    -0.019 A 
ATOM     21  C   UNL     1      -3.216   0.139  -5.820  0.00  0.00    +0.009 A 
ATOM     22  C   UNL     1      -2.982   0.239  -7.178  0.00  0.00    +0.039 A 
ATOM     23  C   UNL     1      -2.456  -0.838  -7.871  0.00  0.00    +0.125 A 
ATOM     24  C   UNL     1      -2.163  -2.014  -7.203  0.00  0.00    +0.058 A 
ATOM     25  C   UNL     1      -2.393  -2.111  -5.842  0.00  0.00    +0.048 A 
ATOM     26 CL   UNL     1      -2.021  -3.584  -5.001  0.00  0.00    -0.083 Cl
ATOM     27  F   UNL     1      -2.228  -0.741  -9.199  0.00  0.00    -0.205 F 
ENDBRANCH  19  20
ENDBRANCH  18  19
ENDBRANCH   5  18
TORSDOF 5
