REMARK  Name = ZINC36597831
REMARK  16 active torsions:
REMARK  status: ('A' for Active; 'I' for Inactive)
REMARK    1  A    between atoms: C_1  and  C_2
REMARK    2  A    between atoms: C_5  and  C_7
REMARK    3  A    between atoms: C_7  and  N_8
REMARK    4  A    between atoms: N_8  and  C_9
REMARK    5  A    between atoms: C_9  and  C_11
REMARK    6  A    between atoms: C_9  and  C_20
REMARK    7  A    between atoms: C_14  and  N_17
REMARK    8  A    between atoms: N_17  and  C_18
REMARK    9  A    between atoms: N_17  and  C_19
REMARK   10  A    between atoms: N_22  and  C_23
REMARK   11  A    between atoms: C_23  and  C_24
REMARK   12  A    between atoms: C_23  and  C_25
REMARK   13  A    between atoms: C_23  and  C_26
REMARK   14  A    between atoms: C_27  and  C_29
REMARK   15  A    between atoms: C_33  and  O_36
REMARK   16  A    between atoms: C_34  and  O_35
REMARK                            x       y       z     vdW  Elec       q    Type
REMARK                         _______ _______ _______ _____ _____    ______ ____
ROOT
ATOM      1  N   UNL     1       2.926  -4.768  -0.843  0.00  0.00    -0.275 N 
ATOM      2  C   UNL     1       1.766  -4.762  -0.157  0.00  0.00    +0.252 C 
ATOM      3  O   UNL     1       0.946  -5.641  -0.342  0.00  0.00    -0.270 OA
ENDROOT
BRANCH   2   4
ATOM      4  C   UNL     1       1.490  -3.689   0.817  0.00  0.00    +0.082 A 
ATOM      5  C   UNL     1       1.577  -2.349   0.430  0.00  0.00    +0.017 A 
ATOM      6  C   UNL     1       1.318  -1.350   1.343  0.00  0.00    +0.005 A 
ATOM      7  C   UNL     1       0.971  -1.666   2.646  0.00  0.00    +0.049 A 
ATOM      8  C   UNL     1       0.880  -2.989   3.045  0.00  0.00    +0.159 A 
ATOM      9  C   UNL     1       1.133  -4.009   2.133  0.00  0.00    +0.171 A 
BRANCH   9  10
ATOM     10  O   UNL     1       1.040  -5.307   2.518  0.00  0.00    -0.503 OA
ATOM     11  H   UNL     1       1.865  -5.676   2.862  0.00  0.00    +0.292 HD
ENDBRANCH   9  10
BRANCH   8  12
ATOM     12  O   UNL     1       0.539  -3.291   4.326  0.00  0.00    -0.503 OA
ATOM     13  H   UNL     1      -0.413  -3.389   4.467  0.00  0.00    +0.292 HD
ENDBRANCH   8  12
ENDBRANCH   2   4
BRANCH   1  14
ATOM     14  C   UNL     1       3.252  -5.894  -1.721  0.00  0.00    +0.183 C 
BRANCH  14  19
ATOM     15  C   UNL     1       4.727  -9.663   1.288  0.00  0.00    +0.086 C 
ATOM     16  C   UNL     1       3.874  -8.813   0.383  0.00  0.00    +0.102 A 
ATOM     17  C   UNL     1       2.613  -9.086   0.004  0.00  0.00    +0.045 A 
ATOM     18  C   UNL     1       2.199  -8.030  -0.839  0.00  0.00    +0.046 A 
ATOM     19  C   UNL     1       3.233  -7.173  -0.926  0.00  0.00    +0.122 A 
ATOM     20  O   UNL     1       4.243  -7.650  -0.179  0.00  0.00    -0.463 OA
ENDBRANCH  14  19
ENDBRANCH   1  14
BRANCH   1  21
ATOM     21  C   UNL     1       3.861  -3.647  -0.710  0.00  0.00    +0.193 C 
BRANCH  21  22
ATOM     22  C   UNL     1       4.086  -3.018  -2.061  0.00  0.00    -0.018 A 
ATOM     23  C   UNL     1       3.199  -3.263  -3.093  0.00  0.00    +0.008 A 
ATOM     24  C   UNL     1       3.403  -2.688  -4.332  0.00  0.00    +0.023 A 
ATOM     25  C   UNL     1       4.500  -1.863  -4.541  0.00  0.00    +0.029 A 
ATOM     26  C   UNL     1       5.390  -1.619  -3.502  0.00  0.00    +0.023 A 
ATOM     27  C   UNL     1       5.177  -2.192  -2.264  0.00  0.00    +0.008 A 
BRANCH  25  28
ATOM     28  N   UNL     1       4.710  -1.280  -5.793  0.00  0.00    -0.336 N 
ATOM     29  C   UNL     1       3.772  -1.539  -6.887  0.00  0.00    +0.129 C 
ATOM     30  C   UNL     1       5.868  -0.410  -6.011  0.00  0.00    +0.129 C 
ENDBRANCH  25  28
ENDBRANCH  21  22
BRANCH  21  31
ATOM     31  C   UNL     1       5.172  -4.150  -0.164  0.00  0.00    +0.239 C 
ATOM     32  O   UNL     1       5.486  -5.312  -0.313  0.00  0.00    -0.273 OA
ATOM     33  N   UNL     1       5.998  -3.308   0.488  0.00  0.00    -0.309 N 
ATOM     34  H   UNL     1       5.747  -2.378   0.607  0.00  0.00    +0.149 HD
BRANCH  33  35
ATOM     35  C   UNL     1       7.273  -3.796   1.019  0.00  0.00    +0.026 C 
ATOM     36  C   UNL     1       8.129  -4.337  -0.129  0.00  0.00    +0.031 C 
ATOM     37  C   UNL     1       8.012  -2.647   1.708  0.00  0.00    +0.031 C 
ATOM     38  C   UNL     1       7.010  -4.913   2.030  0.00  0.00    +0.031 C 
ENDBRANCH  33  35
ENDBRANCH  21  31
ENDBRANCH   1  21
TORSDOF 10
