REMARK  Name = ZINC08970020
REMARK  9 active torsions:
REMARK  status: ('A' for Active; 'I' for Inactive)
REMARK    1  A    between atoms: C_3  and  S_6
REMARK    2  A    between atoms: S_6  and  C_9
REMARK    3  A    between atoms: C_9  and  C_11
REMARK    4  A    between atoms: C_9  and  C_27
REMARK    5  A    between atoms: C_11  and  N_12
REMARK    6  A    between atoms: C_13  and  C_15
REMARK    7  A    between atoms: N_17  and  C_18
REMARK    8  A    between atoms: C_18  and  C_19
REMARK    9  A    between atoms: C_19  and  C_20
REMARK                            x       y       z     vdW  Elec       q    Type
REMARK                         _______ _______ _______ _____ _____    ______ ____
ROOT
ATOM      1  C   UNL     1      -0.375   1.324  -8.547  0.00  0.00    +0.183 C 
ENDROOT
BRANCH   1   2
ATOM      2  C   UNL     1       0.331   0.838  -9.787  0.00  0.00    -0.018 A 
ATOM      3  C   UNL     1       1.646   1.197 -10.018  0.00  0.00    +0.009 A 
ATOM      4  C   UNL     1       2.298   0.750 -11.151  0.00  0.00    +0.050 A 
ATOM      5  C   UNL     1       1.632  -0.051 -12.065  0.00  0.00    +0.166 A 
ATOM      6  C   UNL     1       0.306  -0.408 -11.835  0.00  0.00    +0.167 A 
ATOM      7  C   UNL     1      -0.340   0.040 -10.694  0.00  0.00    +0.055 A 
ATOM      8  O   UNL     1      -0.120  -1.191 -12.868  0.00  0.00    -0.453 OA
ATOM      9  C   UNL     1       1.077  -1.646 -13.525  0.00  0.00    +0.466 C 
ATOM     10  O   UNL     1       2.037  -0.611 -13.242  0.00  0.00    -0.453 OA
ENDBRANCH   1   2
BRANCH   1  11
ATOM     11  S   UNL     1      -0.399   3.138  -8.537  0.00  0.00    +0.011 S 
ATOM     12  O   UNL     1      -0.923   3.627  -9.764  0.00  0.00    -0.168 OA
ATOM     13  O   UNL     1      -0.899   3.614  -7.295  0.00  0.00    -0.168 OA
BRANCH  11  16
ATOM     14  C   UNL     1       3.421   4.217  -9.380  0.00  0.00    +0.009 A 
ATOM     15  C   UNL     1       2.109   3.850  -9.610  0.00  0.00    +0.035 A 
ATOM     16  C   UNL     1       1.297   3.614  -8.551  0.00  0.00    +0.126 A 
ATOM     17  S   UNL     1       2.391   3.918  -7.173  0.00  0.00    -0.078 S 
ATOM     18  C   UNL     1       3.858   4.330  -8.102  0.00  0.00    +0.047 A 
ENDBRANCH  11  16
ENDBRANCH   1  11
BRANCH   1  19
ATOM     19  C   UNL     1       0.365   0.818  -7.308  0.00  0.00    +0.136 C 
BRANCH  19  20
ATOM     20  N   UNL     1      -0.321   1.290  -6.102  0.00  0.00    -0.305 N 
ATOM     21  C   UNL     1       0.156   0.964  -4.884  0.00  0.00    +0.299 C 
ATOM     22  O   UNL     1       1.153   0.279  -4.786  0.00  0.00    -0.265 OA
ATOM     23  H   UNL     1      -1.117   1.837  -6.181  0.00  0.00    +0.149 HD
BRANCH  21  24
ATOM     24  C   UNL     1      -0.543   1.446  -3.655  0.00  0.00    +0.299 C 
ATOM     25  O   UNL     1      -1.540   2.131  -3.753  0.00  0.00    -0.265 OA
ATOM     26  N   UNL     1      -0.067   1.120  -2.437  0.00  0.00    -0.307 N 
ATOM     27  H   UNL     1       0.730   0.573  -2.358  0.00  0.00    +0.149 HD
BRANCH  26  28
ATOM     28  C   UNL     1      -0.753   1.593  -1.232  0.00  0.00    +0.109 C 
BRANCH  28  29
ATOM     29  C   UNL     1      -0.013   1.086   0.008  0.00  0.00    +0.054 C 
BRANCH  29  30
ATOM     30  C   UNL     1      -0.718   1.572   1.248  0.00  0.00    -0.046 A 
ATOM     31  C   UNL     1      -0.359   2.779   1.818  0.00  0.00    +0.006 A 
ATOM     32  C   UNL     1      -1.009   3.228   2.953  0.00  0.00    +0.038 A 
ATOM     33  C   UNL     1      -2.012   2.463   3.524  0.00  0.00    +0.123 A 
ATOM     34  C   UNL     1      -2.367   1.252   2.955  0.00  0.00    +0.038 A 
ATOM     35  C   UNL     1      -1.719   0.807   1.817  0.00  0.00    +0.006 A 
ATOM     36  F   UNL     1      -2.644   2.899   4.635  0.00  0.00    -0.205 F 
ENDBRANCH  29  30
ENDBRANCH  28  29
ENDBRANCH  26  28
ENDBRANCH  21  24
ENDBRANCH  19  20
ENDBRANCH   1  19
TORSDOF 9
