REMARK  Name = ZINC23946925
REMARK  8 active torsions:
REMARK  status: ('A' for Active; 'I' for Inactive)
REMARK    1  A    between atoms: C_1  and  C_2
REMARK    2  A    between atoms: C_2  and  C_27
REMARK    3  A    between atoms: N_5  and  N_9
REMARK    4  A    between atoms: C_10  and  C_12
REMARK    5  A    between atoms: C_16  and  N_18
REMARK    6  A    between atoms: C_19  and  C_21
REMARK    7  A    between atoms: C_27  and  C_28
REMARK    8  A    between atoms: C_28  and  C_29
REMARK                            x       y       z     vdW  Elec       q    Type
REMARK                         _______ _______ _______ _____ _____    ______ ____
ROOT
ATOM      1  N   UNL     1      -5.176   7.364  -3.908  0.00  0.00    -0.220 N 
ATOM      2  C   UNL     1      -4.231   8.014  -4.617  0.00  0.00    +0.261 C 
ATOM      3  O   UNL     1      -3.067   7.956  -4.274  0.00  0.00    -0.269 OA
ATOM      4  H   UNL     1      -6.230   7.416  -4.218  0.00  0.00    +0.174 HD
ENDROOT
BRANCH   1   9
ATOM      5  C   UNL     1      -5.401   4.090  -0.626  0.00  0.00    +0.041 C 
ATOM      6  C   UNL     1      -4.327   4.923  -1.328  0.00  0.00    +0.112 C 
ATOM      7  C   UNL     1      -4.758   5.277  -2.738  0.00  0.00    +0.263 C 
ATOM      8  O   UNL     1      -5.000   4.508  -3.644  0.00  0.00    -0.271 OA
ATOM      9  N   UNL     1      -4.815   6.622  -2.775  0.00  0.00    -0.137 N 
ATOM     10  C   UNL     1      -4.483   7.163  -1.597  0.00  0.00    +0.326 C 
ATOM     11  O   UNL     1      -4.461   8.360  -1.385  0.00  0.00    -0.251 OA
ATOM     12  N   UNL     1      -4.177   6.234  -0.673  0.00  0.00    -0.284 N 
ATOM     13  H   UNL     1      -3.866   6.290   0.380  0.00  0.00    +0.151 HD
BRANCH   6  14
ATOM     14  C   UNL     1      -2.993   4.174  -1.345  0.00  0.00    +0.040 C 
BRANCH  14  15
ATOM     15  C   UNL     1      -2.529   3.926   0.092  0.00  0.00    +0.038 C 
BRANCH  15  16
ATOM     16  C   UNL     1      -1.215   3.189   0.076  0.00  0.00    -0.047 A 
ATOM     17  C   UNL     1      -1.199   1.806   0.073  0.00  0.00    +0.003 A 
ATOM     18  C   UNL     1       0.007   1.130   0.064  0.00  0.00    +0.000 A 
ATOM     19  C   UNL     1       1.195   1.835   0.046  0.00  0.00    +0.000 A 
ATOM     20  C   UNL     1       1.179   3.217   0.044  0.00  0.00    +0.000 A 
ATOM     21  C   UNL     1      -0.026   3.894   0.059  0.00  0.00    +0.003 A 
ENDBRANCH  15  16
ENDBRANCH  14  15
ENDBRANCH   6  14
ENDBRANCH   1   9
BRANCH   2  22
ATOM     22  C   UNL     1      -4.612   8.796  -5.811  0.00  0.00    +0.040 A 
ATOM     23  C   UNL     1      -5.950   8.864  -6.207  0.00  0.00    +0.014 A 
ATOM     24  C   UNL     1      -6.303   9.594  -7.322  0.00  0.00    +0.022 A 
ATOM     25  C   UNL     1      -5.336  10.263  -8.052  0.00  0.00    +0.062 A 
ATOM     26  C   UNL     1      -4.001  10.201  -7.666  0.00  0.00    +0.053 A 
ATOM     27  C   UNL     1      -3.637   9.474  -6.544  0.00  0.00    +0.038 A 
ATOM     28 CL   UNL     1      -5.790  11.181  -9.454  0.00  0.00    -0.082 Cl
BRANCH  26  29
ATOM     29  N   UNL     1      -3.026  10.879  -8.406  0.00  0.00    -0.280 N 
ATOM     30  C   UNL     1      -1.745  10.461  -8.376  0.00  0.00    +0.255 C 
ATOM     31  O   UNL     1      -1.453   9.437  -7.787  0.00  0.00    -0.269 OA
ATOM     32  H   UNL     1      -3.305  11.753  -9.013  0.00  0.00    +0.155 HD
BRANCH  30  33
ATOM     33  C   UNL     1      -0.704  11.240  -9.053  0.00  0.00    +0.074 A 
ATOM     34  C   UNL     1       0.656  10.989  -9.141  0.00  0.00    +0.021 A 
ATOM     35  C   UNL     1       1.414  11.891  -9.845  0.00  0.00    +0.008 A 
ATOM     36  C   UNL     1       0.808  12.968 -10.411  0.00  0.00    +0.046 A 
ATOM     37  S   UNL     1      -0.859  12.754  -9.984  0.00  0.00    -0.092 S 
ENDBRANCH  30  33
ENDBRANCH  26  29
ENDBRANCH   2  22
TORSDOF 7
