REMARK  Name = ZINC13017683
REMARK  4 active torsions:
REMARK  status: ('A' for Active; 'I' for Inactive)
REMARK    1  A    between atoms: C_1  and  C_2
REMARK    2  A    between atoms: C_4  and  N_22
REMARK    3  A    between atoms: C_7  and  N_8
REMARK    4  A    between atoms: C_9  and  C_11
REMARK                            x       y       z     vdW  Elec       q    Type
REMARK                         _______ _______ _______ _____ _____    ______ ____
ROOT
ATOM      1  N   UNL     1       2.355   3.889   0.001  0.00  0.00    -0.282 N 
ATOM      2  C   UNL     1       3.531   3.236   0.088  0.00  0.00    +0.258 C 
ATOM      3  O   UNL     1       3.554   2.024   0.082  0.00  0.00    -0.271 OA
ATOM      4  H   UNL     1       2.341   4.857  -0.059  0.00  0.00    +0.155 HD
ENDROOT
BRANCH   2   5
ATOM      5  C   UNL     1       4.818   4.013   0.194  0.00  0.00    +0.263 C 
ATOM      6  C   UNL     1       5.106   4.779  -1.119  0.00  0.00    +0.093 C 
ATOM      7  C   UNL     1       6.618   4.670  -1.218  0.00  0.00    -0.000 A 
ATOM      8  C   UNL     1       7.546   5.353  -1.972  0.00  0.00    +0.027 A 
ATOM      9  C   UNL     1       8.893   5.059  -1.845  0.00  0.00    +0.041 A 
ATOM     10  C   UNL     1       9.300   4.078  -0.958  0.00  0.00    +0.023 A 
ATOM     11  C   UNL     1       8.372   3.392  -0.203  0.00  0.00    +0.047 A 
ATOM     12  C   UNL     1       7.015   3.679  -0.330  0.00  0.00    +0.125 A 
ATOM     13  O   UNL     1       5.943   3.124   0.301  0.00  0.00    -0.479 OA
ATOM     14 CL   UNL     1      10.066   5.916  -2.796  0.00  0.00    -0.084 Cl
ENDBRANCH   2   5
BRANCH   1  21
ATOM     15  C   UNL     1       0.089   5.051   1.270  0.00  0.00    +0.046 C 
ATOM     16  C   UNL     1       0.025   3.700   0.606  0.00  0.00    -0.027 A 
ATOM     17  C   UNL     1      -1.159   2.987   0.601  0.00  0.00    +0.038 A 
ATOM     18  C   UNL     1      -1.220   1.750  -0.014  0.00  0.00    +0.127 A 
ATOM     19  C   UNL     1      -0.095   1.217  -0.616  0.00  0.00    +0.034 A 
ATOM     20  C   UNL     1       1.091   1.925  -0.614  0.00  0.00    +0.026 A 
ATOM     21  C   UNL     1       1.155   3.170  -0.003  0.00  0.00    +0.037 A 
BRANCH  18  22
ATOM     22  N   UNL     1      -2.491   0.992  -0.023  0.00  0.00    +0.056 N 
ATOM     23  O   UNL     1      -2.546  -0.100  -0.560  0.00  0.00    -0.126 OA
ATOM     24  O   UNL     1      -3.483   1.460   0.507  0.00  0.00    -0.126 OA
ENDBRANCH  18  22
ENDBRANCH   1  21
TORSDOF 3
