REMARK  Name = ZINC39582118
REMARK  12 active torsions:
REMARK  status: ('A' for Active; 'I' for Inactive)
REMARK    1  A    between atoms: C_1  and  C_2
REMARK    2  A    between atoms: C_2  and  N_3
REMARK    3  A    between atoms: N_3  and  C_4
REMARK    4  A    between atoms: N_3  and  S_6
REMARK    5  A    between atoms: C_4  and  C_5
REMARK    6  A    between atoms: S_6  and  C_9
REMARK    7  A    between atoms: C_13  and  C_15
REMARK    8  A    between atoms: C_15  and  O_17
REMARK    9  A    between atoms: O_17  and  C_18
REMARK   10  A    between atoms: C_18  and  C_20
REMARK   11  A    between atoms: C_18  and  C_21
REMARK   12  A    between atoms: N_26  and  C_27
REMARK                            x       y       z     vdW  Elec       q    Type
REMARK                         _______ _______ _______ _____ _____    ______ ____
ROOT
ATOM      1  C   UNL     1       4.657   2.330   4.492  0.00  0.00    +0.341 C 
ATOM      2  O   UNL     1       5.275   3.342   4.755  0.00  0.00    -0.245 OA
ENDROOT
BRANCH   1   7
ATOM      3  C   UNL     1       3.218   0.606   1.484  0.00  0.00    +0.106 A 
ATOM      4  C   UNL     1       3.567   1.487   0.475  0.00  0.00    +0.030 A 
ATOM      5  C   UNL     1       4.271   2.641   0.768  0.00  0.00    +0.023 A 
ATOM      6  C   UNL     1       4.629   2.922   2.073  0.00  0.00    +0.055 A 
ATOM      7  C   UNL     1       4.278   2.037   3.096  0.00  0.00    +0.079 A 
ATOM      8  C   UNL     1       3.563   0.876   2.791  0.00  0.00    +0.045 A 
ATOM      9 CL   UNL     1       5.513   4.371   2.440  0.00  0.00    -0.083 Cl
BRANCH   3  10
ATOM     10  S   UNL     1       2.322  -0.861   1.097  0.00  0.00    +0.061 S 
ATOM     11  O   UNL     1       2.586  -1.786   2.143  0.00  0.00    -0.153 OA
ATOM     12  O   UNL     1       2.594  -1.155  -0.266  0.00  0.00    -0.153 OA
BRANCH  10  13
ATOM     13  N   UNL     1       0.711  -0.489   1.189  0.00  0.00    -0.177 NA
BRANCH  13  15
ATOM     14  C   UNL     1      -0.019   1.526   0.010  0.00  0.00    +0.022 C 
ATOM     15  C   UNL     1       0.002  -0.004   0.002  0.00  0.00    +0.106 C 
ENDBRANCH  13  15
BRANCH  13  16
ATOM     16  C   UNL     1      -0.006  -0.646   2.457  0.00  0.00    +0.106 C 
ATOM     17  C   UNL     1      -0.694  -2.013   2.489  0.00  0.00    +0.022 C 
ENDBRANCH  13  16
ENDBRANCH  10  13
ENDBRANCH   3  10
ENDBRANCH   1   7
BRANCH   1  18
ATOM     18  O   UNL     1       4.317   1.474   5.476  0.00  0.00    -0.449 OA
BRANCH  18  19
ATOM     19  C   UNL     1       4.716   1.820   6.804  0.00  0.00    +0.259 C 
ATOM     20  C   UNL     1       6.101   1.235   7.089  0.00  0.00    +0.062 C 
BRANCH  19  21
ATOM     21  C   UNL     1       3.722   1.262   7.789  0.00  0.00    +0.261 C 
ATOM     22  O   UNL     1       2.817   0.555   7.401  0.00  0.00    -0.271 OA
ATOM     23  N   UNL     1       3.838   1.550   9.100  0.00  0.00    -0.237 N 
ATOM     24  C   UNL     1       2.949   1.051   9.981  0.00  0.00    +0.306 C 
ATOM     25  O   UNL     1       2.041   0.342   9.593  0.00  0.00    -0.252 OA
ATOM     26  N   UNL     1       3.065   1.338  11.293  0.00  0.00    -0.296 N 
ATOM     27  H   UNL     1       4.562   2.116   9.410  0.00  0.00    +0.159 HD
ATOM     28  H   UNL     1       3.790   1.904  11.603  0.00  0.00    +0.151 HD
BRANCH  26  29
ATOM     29  C   UNL     1       2.099   0.796  12.251  0.00  0.00    +0.074 C 
ATOM     30  C   UNL     1       2.531  -0.611  12.670  0.00  0.00    +0.022 C 
ATOM     31  C   UNL     1       1.521  -1.177  13.671  0.00  0.00    +0.002 C 
ATOM     32  C   UNL     1       1.461  -0.273  14.903  0.00  0.00    +0.000 C 
ATOM     33  C   UNL     1       1.029   1.134  14.483  0.00  0.00    +0.002 C 
ATOM     34  C   UNL     1       2.039   1.700  13.483  0.00  0.00    +0.022 C 
ENDBRANCH  26  29
ENDBRANCH  19  21
ENDBRANCH  18  19
ENDBRANCH   1  18
TORSDOF 9
