REMARK  Name = ZINC13575984
REMARK  7 active torsions:
REMARK  status: ('A' for Active; 'I' for Inactive)
REMARK    1  A    between atoms: C_1  and  C_2
REMARK    2  A    between atoms: C_2  and  C_3
REMARK    3  A    between atoms: C_3  and  C_4
REMARK    4  A    between atoms: C_4  and  N_5
REMARK    5  A    between atoms: C_10  and  C_28
REMARK    6  A    between atoms: C_28  and  C_29
REMARK    7  A    between atoms: C_32  and  O_35
REMARK                            x       y       z     vdW  Elec       q    Type
REMARK                         _______ _______ _______ _____ _____    ______ ____
ROOT
ATOM      1  N   UNL     1       1.471  -2.526   2.420  0.00  0.00    -0.242 N 
ATOM      2  C   UNL     1       2.791  -2.744   2.436  0.00  0.00    +0.227 C 
ATOM      3  O   UNL     1       3.541  -2.571   1.499  0.00  0.00    -0.275 OA
ATOM      4  C   UNL     1       3.203  -3.240   3.804  0.00  0.00    +0.107 C 
ATOM      5  C   UNL     1       3.643  -4.715   3.697  0.00  0.00    +0.072 C 
ATOM      6  N   UNL     1       2.970  -5.397   4.834  0.00  0.00    -0.295 NA
ATOM      7  C   UNL     1       1.638  -4.766   4.896  0.00  0.00    +0.136 C 
ATOM      8  C   UNL     1       1.864  -3.264   4.593  0.00  0.00    +0.122 C 
ATOM      9  C   UNL     1       0.852  -2.782   3.578  0.00  0.00    +0.228 C 
ATOM     10  O   UNL     1      -0.336  -2.651   3.781  0.00  0.00    -0.275 OA
ATOM     11  C   UNL     1       0.683  -5.396   3.923  0.00  0.00    +0.004 A 
ATOM     12  C   UNL     1       0.688  -5.548   2.554  0.00  0.00    +0.023 A 
ATOM     13  C   UNL     1      -0.364  -6.193   1.925  0.00  0.00    +0.018 A 
ATOM     14  C   UNL     1      -1.418  -6.684   2.676  0.00  0.00    +0.017 A 
ATOM     15  C   UNL     1      -1.425  -6.534   4.047  0.00  0.00    +0.025 A 
ATOM     16  C   UNL     1      -0.372  -5.886   4.687  0.00  0.00    +0.039 A 
ATOM     17  N   UNL     1      -0.155  -5.613   6.040  0.00  0.00    -0.283 N 
ATOM     18  C   UNL     1       1.004  -4.958   6.247  0.00  0.00    +0.243 C 
ATOM     19  O   UNL     1       1.449  -4.593   7.314  0.00  0.00    -0.273 OA
ATOM     20 BR   UNL     1      -0.360  -6.402   0.046  0.00  0.00    -0.050 Br
ATOM     21  H   UNL     1       2.892  -6.389   4.665  0.00  0.00    +0.124 HD
ATOM     22  H   UNL     1      -0.767  -5.867   6.748  0.00  0.00    +0.155 HD
ENDROOT
BRANCH   1  23
ATOM     23  C   UNL     1       0.763  -2.041   1.233  0.00  0.00    +0.116 C 
BRANCH  23  24
ATOM     24  C   UNL     1       0.742  -0.511   1.242  0.00  0.00    +0.019 C 
BRANCH  24  26
ATOM     25  C   UNL     1      -0.019   1.526   0.010  0.00  0.00    +0.004 C 
ATOM     26  C   UNL     1       0.002  -0.004   0.002  0.00  0.00    -0.002 C 
ENDBRANCH  24  26
ENDBRANCH  23  24
ENDBRANCH   1  23
BRANCH   5  27
ATOM     27  C   UNL     1       5.163  -4.828   3.830  0.00  0.00    +0.054 C 
BRANCH  27  28
ATOM     28  C   UNL     1       5.582  -6.257   3.600  0.00  0.00    -0.046 A 
ATOM     29  C   UNL     1       5.650  -7.136   4.665  0.00  0.00    +0.007 A 
ATOM     30  C   UNL     1       6.035  -8.447   4.457  0.00  0.00    +0.045 A 
ATOM     31  C   UNL     1       6.353  -8.881   3.179  0.00  0.00    +0.117 A 
ATOM     32  C   UNL     1       6.284  -7.997   2.112  0.00  0.00    +0.045 A 
ATOM     33  C   UNL     1       5.894  -6.689   2.324  0.00  0.00    +0.007 A 
BRANCH  31  34
ATOM     34  O   UNL     1       6.732 -10.169   2.972  0.00  0.00    -0.507 OA
ATOM     35  H   UNL     1       5.998 -10.769   2.779  0.00  0.00    +0.292 HD
ENDBRANCH  31  34
ENDBRANCH  27  28
ENDBRANCH   5  27
TORSDOF 6
