REMARK  Name = ZINC34705136
REMARK  8 active torsions:
REMARK  status: ('A' for Active; 'I' for Inactive)
REMARK    1  A    between atoms: C_1  and  C_2
REMARK    2  A    between atoms: C_2  and  C_3
REMARK    3  A    between atoms: C_3  and  C_5
REMARK    4  A    between atoms: C_3  and  C_6
REMARK    5  A    between atoms: C_6  and  C_8
REMARK    6  A    between atoms: C_6  and  N_25
REMARK    7  A    between atoms: C_14  and  C_16
REMARK    8  A    between atoms: C_26  and  C_28
REMARK                            x       y       z     vdW  Elec       q    Type
REMARK                         _______ _______ _______ _____ _____    ______ ____
ROOT
ATOM      1  C   UNL     1       1.747  -2.410   0.003  0.00  0.00    +0.239 C 
ATOM      2  O   UNL     1       1.305  -3.107  -0.886  0.00  0.00    -0.273 OA
ATOM      3  N   UNL     1       3.020  -1.971  -0.054  0.00  0.00    -0.262 N 
ATOM      4  C   UNL     1       3.827  -2.318  -1.131  0.00  0.00    +0.188 A 
ATOM      5  N   UNL     1       3.552  -3.054  -2.200  0.00  0.00    -0.125 NA
ATOM      6  N   UNL     1       4.410  -3.274  -3.098  0.00  0.00    -0.140 NA
ATOM      7  C   UNL     1       5.641  -2.782  -3.026  0.00  0.00    +0.134 A 
ATOM      8  S   UNL     1       5.531  -1.892  -1.476  0.00  0.00    -0.030 S 
ATOM      9  H   UNL     1       3.373  -1.414   0.657  0.00  0.00    +0.157 HD
ENDROOT
BRANCH   7  10
ATOM     10  C   UNL     1       6.777  -2.923  -3.961  0.00  0.00    +0.013 A 
ATOM     11  C   UNL     1       8.000  -2.314  -3.675  0.00  0.00    +0.014 A 
ATOM     12  C   UNL     1       9.058  -2.448  -4.548  0.00  0.00    +0.050 A 
ATOM     13  C   UNL     1       8.913  -3.186  -5.713  0.00  0.00    +0.166 A 
ATOM     14  C   UNL     1       7.694  -3.797  -6.006  0.00  0.00    +0.167 A 
ATOM     15  C   UNL     1       6.631  -3.671  -5.130  0.00  0.00    +0.060 A 
ATOM     16  O   UNL     1       7.811  -4.456  -7.196  0.00  0.00    -0.453 OA
ATOM     17  C   UNL     1       8.982  -3.905  -7.827  0.00  0.00    +0.466 C 
ATOM     18  O   UNL     1       9.791  -3.464  -6.721  0.00  0.00    -0.453 OA
ENDBRANCH   7  10
BRANCH   1  19
ATOM     19  C   UNL     1       0.872  -2.034   1.171  0.00  0.00    +0.162 C 
BRANCH  19  20
ATOM     20  N   UNL     1      -0.455  -2.630   0.999  0.00  0.00    -0.297 N 
ATOM     21  C   UNL     1      -1.229  -2.875   2.075  0.00  0.00    +0.280 C 
ATOM     22  O   UNL     1      -0.825  -2.601   3.189  0.00  0.00    -0.267 OA
ATOM     23  H   UNL     1      -0.777  -2.848   0.110  0.00  0.00    +0.150 HD
BRANCH  21  24
ATOM     24  C   UNL     1      -2.557  -3.471   1.902  0.00  0.00    +0.189 A 
ATOM     25  C   UNL     1      -3.441  -3.765   2.901  0.00  0.00    +0.054 A 
ATOM     26  C   UNL     1      -4.576  -4.317   2.287  0.00  0.00    +0.042 A 
ATOM     27  C   UNL     1      -4.338  -4.335   0.956  0.00  0.00    +0.196 A 
ATOM     28  O   UNL     1      -3.123  -3.820   0.728  0.00  0.00    -0.458 OA
ENDBRANCH  21  24
ENDBRANCH  19  20
BRANCH  19  29
ATOM     29  C   UNL     1       0.742  -0.511   1.242  0.00  0.00    +0.015 C 
ATOM     30  C   UNL     1      -0.042  -0.124   2.497  0.00  0.00    +0.010 C 
BRANCH  29  32
ATOM     31  C   UNL     1      -0.019   1.526   0.010  0.00  0.00    +0.004 C 
ATOM     32  C   UNL     1       0.002  -0.004   0.002  0.00  0.00    +0.002 C 
ENDBRANCH  29  32
ENDBRANCH  19  29
ENDBRANCH   1  19
TORSDOF 6
