REMARK  Name = ZINC19228162
REMARK  9 active torsions:
REMARK  status: ('A' for Active; 'I' for Inactive)
REMARK    1  A    between atoms: C_1  and  N_2
REMARK    2  A    between atoms: N_2  and  C_3
REMARK    3  A    between atoms: N_2  and  C_4
REMARK    4  A    between atoms: C_7  and  C_10
REMARK    5  A    between atoms: N_11  and  N_12
REMARK    6  A    between atoms: C_13  and  S_15
REMARK    7  A    between atoms: S_15  and  C_16
REMARK    8  A    between atoms: N_21  and  C_24
REMARK    9  A    between atoms: C_27  and  C_30
REMARK                            x       y       z     vdW  Elec       q    Type
REMARK                         _______ _______ _______ _____ _____    ______ ____
ROOT
ATOM      1  N   UNL     1      -0.428  -1.950  -7.174  0.00  0.00    -0.217 N 
ATOM      2  C   UNL     1      -0.359  -1.489  -8.469  0.00  0.00    +0.146 C 
ATOM      3  N   UNL     1      -0.425  -0.209  -8.711  0.00  0.00    -0.380 N 
ATOM      4  H   UNL     1      -0.379  -2.902  -6.994  0.00  0.00    +0.176 HD
ATOM      5  H   UNL     1      -0.376   0.116  -9.623  0.00  0.00    +0.158 HD
ATOM      6  H   UNL     1      -0.521   0.419  -7.977  0.00  0.00    +0.158 HD
ENDROOT
BRANCH   1   8
ATOM      7  C   UNL     1      -0.632  -1.478  -4.893  0.00  0.00    +0.138 C 
ATOM      8  N   UNL     1      -0.567  -1.044  -6.115  0.00  0.00    -0.188 NA
BRANCH   7  12
ATOM      9  C   UNL     1      -1.053   1.269  -1.683  0.00  0.00    +0.029 A 
ATOM     10  C   UNL     1      -0.985  -0.096  -1.424  0.00  0.00    +0.024 A 
ATOM     11  C   UNL     1      -0.848  -0.990  -2.463  0.00  0.00    +0.011 A 
ATOM     12  C   UNL     1      -0.778  -0.524  -3.779  0.00  0.00    -0.005 A 
ATOM     13  C   UNL     1      -0.848   0.848  -4.035  0.00  0.00    +0.011 A 
ATOM     14  C   UNL     1      -0.990   1.736  -2.991  0.00  0.00    +0.024 A 
BRANCH   9  16
ATOM     15  C   UNL     1      -1.270   3.609  -0.900  0.00  0.00    +0.129 C 
ATOM     16  N   UNL     1      -1.192   2.171  -0.628  0.00  0.00    -0.336 N 
ATOM     17  C   UNL     1      -1.259   1.682   0.751  0.00  0.00    +0.129 C 
ENDBRANCH   9  16
ENDBRANCH   7  12
ENDBRANCH   1   8
BRANCH   2  18
ATOM     18  S   UNL     1      -0.184  -2.629  -9.801  0.00  0.00    -0.078 S 
BRANCH  18  19
ATOM     19  C   UNL     1      -0.140  -1.576 -11.277  0.00  0.00    +0.149 C 
ATOM     20  C   UNL     1      -0.059  -2.435 -12.556  0.00  0.00    +0.120 C 
ATOM     21  C   UNL     1       1.254  -2.018 -13.181  0.00  0.00    +0.228 C 
ATOM     22  O   UNL     1       1.710  -2.457 -14.215  0.00  0.00    -0.275 OA
ATOM     23  N   UNL     1       1.833  -1.088 -12.411  0.00  0.00    -0.209 N 
ATOM     24  C   UNL     1       1.134  -0.761 -11.313  0.00  0.00    +0.240 C 
ATOM     25  O   UNL     1       1.468   0.056 -10.482  0.00  0.00    -0.274 OA
BRANCH  23  26
ATOM     26  C   UNL     1       3.062  -0.505 -12.726  0.00  0.00    +0.044 A 
ATOM     27  C   UNL     1       3.171   0.328 -13.834  0.00  0.00    +0.025 A 
ATOM     28  C   UNL     1       4.381   0.905 -14.148  0.00  0.00    +0.017 A 
ATOM     29  C   UNL     1       5.502   0.653 -13.350  0.00  0.00    +0.063 A 
ATOM     30  C   UNL     1       5.388  -0.185 -12.236  0.00  0.00    +0.017 A 
ATOM     31  C   UNL     1       4.173  -0.754 -11.926  0.00  0.00    +0.025 A 
BRANCH  29  32
ATOM     32  C   UNL     1       6.798   1.268 -13.682  0.00  0.00    +0.387 C 
ATOM     33  O   UNL     1       6.896   2.001 -14.657  0.00  0.00    -0.241 OA
ATOM     34  O   UNL     1       7.777   1.046 -12.983  0.00  0.00    -0.241 OA
ENDBRANCH  29  32
ENDBRANCH  23  26
ENDBRANCH  18  19
ENDBRANCH   2  18
TORSDOF 7
