REMARK  Name = ZINC67236172
REMARK  8 active torsions:
REMARK  status: ('A' for Active; 'I' for Inactive)
REMARK    1  A    between atoms: C_1  and  C_2
REMARK    2  A    between atoms: N_10  and  C_28
REMARK    3  A    between atoms: C_11  and  S_13
REMARK    4  A    between atoms: S_13  and  C_14
REMARK    5  A    between atoms: C_14  and  C_15
REMARK    6  A    between atoms: N_17  and  C_18
REMARK    7  A    between atoms: C_28  and  C_29
REMARK    8  A    between atoms: C_28  and  C_30
REMARK                            x       y       z     vdW  Elec       q    Type
REMARK                         _______ _______ _______ _____ _____    ______ ____
ROOT
ATOM      1  C   UNL     1      -0.018   1.503   0.010  0.00  0.00    +0.063 C 
ATOM      2  C   UNL     1       0.002  -0.004   0.002  0.00  0.00    +0.016 A 
ATOM      3  C   UNL     1       0.008  -0.776  -1.103  0.00  0.00    +0.051 A 
ATOM      4  C   UNL     1       0.028  -2.126  -0.690  0.00  0.00    +0.097 A 
ATOM      5  C   UNL     1       0.034  -2.116   0.710  0.00  0.00    +0.131 A 
ATOM      6  N   UNL     1       0.023  -0.796   1.109  0.00  0.00    -0.353 N 
ATOM      7  H   UNL     1       0.028  -0.483   2.027  0.00  0.00    +0.166 HD
ATOM      8  C   UNL     1       0.054  -3.344   1.396  0.00  0.00    +0.279 A 
ATOM      9  O   UNL     1       0.059  -3.378   2.615  0.00  0.00    -0.265 OA
ATOM     10  N   UNL     1       0.067  -4.486   0.674  0.00  0.00    -0.284 N 
ATOM     11  C   UNL     1       0.061  -4.441  -0.691  0.00  0.00    +0.173 A 
ATOM     12  N   UNL     1       0.041  -3.303  -1.346  0.00  0.00    -0.221 NA
ENDROOT
BRANCH  10  13
ATOM     13  C   UNL     1       0.087  -5.781   1.359  0.00  0.00    +0.087 C 
ATOM     14  C   UNL     1       1.342  -5.877   2.230  0.00  0.00    +0.031 C 
ATOM     15  C   UNL     1      -1.157  -5.911   2.240  0.00  0.00    +0.031 C 
ENDBRANCH  10  13
BRANCH  11  16
ATOM     16  S   UNL     1       0.079  -5.951  -1.598  0.00  0.00    -0.078 S 
BRANCH  16  17
ATOM     17  C   UNL     1       0.065  -5.421  -3.333  0.00  0.00    +0.173 C 
BRANCH  17  18
ATOM     18  C   UNL     1       0.079  -6.633  -4.229  0.00  0.00    +0.224 C 
ATOM     19  O   UNL     1       0.097  -7.745  -3.744  0.00  0.00    -0.275 OA
ATOM     20  N   UNL     1       0.071  -6.481  -5.568  0.00  0.00    -0.308 N 
ATOM     21  H   UNL     1       0.057  -5.592  -5.955  0.00  0.00    +0.149 HD
BRANCH  20  22
ATOM     22  C   UNL     1       0.085  -7.660  -6.438  0.00  0.00    +0.104 C 
ATOM     23  C   UNL     1      -0.505  -7.311  -7.821  0.00  0.00    +0.032 C 
ATOM     24  C   UNL     1       0.338  -8.186  -8.772  0.00  0.00    +0.037 C 
ATOM     25  C   UNL     1       1.655  -8.395  -8.055  0.00  0.00    -0.042 A 
ATOM     26  C   UNL     1       1.509  -8.094  -6.712  0.00  0.00    -0.024 A 
ATOM     27  C   UNL     1       2.590  -8.216  -5.855  0.00  0.00    +0.006 A 
ATOM     28  C   UNL     1       3.814  -8.638  -6.337  0.00  0.00    +0.000 A 
ATOM     29  C   UNL     1       3.961  -8.941  -7.677  0.00  0.00    +0.000 A 
ATOM     30  C   UNL     1       2.882  -8.817  -8.537  0.00  0.00    +0.004 A 
ENDBRANCH  20  22
ENDBRANCH  17  18
ENDBRANCH  16  17
ENDBRANCH  11  16
TORSDOF 5
