REMARK  Name = ZINC39631779
REMARK  13 active torsions:
REMARK  status: ('A' for Active; 'I' for Inactive)
REMARK    1  A    between atoms: C_1  and  C_2
REMARK    2  A    between atoms: C_2  and  C_4
REMARK    3  A    between atoms: C_2  and  N_11
REMARK    4  A    between atoms: C_4  and  C_5
REMARK    5  A    between atoms: C_5  and  C_6
REMARK    6  A    between atoms: C_6  and  C_7
REMARK    7  A    between atoms: C_7  and  C_8
REMARK    8  A    between atoms: C_7  and  C_9
REMARK    9  A    between atoms: C_7  and  O_10
REMARK   10  A    between atoms: C_12  and  C_14
REMARK   11  A    between atoms: C_25  and  C_27
REMARK   12  A    between atoms: C_29  and  O_34
REMARK   13  A    between atoms: O_34  and  C_35
REMARK                            x       y       z     vdW  Elec       q    Type
REMARK                         _______ _______ _______ _____ _____    ______ ____
ROOT
ATOM      1  C   UNL     1       3.066  -2.024   2.736  0.00  0.00    +0.100 C 
ATOM      2  C   UNL     1       2.743  -0.810   3.637  0.00  0.00    +0.121 C 
ATOM      3  N   UNL     1       4.037  -0.455   4.265  0.00  0.00    -0.296 N 
ATOM      4  C   UNL     1       5.034  -0.637   3.183  0.00  0.00    +0.115 C 
ATOM      5  C   UNL     1       4.570  -1.906   2.440  0.00  0.00    -0.004 C 
ATOM      6  C   UNL     1       4.803  -1.753   0.940  0.00  0.00    -0.010 C 
ATOM      7  C   UNL     1       6.309  -1.697   0.665  0.00  0.00    -0.082 C 
ATOM      8  N   UNL     1       6.944  -2.925   1.156  0.00  0.00    +0.379 N 
ATOM      9  C   UNL     1       6.795  -3.017   2.613  0.00  0.00    -0.082 C 
ATOM     10  C   UNL     1       5.311  -3.130   2.971  0.00  0.00    -0.010 C 
ATOM     11  C   UNL     1       4.258  -0.057   5.533  0.00  0.00    +0.248 C 
ATOM     12  O   UNL     1       5.373   0.282   5.878  0.00  0.00    -0.270 OA
ATOM     13  H   UNL     1       6.506  -3.725   0.723  0.00  0.00    -0.086 HD
ATOM     14  H   UNL     1       7.925  -2.913   0.919  0.00  0.00    -0.086 HD
ENDROOT
BRANCH  11  15
ATOM     15  C   UNL     1       3.144  -0.031   6.504  0.00  0.00    +0.054 A 
ATOM     16  C   UNL     1       1.889   0.442   6.118  0.00  0.00    +0.059 A 
ATOM     17  C   UNL     1       0.850   0.463   7.033  0.00  0.00    +0.121 A 
ATOM     18  C   UNL     1       1.057   0.014   8.331  0.00  0.00    +0.047 A 
ATOM     19  C   UNL     1       2.299  -0.455   8.716  0.00  0.00    +0.019 A 
ATOM     20  C   UNL     1       3.342  -0.485   7.810  0.00  0.00    +0.030 A 
ATOM     21 BR   UNL     1       5.037  -1.135   8.339  0.00  0.00    -0.050 Br
BRANCH  17  22
ATOM     22  O   UNL     1      -0.373   0.923   6.661  0.00  0.00    -0.495 OA
ATOM     23  C   UNL     1      -1.399   0.916   7.656  0.00  0.00    +0.277 C 
ENDBRANCH  17  22
ENDBRANCH  11  15
BRANCH   1  25
ATOM     24  N   UNL     1       1.917  -3.088   0.822  0.00  0.00    -0.312 N 
ATOM     25  C   UNL     1       2.272  -1.954   1.457  0.00  0.00    +0.218 C 
ATOM     26  O   UNL     1       1.953  -0.877   1.000  0.00  0.00    -0.275 OA
ATOM     27  H   UNL     1       2.173  -3.950   1.187  0.00  0.00    +0.149 HD
BRANCH  24  29
ATOM     28  C   UNL     1      -0.344  -2.913  -0.092  0.00  0.00    +0.028 C 
ATOM     29  C   UNL     1       1.146  -3.021  -0.422  0.00  0.00    +0.070 C 
BRANCH  29  30
ATOM     30  C   UNL     1       1.395  -4.285  -1.247  0.00  0.00    +0.022 C 
BRANCH  30  31
ATOM     31  C   UNL     1       2.861  -4.328  -1.682  0.00  0.00    +0.005 C 
BRANCH  31  32
ATOM     32  C   UNL     1       3.111  -5.593  -2.507  0.00  0.00    +0.034 C 
BRANCH  32  33
ATOM     33  C   UNL     1       4.577  -5.636  -2.942  0.00  0.00    +0.061 C 
ATOM     34  C   UNL     1       4.799  -6.833  -3.869  0.00  0.00    +0.041 C 
ATOM     35  C   UNL     1       4.928  -4.345  -3.684  0.00  0.00    +0.041 C 
BRANCH  33  36
ATOM     36  O   UNL     1       5.413  -5.765  -1.790  0.00  0.00    -0.389 OA
ATOM     37  H   UNL     1       5.245  -6.564  -1.270  0.00  0.00    +0.210 HD
ENDBRANCH  33  36
ENDBRANCH  32  33
ENDBRANCH  31  32
ENDBRANCH  30  31
ENDBRANCH  29  30
ENDBRANCH  24  29
ENDBRANCH   1  25
TORSDOF 9
