REMARK  Name = ZINC40173220
REMARK  12 active torsions:
REMARK  status: ('A' for Active; 'I' for Inactive)
REMARK    1  A    between atoms: C_1  and  C_2
REMARK    2  A    between atoms: C_3  and  C_32
REMARK    3  A    between atoms: C_5  and  N_11
REMARK    4  A    between atoms: C_6  and  C_7
REMARK    5  A    between atoms: C_7  and  O_9
REMARK    6  A    between atoms: O_9  and  C_10
REMARK    7  A    between atoms: C_12  and  C_14
REMARK    8  A    between atoms: C_14  and  C_16
REMARK    9  A    between atoms: C_14  and  N_17
REMARK   10  A    between atoms: C_21  and  S_22
REMARK   11  A    between atoms: S_22  and  C_23
REMARK   12  A    between atoms: C_23  and  C_24
REMARK                            x       y       z     vdW  Elec       q    Type
REMARK                         _______ _______ _______ _____ _____    ______ ____
ROOT
ATOM      1  C   UNL     1       0.092  -5.470   2.847  0.00  0.00    +0.175 C 
ATOM      2  C   UNL     1      -1.156  -5.320   3.720  0.00  0.00    +0.041 C 
ENDROOT
BRANCH   1   3
ATOM      3  N   UNL     1       0.108  -6.805   2.244  0.00  0.00    -0.279 N 
ATOM      4  C   UNL     1      -0.842  -7.320   1.409  0.00  0.00    +0.216 A 
ATOM      5  N   UNL     1      -0.477  -8.534   1.079  0.00  0.00    -0.113 NA
ATOM      6  N   UNL     1       0.740  -8.809   1.717  0.00  0.00    -0.121 NA
ATOM      7  C   UNL     1       1.080  -7.751   2.412  0.00  0.00    +0.194 A 
ATOM      8  N   UNL     1      -1.994  -6.671   0.984  0.00  0.00    -0.328 N 
ATOM      9  H   UNL     1      -2.180  -5.767   1.284  0.00  0.00    +0.145 HD
ATOM     10  H   UNL     1      -2.613  -7.121   0.388  0.00  0.00    +0.145 HD
BRANCH   7  11
ATOM     11  S   UNL     1       2.533  -7.580   3.394  0.00  0.00    -0.081 S 
BRANCH  11  12
ATOM     12  C   UNL     1       3.388  -9.168   3.194  0.00  0.00    +0.114 C 
BRANCH  12  13
ATOM     13  C   UNL     1       4.665  -9.155   3.994  0.00  0.00    -0.019 A 
ATOM     14  C   UNL     1       5.838  -8.708   3.415  0.00  0.00    +0.006 A 
ATOM     15  C   UNL     1       7.010  -8.696   4.148  0.00  0.00    +0.000 A 
ATOM     16  C   UNL     1       7.009  -9.132   5.460  0.00  0.00    +0.001 A 
ATOM     17  C   UNL     1       5.837  -9.579   6.040  0.00  0.00    +0.020 A 
ATOM     18  C   UNL     1       4.662  -9.585   5.308  0.00  0.00    +0.045 A 
ATOM     19 CL   UNL     1       3.188 -10.140   6.037  0.00  0.00    -0.083 Cl
ENDBRANCH  12  13
ENDBRANCH  11  12
ENDBRANCH   7  11
ENDBRANCH   1   3
BRANCH   1  21
ATOM     20  N   UNL     1       0.055  -3.118   2.081  0.00  0.00    -0.278 N 
ATOM     21  C   UNL     1       0.072  -4.427   1.760  0.00  0.00    +0.240 C 
ATOM     22  O   UNL     1       0.072  -4.765   0.595  0.00  0.00    -0.273 OA
ATOM     23  H   UNL     1       0.055  -2.848   3.013  0.00  0.00    +0.155 HD
BRANCH  20  28
ATOM     24  C   UNL     1      -0.018   1.503   0.010  0.00  0.00    +0.045 C 
ATOM     25  C   UNL     1       0.002  -0.004   0.002  0.00  0.00    -0.025 A 
ATOM     26  C   UNL     1       0.007  -0.712  -1.142  0.00  0.00    -0.008 A 
ATOM     27  S   UNL     1       0.033  -2.400  -0.580  0.00  0.00    -0.078 S 
ATOM     28  C   UNL     1       0.037  -2.159   1.081  0.00  0.00    +0.086 A 
ATOM     29  C   UNL     1       0.024  -0.778   1.223  0.00  0.00    +0.091 A 
ATOM     30  C   UNL     1      -0.007  -0.199  -2.559  0.00  0.00    +0.052 C 
BRANCH  29  31
ATOM     31  C   UNL     1       0.028  -0.139   2.540  0.00  0.00    +0.342 C 
ATOM     32  O   UNL     1      -1.024   0.112   3.097  0.00  0.00    -0.245 OA
BRANCH  31  33
ATOM     33  O   UNL     1       1.198   0.171   3.136  0.00  0.00    -0.464 OA
ATOM     34  C   UNL     1       1.127   0.793   4.420  0.00  0.00    +0.280 C 
ENDBRANCH  31  33
ENDBRANCH  29  31
ENDBRANCH  20  28
ENDBRANCH   1  21
TORSDOF 8
