REMARK  Name = ZINC59211977
REMARK  7 active torsions:
REMARK  status: ('A' for Active; 'I' for Inactive)
REMARK    1  A    between atoms: C_3  and  C_10
REMARK    2  A    between atoms: C_5  and  N_7
REMARK    3  A    between atoms: C_13  and  S_15
REMARK    4  A    between atoms: S_15  and  C_16
REMARK    5  A    between atoms: C_16  and  C_17
REMARK    6  A    between atoms: N_19  and  C_20
REMARK    7  A    between atoms: C_23  and  N_26
REMARK                            x       y       z     vdW  Elec       q    Type
REMARK                         _______ _______ _______ _____ _____    ______ ____
ROOT
ATOM      1  C   UNL     1       7.653   4.975  -0.038  0.00  0.00    +0.175 C 
ENDROOT
BRANCH   1   2
ATOM      2  C   UNL     1       8.431   6.266  -0.044  0.00  0.00    +0.228 C 
ATOM      3  O   UNL     1       7.845   7.328  -0.035  0.00  0.00    -0.275 OA
ATOM      4  N   UNL     1       9.779   6.240  -0.060  0.00  0.00    -0.285 N 
ATOM      5  H   UNL     1      10.248   5.393   0.000  0.00  0.00    +0.155 HD
BRANCH   4   6
ATOM      6  C   UNL     1      10.501   7.436  -0.163  0.00  0.00    +0.034 A 
ATOM      7  C   UNL     1      11.690   7.469  -0.880  0.00  0.00    +0.025 A 
ATOM      8  C   UNL     1      12.402   8.647  -0.982  0.00  0.00    +0.025 A 
ATOM      9  C   UNL     1      11.929   9.800  -0.368  0.00  0.00    +0.030 A 
ATOM     10  C   UNL     1      10.740   9.767   0.348  0.00  0.00    +0.025 A 
ATOM     11  C   UNL     1      10.026   8.589   0.446  0.00  0.00    +0.025 A 
BRANCH   9  12
ATOM     12  N   UNL     1      12.651  10.994  -0.471  0.00  0.00    -0.330 N 
ATOM     13  C   UNL     1      13.915  11.171  -1.201  0.00  0.00    +0.105 C 
ATOM     14  C   UNL     1      14.349  12.640  -1.016  0.00  0.00    +0.020 C 
ATOM     15  C   UNL     1      13.599  13.064   0.275  0.00  0.00    +0.020 C 
ATOM     16  C   UNL     1      12.266  12.285   0.128  0.00  0.00    +0.105 C 
ENDBRANCH   9  12
ENDBRANCH   4   6
ENDBRANCH   1   2
BRANCH   1  17
ATOM     17  S   UNL     1       5.876   5.341  -0.017  0.00  0.00    -0.056 S 
BRANCH  17  21
ATOM     18  C   UNL     1       3.657   2.159   0.001  0.00  0.00    +0.249 A 
ATOM     19  N   UNL     1       4.863   1.645  -0.014  0.00  0.00    -0.106 NA
ATOM     20  N   UNL     1       5.732   2.594  -0.021  0.00  0.00    -0.101 NA
ATOM     21  C   UNL     1       5.114   3.753  -0.012  0.00  0.00    +0.278 A 
ATOM     22  O   UNL     1       3.790   3.504  -0.003  0.00  0.00    -0.411 OA
BRANCH  18  25
ATOM     23  C   UNL     1      -0.016   1.378   0.034  0.00  0.00    +0.003 A 
ATOM     24  C   UNL     1       1.167   2.087   0.022  0.00  0.00    +0.013 A 
ATOM     25  C   UNL     1       2.386   1.406   0.014  0.00  0.00    +0.041 A 
ATOM     26  C   UNL     1       2.398   0.010   0.017  0.00  0.00    +0.046 A 
ATOM     27  C   UNL     1       1.208  -0.687   0.028  0.00  0.00    +0.127 A 
ATOM     28  C   UNL     1       0.003  -0.005   0.036  0.00  0.00    +0.033 A 
BRANCH  27  29
ATOM     29  N   UNL     1       1.218  -2.167   0.031  0.00  0.00    +0.056 N 
ATOM     30  O   UNL     1       2.269  -2.764   0.023  0.00  0.00    -0.126 OA
ATOM     31  O   UNL     1       0.176  -2.779   0.041  0.00  0.00    -0.126 OA
ENDBRANCH  27  29
ENDBRANCH  18  25
ENDBRANCH  17  21
ENDBRANCH   1  17
TORSDOF 7
