REMARK  Name = ZINC39406554
REMARK  13 active torsions:
REMARK  status: ('A' for Active; 'I' for Inactive)
REMARK    1  A    between atoms: C_1  and  C_2
REMARK    2  A    between atoms: C_4  and  C_27
REMARK    3  A    between atoms: C_6  and  C_9
REMARK    4  A    between atoms: C_14  and  N_15
REMARK    5  A    between atoms: C_16  and  C_18
REMARK    6  A    between atoms: C_18  and  C_19
REMARK    7  A    between atoms: C_19  and  O_20
REMARK    8  A    between atoms: O_20  and  C_21
REMARK    9  A    between atoms: C_27  and  N_28
REMARK   10  A    between atoms: C_29  and  C_31
REMARK   11  A    between atoms: C_34  and  C_37
REMARK   12  A    between atoms: C_37  and  C_38
REMARK   13  A    between atoms: C_37  and  C_39
REMARK                            x       y       z     vdW  Elec       q    Type
REMARK                         _______ _______ _______ _____ _____    ______ ____
ROOT
ATOM      1  C   UNL     1      -0.014   1.526   0.008  0.00  0.00    +0.044 C 
ATOM      2  C   UNL     1      -0.001  -0.004   0.004  0.00  0.00    +0.164 C 
ATOM      3  C   UNL     1      -1.413  -0.542   0.063  0.00  0.00    +0.062 C 
ATOM      4  N   UNL     1      -1.449  -1.500   0.912  0.00  0.00    -0.253 NA
ATOM      5  C   UNL     1      -0.115  -1.700   1.489  0.00  0.00    +0.268 C 
ATOM      6  O   UNL     1       0.636  -0.503   1.198  0.00  0.00    -0.342 OA
ENDROOT
BRANCH   5   7
ATOM      7  C   UNL     1      -0.220  -1.898   2.979  0.00  0.00    +0.024 A 
ATOM      8  C   UNL     1      -1.400  -1.606   3.635  0.00  0.00    +0.010 A 
ATOM      9  C   UNL     1      -1.497  -1.788   5.002  0.00  0.00    +0.001 A 
ATOM     10  C   UNL     1      -0.414  -2.263   5.718  0.00  0.00    +0.002 A 
ATOM     11  C   UNL     1       0.769  -2.558   5.069  0.00  0.00    +0.024 A 
ATOM     12  C   UNL     1       0.868  -2.381   3.695  0.00  0.00    +0.041 A 
BRANCH  12  13
ATOM     13  N   UNL     1       2.064  -2.683   3.034  0.00  0.00    -0.285 N 
ATOM     14  C   UNL     1       2.920  -3.578   3.566  0.00  0.00    +0.220 C 
ATOM     15  O   UNL     1       2.612  -4.193   4.564  0.00  0.00    -0.275 OA
ATOM     16  H   UNL     1       2.276  -2.250   2.192  0.00  0.00    +0.155 HD
BRANCH  14  17
ATOM     17  C   UNL     1       4.262  -3.812   2.920  0.00  0.00    +0.137 C 
BRANCH  17  18
ATOM     18  C   UNL     1       5.034  -4.866   3.716  0.00  0.00    +0.238 C 
BRANCH  18  19
ATOM     19  O   UNL     1       6.306  -5.089   3.104  0.00  0.00    -0.491 OA
BRANCH  19  20
ATOM     20  C   UNL     1       7.121  -6.003   3.691  0.00  0.00    +0.121 A 
ATOM     21  C   UNL     1       6.704  -6.677   4.830  0.00  0.00    +0.045 A 
ATOM     22  C   UNL     1       7.535  -7.607   5.425  0.00  0.00    +0.004 A 
ATOM     23  C   UNL     1       8.782  -7.865   4.886  0.00  0.00    +0.000 A 
ATOM     24  C   UNL     1       9.201  -7.195   3.752  0.00  0.00    +0.004 A 
ATOM     25  C   UNL     1       8.371  -6.269   3.150  0.00  0.00    +0.045 A 
ENDBRANCH  19  20
ENDBRANCH  18  19
ENDBRANCH  17  18
ENDBRANCH  14  17
ENDBRANCH  12  13
ENDBRANCH   5   7
BRANCH   3  26
ATOM     26  C   UNL     1      -2.582  -0.036  -0.742  0.00  0.00    +0.157 C 
BRANCH  26  27
ATOM     27  N   UNL     1      -3.779  -0.812  -0.406  0.00  0.00    -0.308 N 
ATOM     28  C   UNL     1      -4.952  -0.535  -1.008  0.00  0.00    +0.244 C 
ATOM     29  O   UNL     1      -5.018   0.357  -1.828  0.00  0.00    -0.273 OA
ATOM     30  H   UNL     1      -3.726  -1.525   0.249  0.00  0.00    +0.149 HD
BRANCH  28  31
ATOM     31  C   UNL     1      -6.183  -1.333  -0.663  0.00  0.00    +0.238 C 
ATOM     32  C   UNL     1      -6.214  -2.636  -1.441  0.00  0.00    +0.036 C 
ATOM     33  C   UNL     1      -7.324  -2.545  -2.177  0.00  0.00    +0.064 C 
ATOM     34  N   UNL     1      -7.957  -1.373  -1.947  0.00  0.00    -0.158 NA
ATOM     35  N   UNL     1      -7.399  -0.639  -1.122  0.00  0.00    -0.170 NA
BRANCH  33  36
ATOM     36  C   UNL     1      -7.806  -3.605  -3.134  0.00  0.00    +0.033 C 
ATOM     37  C   UNL     1      -9.193  -4.087  -2.704  0.00  0.00    +0.014 C 
ATOM     38  C   UNL     1      -7.884  -3.019  -4.545  0.00  0.00    +0.014 C 
ENDBRANCH  33  36
ENDBRANCH  28  31
ENDBRANCH  26  27
ENDBRANCH   3  26
TORSDOF 10
