REMARK  Name = ZINC05015554
REMARK  3 active torsions:
REMARK  status: ('A' for Active; 'I' for Inactive)
REMARK    1  A    between atoms: C_9  and  C_10
REMARK    2  A    between atoms: N_11  and  C_12
REMARK    3  A    between atoms: C_17  and  N_18
REMARK                            x       y       z     vdW  Elec       q    Type
REMARK                         _______ _______ _______ _____ _____    ______ ____
ROOT
ATOM      1  C   UNL     1       3.005   6.478  -0.086  0.00  0.00    +0.102 C 
ATOM      2  N   UNL     1       2.571   7.772  -0.030  0.00  0.00    -0.358 N 
ATOM      3  H   UNL     1       1.493   7.989  -0.001  0.00  0.00    +0.165 HD
ENDROOT
BRANCH   1  12
ATOM      4  C   UNL     1      -0.002   1.074  -0.227  0.00  0.00    +0.001 A 
ATOM      5  C   UNL     1      -1.221   1.736  -0.185  0.00  0.00    +0.001 A 
ATOM      6  C   UNL     1      -1.244   3.115  -0.127  0.00  0.00    +0.016 A 
ATOM      7  C   UNL     1      -0.058   3.821  -0.124  0.00  0.00    +0.024 A 
ATOM      8  C   UNL     1       1.194   3.177  -0.173  0.00  0.00    +0.037 A 
ATOM      9  C   UNL     1       1.182   1.764  -0.225  0.00  0.00    +0.013 A 
ATOM     10  C   UNL     1       2.354   4.068  -0.163  0.00  0.00    +0.202 A 
ATOM     11  O   UNL     1       3.492   3.629  -0.201  0.00  0.00    -0.286 OA
ATOM     12  C   UNL     1       2.105   5.459  -0.106  0.00  0.00    +0.076 A 
ATOM     13  S   UNL     1       0.326   5.552  -0.068  0.00  0.00    -0.083 S 
ENDBRANCH   1  12
BRANCH   2  14
ATOM     14  C   UNL     1       3.495   8.819  -0.009  0.00  0.00    +0.070 A 
ATOM     15  C   UNL     1       4.854   8.546   0.082  0.00  0.00    +0.028 A 
ATOM     16  C   UNL     1       5.766   9.583   0.096  0.00  0.00    +0.002 A 
ATOM     17  C   UNL     1       5.326  10.893   0.032  0.00  0.00    +0.002 A 
ATOM     18  C   UNL     1       3.974  11.168  -0.053  0.00  0.00    +0.035 A 
ATOM     19  C   UNL     1       3.057  10.136  -0.074  0.00  0.00    +0.149 A 
BRANCH  19  20
ATOM     20  N   UNL     1       1.609  10.431  -0.165  0.00  0.00    +0.058 N 
ATOM     21  O   UNL     1       1.231  11.577  -0.334  0.00  0.00    -0.126 OA
ATOM     22  O   UNL     1       0.796   9.529  -0.071  0.00  0.00    -0.126 OA
ENDBRANCH  19  20
ENDBRANCH   2  14
TORSDOF 3
