REMARK  Name = ZINC22893607
REMARK  6 active torsions:
REMARK  status: ('A' for Active; 'I' for Inactive)
REMARK    1  A    between atoms: C_1  and  C_2
REMARK    2  A    between atoms: C_2  and  C_4
REMARK    3  A    between atoms: C_2  and  N_13
REMARK    4  A    between atoms: C_14  and  C_16
REMARK    5  A    between atoms: N_21  and  C_23
REMARK    6  A    between atoms: C_27  and  N_29
REMARK                            x       y       z     vdW  Elec       q    Type
REMARK                         _______ _______ _______ _____ _____    ______ ____
ROOT
ATOM      1  C   UNL     1       3.414   2.702  -1.177  0.00  0.00    +0.101 C 
ATOM      2  C   UNL     1       3.502   4.131  -0.594  0.00  0.00    +0.110 C 
ATOM      3  C   UNL     1       3.392   5.033  -1.804  0.00  0.00    +0.221 C 
ATOM      4  O   UNL     1       3.138   6.218  -1.766  0.00  0.00    -0.275 OA
ATOM      5  N   UNL     1       3.616   4.329  -2.927  0.00  0.00    -0.271 N 
ATOM      6  C   UNL     1       3.904   2.922  -2.626  0.00  0.00    +0.127 C 
ENDROOT
BRANCH   5   7
ATOM      7  C   UNL     1       3.579   4.869  -4.219  0.00  0.00    +0.039 A 
ATOM      8  C   UNL     1       3.174   6.183  -4.412  0.00  0.00    +0.026 A 
ATOM      9  C   UNL     1       3.144   6.715  -5.686  0.00  0.00    +0.042 A 
ATOM     10  C   UNL     1       3.506   5.936  -6.771  0.00  0.00    +0.154 A 
ATOM     11  C   UNL     1       3.905   4.623  -6.582  0.00  0.00    +0.163 A 
ATOM     12  C   UNL     1       3.942   4.089  -5.309  0.00  0.00    +0.059 A 
ATOM     13  F   UNL     1       3.470   6.456  -8.018  0.00  0.00    -0.203 F 
BRANCH  11  14
ATOM     14  N   UNL     1       4.291   3.792  -7.744  0.00  0.00    +0.059 N 
ATOM     15  O   UNL     1       4.642   2.638  -7.578  0.00  0.00    -0.126 OA
ATOM     16  O   UNL     1       4.259   4.263  -8.867  0.00  0.00    -0.126 OA
ENDBRANCH  11  14
ENDBRANCH   5   7
BRANCH   1  18
ATOM     17  N   UNL     1       1.342   2.063   0.013  0.00  0.00    -0.305 N 
ATOM     18  C   UNL     1       1.994   2.198  -1.159  0.00  0.00    +0.219 C 
ATOM     19  O   UNL     1       1.438   1.915  -2.199  0.00  0.00    -0.275 OA
ATOM     20  H   UNL     1       1.847   2.320   0.956  0.00  0.00    +0.149 HD
BRANCH  17  22
ATOM     21  C   UNL     1      -0.037   0.043   0.023  0.00  0.00    +0.036 C 
ATOM     22  C   UNL     1      -0.038   1.573   0.031  0.00  0.00    +0.136 C 
BRANCH  22  23
ATOM     23  C   UNL     1      -0.731   2.068   1.274  0.00  0.00    +0.126 A 
ATOM     24  C   UNL     1      -1.998   2.503   1.325  0.00  0.00    +0.055 A 
ATOM     25  C   UNL     1      -2.244   2.881   2.722  0.00  0.00    +0.020 A 
ATOM     26  C   UNL     1      -3.340   3.393   3.414  0.00  0.00    +0.011 A 
ATOM     27  C   UNL     1      -3.239   3.643   4.755  0.00  0.00    +0.001 A 
ATOM     28  C   UNL     1      -2.054   3.389   5.429  0.00  0.00    +0.004 A 
ATOM     29  C   UNL     1      -0.959   2.882   4.761  0.00  0.00    +0.047 A 
ATOM     30  C   UNL     1      -1.041   2.622   3.399  0.00  0.00    +0.135 A 
ATOM     31  O   UNL     1      -0.169   2.133   2.494  0.00  0.00    -0.458 OA
ENDBRANCH  22  23
ENDBRANCH  17  22
ENDBRANCH   1  18
TORSDOF 5
