REMARK  Name = ZINC22831413
REMARK  9 active torsions:
REMARK  status: ('A' for Active; 'I' for Inactive)
REMARK    1  A    between atoms: C_1  and  O_2
REMARK    2  A    between atoms: O_2  and  C_3
REMARK    3  A    between atoms: C_3  and  C_5
REMARK    4  A    between atoms: C_6  and  C_22
REMARK    5  A    between atoms: N_7  and  C_19
REMARK    6  A    between atoms: C_11  and  C_13
REMARK    7  A    between atoms: C_22  and  S_23
REMARK    8  A    between atoms: S_23  and  C_24
REMARK    9  A    between atoms: C_27  and  C_29
REMARK                            x       y       z     vdW  Elec       q    Type
REMARK                         _______ _______ _______ _____ _____    ______ ____
ROOT
ATOM      1  C   UNL     1      -0.199   3.996   0.026  0.00  0.00    +0.079 C 
ATOM      2  C   UNL     1       1.030   3.507  -0.250  0.00  0.00    +0.038 C 
ATOM      3  N   UNL     1       1.264   2.162  -0.274  0.00  0.00    -0.255 N 
ATOM      4  C   UNL     1       0.324   1.240  -0.032  0.00  0.00    +0.307 C 
ATOM      5  O   UNL     1       0.628   0.064  -0.075  0.00  0.00    -0.252 OA
ATOM      6  N   UNL     1      -0.951   1.573   0.253  0.00  0.00    -0.288 N 
ATOM      7  C   UNL     1      -1.306   3.001   0.308  0.00  0.00    +0.144 C 
ATOM      8  H   UNL     1      -1.718   0.808   0.442  0.00  0.00    +0.151 HD
ENDROOT
BRANCH   7   9
ATOM      9  C   UNL     1      -2.410   3.240  -0.690  0.00  0.00    -0.023 A 
ATOM     10  C   UNL     1      -2.301   2.739  -1.974  0.00  0.00    +0.006 A 
ATOM     11  C   UNL     1      -3.316   2.954  -2.888  0.00  0.00    +0.000 A 
ATOM     12  C   UNL     1      -4.435   3.678  -2.521  0.00  0.00    +0.000 A 
ATOM     13  C   UNL     1      -4.542   4.183  -1.239  0.00  0.00    +0.000 A 
ATOM     14  C   UNL     1      -3.529   3.964  -0.323  0.00  0.00    +0.006 A 
ENDBRANCH   7   9
BRANCH   3  15
ATOM     15  C   UNL     1       2.621   1.702  -0.580  0.00  0.00    +0.083 C 
ATOM     16  C   UNL     1       3.171   0.531   0.237  0.00  0.00    +0.025 C 
ATOM     17  C   UNL     1       3.704   1.946   0.473  0.00  0.00    +0.025 C 
ENDBRANCH   3  15
BRANCH   1  18
ATOM     18  C   UNL     1      -0.443   5.389   0.050  0.00  0.00    +0.339 C 
ATOM     19  O   UNL     1      -0.421   5.992   1.107  0.00  0.00    -0.245 OA
BRANCH  18  21
ATOM     20  C   UNL     1      -0.937   7.455  -1.000  0.00  0.00    +0.280 C 
ATOM     21  O   UNL     1      -0.700   6.049  -1.099  0.00  0.00    -0.465 OA
ENDBRANCH  18  21
ENDBRANCH   1  18
BRANCH   2  22
ATOM     22  C   UNL     1       2.160   4.461  -0.537  0.00  0.00    +0.130 C 
BRANCH  22  23
ATOM     23  S   UNL     1       3.199   4.626   0.936  0.00  0.00    -0.060 S 
BRANCH  23  24
ATOM     24  C   UNL     1       4.403   5.764   0.336  0.00  0.00    +0.278 A 
ATOM     25  N   UNL     1       4.447   6.283  -0.868  0.00  0.00    -0.101 NA
ATOM     26  N   UNL     1       5.458   7.075  -0.957  0.00  0.00    -0.105 NA
ATOM     27  C   UNL     1       6.105   7.086   0.186  0.00  0.00    +0.265 A 
ATOM     28  O   UNL     1       5.449   6.255   1.028  0.00  0.00    -0.410 OA
BRANCH  27  29
ATOM     29  C   UNL     1       7.318   7.858   0.493  0.00  0.00    +0.104 A 
ATOM     30  C   UNL     1       7.977   8.695  -0.362  0.00  0.00    +0.032 A 
ATOM     31  C   UNL     1       9.075   9.224   0.334  0.00  0.00    +0.020 A 
ATOM     32  C   UNL     1       9.062   8.704   1.581  0.00  0.00    +0.083 A 
ATOM     33  N   UNL     1       7.988   7.870   1.692  0.00  0.00    -0.357 N 
ATOM     34  H   UNL     1       7.621   7.264   2.533  0.00  0.00    +0.165 HD
ENDBRANCH  27  29
ENDBRANCH  23  24
ENDBRANCH  22  23
ENDBRANCH   2  22
TORSDOF 8
