REMARK  Name = ZINC46818618
REMARK  9 active torsions:
REMARK  status: ('A' for Active; 'I' for Inactive)
REMARK    1  A    between atoms: C_1  and  C_2
REMARK    2  A    between atoms: C_2  and  C_4
REMARK    3  A    between atoms: C_2  and  N_16
REMARK    4  A    between atoms: C_7  and  N_10
REMARK    5  A    between atoms: C_11  and  C_13
REMARK    6  A    between atoms: C_17  and  C_19
REMARK    7  A    between atoms: N_22  and  C_25
REMARK    8  A    between atoms: C_26  and  C_35
REMARK    9  A    between atoms: C_28  and  C_30
REMARK                            x       y       z     vdW  Elec       q    Type
REMARK                         _______ _______ _______ _____ _____    ______ ____
ROOT
ATOM      1  N   UNL     1      -1.473  -0.393   0.359  0.00  0.00    -0.309 N 
ATOM      2  C   UNL     1      -2.142  -0.556  -0.799  0.00  0.00    +0.217 C 
ATOM      3  O   UNL     1      -1.554  -0.468  -1.856  0.00  0.00    -0.275 OA
ATOM      4  H   UNL     1      -1.943  -0.464   1.205  0.00  0.00    +0.149 HD
ENDROOT
BRANCH   2   5
ATOM      5  C   UNL     1      -3.620  -0.849  -0.780  0.00  0.00    +0.078 C 
ATOM      6  C   UNL     1      -3.872  -2.153  -0.019  0.00  0.00    +0.032 C 
ATOM      7  C   UNL     1      -5.378  -2.429   0.027  0.00  0.00    +0.109 C 
ATOM      8  N   UNL     1      -5.903  -2.421  -1.345  0.00  0.00    -0.299 N 
ATOM      9  C   UNL     1      -5.639  -1.252  -2.195  0.00  0.00    +0.109 C 
ATOM     10  C   UNL     1      -4.130  -0.988  -2.217  0.00  0.00    +0.032 C 
BRANCH   8  11
ATOM     11  C   UNL     1      -6.629  -3.489  -1.825  0.00  0.00    +0.228 A 
ATOM     12  C   UNL     1      -8.002  -3.661  -1.740  0.00  0.00    +0.201 A 
ATOM     13  N   UNL     1      -8.291  -4.846  -2.342  0.00  0.00    -0.194 NA
ATOM     14  C   UNL     1      -7.173  -5.378  -2.773  0.00  0.00    +0.266 A 
ATOM     15  O   UNL     1      -6.142  -4.563  -2.474  0.00  0.00    -0.417 OA
BRANCH  14  16
ATOM     16  C   UNL     1      -7.062  -6.662  -3.479  0.00  0.00    +0.189 A 
ATOM     17  C   UNL     1      -8.096  -7.492  -3.799  0.00  0.00    +0.055 A 
ATOM     18  C   UNL     1      -7.535  -8.598  -4.465  0.00  0.00    +0.042 A 
ATOM     19  C   UNL     1      -6.204  -8.395  -4.520  0.00  0.00    +0.196 A 
ATOM     20  O   UNL     1      -5.922  -7.223  -3.929  0.00  0.00    -0.458 OA
ENDBRANCH  14  16
BRANCH  12  21
ATOM     21  C   UNL     1      -8.938  -2.763  -1.135  0.00  0.00    +0.124 C 
ATOM     22  N   UNL     1      -9.681  -2.050  -0.654  0.00  0.00    -0.189 NA
ENDBRANCH  12  21
ENDBRANCH   8  11
ENDBRANCH   2   5
BRANCH   1  24
ATOM     23  C   UNL     1       0.184   1.397   0.172  0.00  0.00    +0.033 C 
ATOM     24  C   UNL     1      -0.036  -0.108   0.342  0.00  0.00    +0.100 C 
BRANCH  24  25
ATOM     25  C   UNL     1       0.583  -0.563   1.638  0.00  0.00    -0.027 A 
ATOM     26  C   UNL     1      -0.092  -0.371   2.830  0.00  0.00    +0.007 A 
ATOM     27  C   UNL     1       0.472  -0.787   4.020  0.00  0.00    +0.023 A 
ATOM     28  C   UNL     1       1.718  -1.400   4.019  0.00  0.00    +0.033 A 
ATOM     29  C   UNL     1       2.393  -1.592   2.821  0.00  0.00    +0.023 A 
ATOM     30  C   UNL     1       1.821  -1.178   1.633  0.00  0.00    +0.007 A 
BRANCH  28  31
ATOM     31  N   UNL     1       2.292  -1.822   5.223  0.00  0.00    -0.285 N 
ATOM     32  C   UNL     1       1.508  -2.269   6.223  0.00  0.00    +0.220 C 
ATOM     33  O   UNL     1       0.315  -2.394   6.049  0.00  0.00    -0.275 OA
ATOM     34  H   UNL     1       3.255  -1.793   5.337  0.00  0.00    +0.155 HD
BRANCH  32  35
ATOM     35  C   UNL     1       2.114  -2.612   7.560  0.00  0.00    +0.075 C 
ATOM     36  C   UNL     1       2.133  -4.086   7.969  0.00  0.00    +0.013 C 
ATOM     37  C   UNL     1       1.171  -3.114   8.655  0.00  0.00    +0.013 C 
ENDBRANCH  32  35
ENDBRANCH  28  31
ENDBRANCH  24  25
ENDBRANCH   1  24
TORSDOF 8
