REMARK  Name = ZINC39749952
REMARK  12 active torsions:
REMARK  status: ('A' for Active; 'I' for Inactive)
REMARK    1  A    between atoms: C_1  and  C_2
REMARK    2  A    between atoms: C_2  and  N_3
REMARK    3  A    between atoms: C_4  and  CA_21
REMARK    4  A    between atoms: C_7  and  S_8
REMARK    5  A    between atoms: S_8  and  C_9
REMARK    6  A    between atoms: C_9  and  C_10
REMARK    7  A    between atoms: N_12  and  C_13
REMARK    8  A    between atoms: C_18  and  C_19
REMARK    9  A    between atoms: CA_21  and  C_23
REMARK   10  A    between atoms: CA_21  and  N_25
REMARK   11  A    between atoms: C_23  and  O_24
REMARK   12  A    between atoms: C_26  and  C_28
REMARK                            x       y       z     vdW  Elec       q    Type
REMARK                         _______ _______ _______ _____ _____    ______ ____
ROOT
ATOM      1  N   UNL     1       0.717  -0.456   1.200  0.00  0.00    -0.305 N 
ATOM      2  C   UNL     1       2.058  -0.698   1.320  0.00  0.00    +0.157 A 
ATOM      3  N   UNL     1       2.270  -1.111   2.538  0.00  0.00    -0.131 NA
ATOM      4  N   UNL     1       1.163  -1.146   3.191  0.00  0.00    -0.122 NA
ATOM      5  C   UNL     1       0.178  -0.749   2.420  0.00  0.00    +0.192 A 
ENDROOT
BRANCH   1   7
ATOM      6  C   UNL     1      -0.024   1.555   0.021  0.00  0.00    +0.027 C 
ATOM      7  C   UNL     1       0.008   0.025   0.012  0.00  0.00    +0.122 C 
ENDBRANCH   1   7
BRANCH   5   8
ATOM      8  S   UNL     1      -1.520  -0.622   2.872  0.00  0.00    -0.077 S 
BRANCH   8   9
ATOM      9  C   UNL     1      -1.554  -1.155   4.606  0.00  0.00    +0.173 C 
BRANCH   9  10
ATOM     10  C   UNL     1      -2.968  -1.092   5.123  0.00  0.00    +0.227 C 
ATOM     11  O   UNL     1      -3.865  -0.725   4.394  0.00  0.00    -0.275 OA
ATOM     12  N   UNL     1      -3.236  -1.445   6.396  0.00  0.00    -0.285 N 
ATOM     13  H   UNL     1      -2.534  -1.815   6.955  0.00  0.00    +0.155 HD
BRANCH  12  14
ATOM     14  C   UNL     1      -4.526  -1.278   6.912  0.00  0.00    +0.038 A 
ATOM     15  C   UNL     1      -5.376  -0.325   6.365  0.00  0.00    +0.023 A 
ATOM     16  C   UNL     1      -6.649  -0.163   6.875  0.00  0.00    +0.003 A 
ATOM     17  C   UNL     1      -7.078  -0.947   7.930  0.00  0.00    +0.020 A 
ATOM     18  C   UNL     1      -6.234  -1.898   8.477  0.00  0.00    +0.046 A 
ATOM     19  C   UNL     1      -4.961  -2.069   7.967  0.00  0.00    -0.011 A 
ATOM     20  C   UNL     1      -4.044  -3.108   8.559  0.00  0.00    +0.047 C 
ATOM     21 CL   UNL     1      -6.777  -2.880   9.801  0.00  0.00    -0.083 Cl
ENDBRANCH  12  14
ENDBRANCH   9  10
ENDBRANCH   8   9
ENDBRANCH   5   8
BRANCH   2  22
ATOM     22  CA  UNL     1       3.097  -0.521   0.244  0.00  0.00    +0.167 C 
BRANCH  22  23
ATOM     23  N   UNL     1       4.268   0.160   0.803  0.00  0.00    -0.299 N 
ATOM     24  C   UNL     1       5.085   0.867  -0.003  0.00  0.00    +0.245 C 
ATOM     25  O   UNL     1       4.850   0.941  -1.193  0.00  0.00    -0.270 OA
ATOM     26  H   UNL     1       4.456   0.101   1.753  0.00  0.00    +0.150 HD
BRANCH  24  27
ATOM     27  C   UNL     1       6.266   1.554   0.561  0.00  0.00    +0.037 A 
ATOM     28  C   UNL     1       6.542   1.466   1.927  0.00  0.00    +0.014 A 
ATOM     29  C   UNL     1       7.645   2.108   2.447  0.00  0.00    +0.021 A 
ATOM     30  C   UNL     1       8.479   2.840   1.618  0.00  0.00    +0.041 A 
ATOM     31  C   UNL     1       8.211   2.930   0.262  0.00  0.00    +0.021 A 
ATOM     32  C   UNL     1       7.114   2.288  -0.271  0.00  0.00    +0.014 A 
ATOM     33 CL   UNL     1       9.867   3.647   2.280  0.00  0.00    -0.084 Cl
ENDBRANCH  24  27
ENDBRANCH  22  23
BRANCH  22  34
ATOM     34  C   UNL     1       3.513  -1.891  -0.295  0.00  0.00    +0.186 C 
BRANCH  34  35
ATOM     35  O   UNL     1       3.949  -2.716   0.788  0.00  0.00    -0.393 OA
ATOM     36  H   UNL     1       4.228  -3.602   0.519  0.00  0.00    +0.209 HD
ENDBRANCH  34  35
ENDBRANCH  22  34
ENDBRANCH   2  22
TORSDOF 10
