REMARK  Name = ZINC24908000
REMARK  9 active torsions:
REMARK  status: ('A' for Active; 'I' for Inactive)
REMARK    1  A    between atoms: C_1  and  C_2
REMARK    2  A    between atoms: C_5  and  N_9
REMARK    3  A    between atoms: C_7  and  C_8
REMARK    4  A    between atoms: C_10  and  C_26
REMARK    5  A    between atoms: C_13  and  S_14
REMARK    6  A    between atoms: S_14  and  C_15
REMARK    7  A    between atoms: C_15  and  C_16
REMARK    8  A    between atoms: N_22  and  C_23
REMARK    9  A    between atoms: N_22  and  C_24
REMARK                            x       y       z     vdW  Elec       q    Type
REMARK                         _______ _______ _______ _____ _____    ______ ____
ROOT
ATOM      1  N   UNL     1       2.315   4.346  -0.278  0.00  0.00    -0.270 N 
ATOM      2  C   UNL     1       1.229   3.547   0.009  0.00  0.00    +0.169 A 
ATOM      3  N   UNL     1       0.228   4.347   0.297  0.00  0.00    -0.128 NA
ATOM      4  N   UNL     1       0.604   5.572   0.205  0.00  0.00    -0.122 NA
ATOM      5  C   UNL     1       1.870   5.632  -0.147  0.00  0.00    +0.197 A 
ENDROOT
BRANCH   1  10
ATOM      6  C   UNL     1       7.537   2.654  -1.719  0.00  0.00    +0.044 C 
ATOM      7  C   UNL     1       6.150   3.103  -1.336  0.00  0.00    -0.047 A 
ATOM      8  C   UNL     1       5.082   2.835  -2.174  0.00  0.00    +0.005 A 
ATOM      9  C   UNL     1       3.811   3.246  -1.826  0.00  0.00    +0.026 A 
ATOM     10  C   UNL     1       3.604   3.927  -0.634  0.00  0.00    +0.051 A 
ATOM     11  C   UNL     1       4.679   4.199   0.202  0.00  0.00    +0.030 A 
ATOM     12  C   UNL     1       5.948   3.781  -0.149  0.00  0.00    -0.046 A 
ATOM     13  C   UNL     1       7.114   4.071   0.761  0.00  0.00    +0.044 C 
ENDBRANCH   1  10
BRANCH   2  14
ATOM     14  C   UNL     1       1.199   2.070   0.002  0.00  0.00    +0.022 A 
ATOM     15  C   UNL     1      -0.017   1.375   0.010  0.00  0.00    +0.031 A 
ATOM     16  C   UNL     1       0.002  -0.004   0.002  0.00  0.00    +0.111 A 
ATOM     17  N   UNL     1       1.143  -0.666  -0.013  0.00  0.00    -0.263 NA
ATOM     18  C   UNL     1       2.311  -0.051  -0.021  0.00  0.00    +0.111 A 
ATOM     19  C   UNL     1       2.385   1.326  -0.014  0.00  0.00    +0.031 A 
ENDBRANCH   2  14
BRANCH   5  20
ATOM     20  S   UNL     1       2.818   7.096  -0.396  0.00  0.00    -0.078 S 
BRANCH  20  21
ATOM     21  C   UNL     1       1.562   8.349  -0.032  0.00  0.00    +0.153 C 
BRANCH  21  22
ATOM     22  C   UNL     1       2.163   9.722  -0.186  0.00  0.00    +0.146 A 
ATOM     23  N   UNL     1       2.119  10.334  -1.356  0.00  0.00    -0.199 NA
ATOM     24  C   UNL     1       2.648  11.547  -1.496  0.00  0.00    +0.217 A 
ATOM     25  N   UNL     1       3.223  12.143  -0.456  0.00  0.00    -0.181 NA
ATOM     26  C   UNL     1       3.266  11.524   0.719  0.00  0.00    +0.222 A 
ATOM     27  N   UNL     1       2.729  10.313   0.852  0.00  0.00    -0.198 NA
ATOM     28  N   UNL     1       3.861  12.139   1.802  0.00  0.00    -0.306 N 
ATOM     29  C   UNL     1       4.446  13.474   1.656  0.00  0.00    +0.132 C 
ATOM     30  C   UNL     1       3.908  11.456   3.097  0.00  0.00    +0.132 C 
ATOM     31  N   UNL     1       2.601  12.185  -2.718  0.00  0.00    -0.327 N 
ATOM     32  H   UNL     1       3.039  13.188  -2.833  0.00  0.00    +0.145 HD
ATOM     33  H   UNL     1       2.126  11.691  -3.579  0.00  0.00    +0.145 HD
ENDBRANCH  21  22
ENDBRANCH  20  21
ENDBRANCH   5  20
TORSDOF 5
