REMARK  Name = ZINC65203486
REMARK  6 active torsions:
REMARK  status: ('A' for Active; 'I' for Inactive)
REMARK    1  A    between atoms: N_7  and  C_11
REMARK    2  A    between atoms: C_11  and  C_12
REMARK    3  A    between atoms: N_14  and  N_15
REMARK    4  A    between atoms: N_18  and  C_19
REMARK    5  A    between atoms: C_19  and  C_20
REMARK    6  A    between atoms: C_20  and  C_21
REMARK                            x       y       z     vdW  Elec       q    Type
REMARK                         _______ _______ _______ _____ _____    ______ ____
ROOT
ATOM      1  C   UNL     1       0.295  -3.540  -1.440  0.00  0.00    +0.249 C 
ATOM      2  O   UNL     1       0.786  -2.927  -2.363  0.00  0.00    -0.272 OA
ATOM      3  N   UNL     1      -0.549  -4.563  -1.683  0.00  0.00    -0.232 N 
ATOM      4  H   UNL     1      -0.942  -5.053  -0.944  0.00  0.00    +0.173 HD
ENDROOT
BRANCH   3   5
ATOM      5  N   UNL     1      -0.859  -4.917  -3.002  0.00  0.00    -0.218 N 
ATOM      6  C   UNL     1      -1.704  -5.939  -3.246  0.00  0.00    +0.316 C 
ATOM      7  O   UNL     1      -1.972  -6.246  -4.391  0.00  0.00    -0.251 OA
ATOM      8  N   UNL     1      -2.249  -6.620  -2.219  0.00  0.00    -0.298 N 
ATOM      9  H   UNL     1      -0.467  -4.426  -3.741  0.00  0.00    +0.174 HD
ATOM     10  H   UNL     1      -2.035  -6.376  -1.305  0.00  0.00    +0.150 HD
BRANCH   8  11
ATOM     11  C   UNL     1      -3.167  -7.732  -2.483  0.00  0.00    +0.111 C 
BRANCH  11  12
ATOM     12  C   UNL     1      -3.639  -8.329  -1.157  0.00  0.00    +0.061 C 
BRANCH  12  13
ATOM     13  C   UNL     1      -4.583  -9.473  -1.428  0.00  0.00    -0.009 A 
ATOM     14  C   UNL     1      -4.305 -10.789  -1.589  0.00  0.00    +0.011 A 
ATOM     15  C   UNL     1      -5.343 -11.669  -1.832  0.00  0.00    +0.008 A 
ATOM     16  C   UNL     1      -6.609 -11.189  -1.903  0.00  0.00    +0.045 A 
ATOM     17  S   UNL     1      -6.358  -9.444  -1.615  0.00  0.00    -0.102 S 
ENDBRANCH  12  13
ENDBRANCH  11  12
ENDBRANCH   8  11
ENDBRANCH   3   5
BRANCH   1  18
ATOM     18  C   UNL     1       0.628  -3.160  -0.020  0.00  0.00    +0.225 C 
BRANCH  18  25
ATOM     19  C   UNL     1      -0.017   1.377   0.010  0.00  0.00    +0.002 A 
ATOM     20  C   UNL     1       1.170   2.089   0.002  0.00  0.00    +0.004 A 
ATOM     21  C   UNL     1       2.381   1.425  -0.013  0.00  0.00    +0.048 A 
ATOM     22  C   UNL     1       2.410   0.040  -0.021  0.00  0.00    +0.157 A 
ATOM     23  C   UNL     1       1.214  -0.677  -0.013  0.00  0.00    +0.091 A 
ATOM     24  C   UNL     1       0.002  -0.004   0.002  0.00  0.00    +0.030 A 
ATOM     25  N   UNL     1       1.559  -2.028  -0.024  0.00  0.00    -0.265 N 
ATOM     26  C   UNL     1       2.904  -2.103  -0.037  0.00  0.00    +0.422 A 
ATOM     27  O   UNL     1       3.550  -3.133  -0.049  0.00  0.00    -0.223 OA
ATOM     28  O   UNL     1       3.421  -0.864  -0.035  0.00  0.00    -0.407 OA
ENDBRANCH  18  25
ENDBRANCH   1  18
TORSDOF 6
