REMARK  Name = ZINC20692943
REMARK  6 active torsions:
REMARK  status: ('A' for Active; 'I' for Inactive)
REMARK    1  A    between atoms: C_1  and  O_2
REMARK    2  A    between atoms: O_2  and  C_3
REMARK    3  A    between atoms: C_5  and  C_10
REMARK    4  A    between atoms: C_8  and  O_9
REMARK    5  A    between atoms: C_21  and  N_27
REMARK    6  A    between atoms: C_23  and  O_26
REMARK                            x       y       z     vdW  Elec       q    Type
REMARK                         _______ _______ _______ _____ _____    ______ ____
ROOT
ATOM      1  C   UNL     1      -1.294  -0.774   0.011  0.00  0.00    +0.105 C 
ATOM      2  C   UNL     1      -1.625  -1.242  -1.391  0.00  0.00    +0.029 C 
ATOM      3  C   UNL     1      -1.883  -0.177  -2.463  0.00  0.00    +0.033 C 
ATOM      4  C   UNL     1      -2.877  -0.923  -3.380  0.00  0.00    -0.030 C 
ATOM      5  C   UNL     1      -3.519  -1.865  -2.698  0.00  0.00    -0.023 C 
ATOM      6  C   UNL     1      -3.075  -1.808  -1.283  0.00  0.00    +0.049 C 
ATOM      7  C   UNL     1      -3.000  -3.010  -0.423  0.00  0.00    -0.014 A 
ATOM      8  C   UNL     1      -3.828  -4.097  -0.621  0.00  0.00    +0.039 A 
ATOM      9  C   UNL     1      -3.748  -5.201   0.206  0.00  0.00    +0.130 A 
ATOM     10  C   UNL     1      -2.831  -5.215   1.242  0.00  0.00    +0.080 A 
ATOM     11  C   UNL     1      -1.995  -4.135   1.444  0.00  0.00    +0.140 A 
ATOM     12  C   UNL     1      -2.060  -3.014   0.608  0.00  0.00    +0.074 A 
ATOM     13  N   UNL     1      -1.157  -1.976   0.848  0.00  0.00    -0.334 N 
ATOM     14  H   UNL     1      -0.372  -2.025   1.617  0.00  0.00    +0.147 HD
ENDROOT
BRANCH   1  17
ATOM     15  C   UNL     1       1.174   2.087   0.002  0.00  0.00    +0.162 A 
ATOM     16  C   UNL     1      -0.017   1.378   0.010  0.00  0.00    +0.054 A 
ATOM     17  C   UNL     1       0.002  -0.004   0.002  0.00  0.00    -0.023 A 
ATOM     18  C   UNL     1       1.207  -0.682  -0.013  0.00  0.00    +0.009 A 
ATOM     19  C   UNL     1       2.398   0.019  -0.020  0.00  0.00    +0.049 A 
ATOM     20  C   UNL     1       2.386   1.405  -0.013  0.00  0.00    +0.158 A 
BRANCH  15  22
ATOM     21  C   UNL     1      -0.124   4.080   0.024  0.00  0.00    +0.277 C 
ATOM     22  O   UNL     1       1.157   3.447   0.009  0.00  0.00    -0.491 OA
ENDBRANCH  15  22
BRANCH  20  23
ATOM     23  O   UNL     1       3.557   2.096  -0.020  0.00  0.00    -0.503 OA
ATOM     24  H   UNL     1       4.515   1.556  -0.032  0.00  0.00    +0.292 HD
ENDBRANCH  20  23
ENDBRANCH   1  17
BRANCH   9  25
ATOM     25  N   UNL     1      -4.639  -6.362  -0.015  0.00  0.00    +0.057 N 
ATOM     26  O   UNL     1      -5.445  -6.345  -0.928  0.00  0.00    -0.126 OA
ATOM     27  O   UNL     1      -4.566  -7.333   0.715  0.00  0.00    -0.126 OA
ENDBRANCH   9  25
BRANCH  11  28
ATOM     28  O   UNL     1      -1.098  -4.161   2.466  0.00  0.00    -0.505 OA
ATOM     29  H   UNL     1      -0.429  -3.304   2.633  0.00  0.00    +0.292 HD
ENDBRANCH  11  28
TORSDOF 5
