REMARK  Name = ZINC52486067
REMARK  8 active torsions:
REMARK  status: ('A' for Active; 'I' for Inactive)
REMARK    1  A    between atoms: C_1  and  N_2
REMARK    2  A    between atoms: N_2  and  C_3
REMARK    3  A    between atoms: N_2  and  C_4
REMARK    4  A    between atoms: C_4  and  C_6
REMARK    5  A    between atoms: C_4  and  C_19
REMARK    6  A    between atoms: C_6  and  N_7
REMARK    7  A    between atoms: N_7  and  C_8
REMARK    8  A    between atoms: C_9  and  N_16
REMARK                            x       y       z     vdW  Elec       q    Type
REMARK                         _______ _______ _______ _____ _____    ______ ____
ROOT
ATOM      1  C   UNL     1      -1.398  -1.804   0.697  0.00  0.00    +0.092 C 
ENDROOT
BRANCH   1   2
ATOM      2  N   UNL     1      -2.784  -2.192   0.972  0.00  0.00    -0.327 N 
ATOM      3  H   UNL     1      -3.489  -1.527   0.941  0.00  0.00    +0.148 HD
BRANCH   2   4
ATOM      4  C   UNL     1      -3.091  -3.527   1.280  0.00  0.00    +0.170 A 
ATOM      5  C   UNL     1      -4.321  -4.013   1.546  0.00  0.00    +0.242 A 
ATOM      6  N   UNL     1      -4.187  -5.381   1.800  0.00  0.00    -0.273 N 
ATOM      7  C   UNL     1      -4.995  -6.449   2.124  0.00  0.00    +0.102 A 
ATOM      8  C   UNL     1      -4.480  -7.666   2.295  0.00  0.00    +0.067 A 
ATOM      9  S   UNL     1      -2.743  -7.377   1.997  0.00  0.00    -0.058 S 
ATOM     10  C   UNL     1      -2.849  -5.633   1.665  0.00  0.00    +0.181 A 
ATOM     11  N   UNL     1      -2.211  -4.540   1.354  0.00  0.00    -0.204 NA
BRANCH   5  12
ATOM     12  N   UNL     1      -5.588  -3.235   1.567  0.00  0.00    +0.077 N 
ATOM     13  O   UNL     1      -5.962  -2.716   2.593  0.00  0.00    -0.125 OA
ATOM     14  O   UNL     1      -6.244  -3.120   0.558  0.00  0.00    -0.125 OA
ENDBRANCH   5  12
ENDBRANCH   2   4
ENDBRANCH   1   2
BRANCH   1  15
ATOM     15  C   UNL     1      -1.355  -0.337   0.267  0.00  0.00    -0.021 C 
BRANCH  15  16
ATOM     16  C   UNL     1      -2.078  -0.176  -1.045  0.00  0.00    -0.059 A 
ATOM     17  C   UNL     1      -1.445  -0.511  -2.228  0.00  0.00    +0.005 A 
ATOM     18  C   UNL     1      -2.108  -0.365  -3.432  0.00  0.00    +0.038 A 
ATOM     19  C   UNL     1      -3.405   0.117  -3.453  0.00  0.00    +0.123 A 
ATOM     20  C   UNL     1      -4.038   0.453  -2.268  0.00  0.00    +0.038 A 
ATOM     21  C   UNL     1      -3.376   0.300  -1.065  0.00  0.00    +0.005 A 
ATOM     22  F   UNL     1      -4.054   0.261  -4.630  0.00  0.00    -0.205 F 
ENDBRANCH  15  16
BRANCH  15  24
ATOM     23  C   UNL     1       0.084   1.481  -0.350  0.00  0.00    -0.096 C 
ATOM     24  N   UNL     1       0.043   0.087   0.111  0.00  0.00    +0.382 N 
ATOM     25  C   UNL     1       0.735  -0.022   1.403  0.00  0.00    -0.096 C 
ATOM     26  H   UNL     1       0.500  -0.505  -0.566  0.00  0.00    -0.082 HD
ENDBRANCH  15  24
ENDBRANCH   1  15
TORSDOF 6
