REMARK  Name = ZINC10157001
REMARK  6 active torsions:
REMARK  status: ('A' for Active; 'I' for Inactive)
REMARK    1  A    between atoms: C_1  and  C_2
REMARK    2  A    between atoms: C_2  and  C_3
REMARK    3  A    between atoms: C_2  and  C_4
REMARK    4  A    between atoms: C_5  and  C_26
REMARK    5  A    between atoms: C_14  and  C_19
REMARK    6  A    between atoms: C_24  and  O_25
REMARK                            x       y       z     vdW  Elec       q    Type
REMARK                         _______ _______ _______ _____ _____    ______ ____
ROOT
ATOM      1  C   UNL     1       2.871   5.436  -1.020  0.00  0.00    +0.076 A 
ATOM      2  C   UNL     1       2.415   4.595   0.003  0.00  0.00    +0.051 A 
ATOM      3  C   UNL     1       3.376   4.613   1.015  0.00  0.00    +0.186 A 
ATOM      4  N   UNL     1       3.462   4.009   2.206  0.00  0.00    -0.128 NA
ATOM      5  N   UNL     1       4.477   4.191   2.976  0.00  0.00    -0.142 NA
ATOM      6  C   UNL     1       5.493   4.997   2.614  0.00  0.00    +0.150 A 
ATOM      7  C   UNL     1       5.463   5.646   1.397  0.00  0.00    +0.076 A 
ATOM      8  N   UNL     1       4.383   5.447   0.588  0.00  0.00    -0.214 N 
ATOM      9  N   UNL     1       4.032   5.936  -0.672  0.00  0.00    -0.169 NA
ATOM     10  C   UNL     1       6.560   6.574   0.960  0.00  0.00    +0.066 C 
ATOM     11  C   UNL     1       7.867   6.261   1.683  0.00  0.00    +0.036 C 
ATOM     12  C   UNL     1       7.625   6.283   3.199  0.00  0.00    +0.090 C 
ATOM     13  C   UNL     1       6.644   5.174   3.517  0.00  0.00    +0.185 C 
ATOM     14  O   UNL     1       6.801   4.456   4.481  0.00  0.00    -0.290 OA
ENDROOT
BRANCH   2  15
ATOM     15  C   UNL     1       1.145   3.832   0.011  0.00  0.00    -0.011 A 
ATOM     16  C   UNL     1      -0.077   4.505   0.026  0.00  0.00    +0.009 A 
ATOM     17  C   UNL     1      -1.256   3.790   0.034  0.00  0.00    +0.002 A 
ATOM     18  C   UNL     1      -1.230   2.406   0.021  0.00  0.00    +0.020 A 
ATOM     19  C   UNL     1      -0.021   1.732   0.012  0.00  0.00    +0.042 A 
ATOM     20  C   UNL     1       1.166   2.438   0.004  0.00  0.00    +0.028 A 
ATOM     21 CL   UNL     1       0.002  -0.004   0.002  0.00  0.00    -0.084 Cl
ENDBRANCH   2  15
BRANCH  11  22
ATOM     22  C   UNL     1       8.901   7.297   1.324  0.00  0.00    -0.002 A 
ATOM     23  C   UNL     1       8.671   8.630   1.605  0.00  0.00    +0.007 A 
ATOM     24  C   UNL     1       9.620   9.581   1.275  0.00  0.00    +0.001 A 
ATOM     25  C   UNL     1      10.800   9.200   0.664  0.00  0.00    +0.004 A 
ATOM     26  C   UNL     1      11.035   7.869   0.381  0.00  0.00    +0.046 A 
ATOM     27  C   UNL     1      10.087   6.912   0.715  0.00  0.00    +0.120 A 
BRANCH  27  28
ATOM     28  O   UNL     1      10.318   5.601   0.443  0.00  0.00    -0.506 OA
ATOM     29  H   UNL     1      10.009   5.320  -0.429  0.00  0.00    +0.292 HD
ENDBRANCH  27  28
ENDBRANCH  11  22
BRANCH   1  31
ATOM     30  C   UNL     1       1.859   7.220  -2.414  0.00  0.00    +0.014 C 
ATOM     31  C   UNL     1       2.146   5.721  -2.310  0.00  0.00    +0.034 C 
ATOM     32  C   UNL     1       3.015   5.284  -3.491  0.00  0.00    +0.014 C 
ENDBRANCH   1  31
TORSDOF 4
