REMARK  Name = ZINC09835183
REMARK  14 active torsions:
REMARK  status: ('A' for Active; 'I' for Inactive)
REMARK    1  A    between atoms: C_1  and  C_2
REMARK    2  A    between atoms: C_2  and  N_3
REMARK    3  A    between atoms: N_3  and  C_4
REMARK    4  A    between atoms: N_3  and  C_6
REMARK    5  A    between atoms: C_4  and  C_5
REMARK    6  A    between atoms: C_6  and  C_7
REMARK    7  A    between atoms: C_7  and  C_8
REMARK    8  A    between atoms: C_8  and  N_9
REMARK    9  A    between atoms: C_10  and  C_12
REMARK   10  A    between atoms: C_12  and  N_13
REMARK   11  A    between atoms: C_20  and  S_24
REMARK   12  A    between atoms: C_21  and  C_23
REMARK   13  A    between atoms: S_24  and  N_27
REMARK   14  A    between atoms: C_30  and  C_33
REMARK                            x       y       z     vdW  Elec       q    Type
REMARK                         _______ _______ _______ _____ _____    ______ ____
ROOT
ATOM      1  N   UNL     1      -5.195  -7.518  -3.553  0.00  0.00    -0.290 N 
ATOM      2  C   UNL     1      -5.059  -8.052  -4.794  0.00  0.00    +0.203 A 
ATOM      3  N   UNL     1      -5.116  -9.342  -4.985  0.00  0.00    -0.230 NA
ATOM      4  C   UNL     1      -5.309 -10.177  -3.968  0.00  0.00    +0.117 A 
ATOM      5  C   UNL     1      -5.460  -9.718  -2.647  0.00  0.00    +0.099 A 
ATOM      6  C   UNL     1      -5.388  -8.297  -2.473  0.00  0.00    +0.264 A 
ATOM      7  O   UNL     1      -5.503  -7.803  -1.365  0.00  0.00    -0.267 OA
ATOM      8  C   UNL     1      -5.663 -10.758  -1.655  0.00  0.00    +0.130 A 
ATOM      9  C   UNL     1      -5.692 -12.041  -2.048  0.00  0.00    +0.016 A 
ATOM     10  S   UNL     1      -5.445 -11.939  -3.811  0.00  0.00    -0.072 S 
ATOM     11  C   UNL     1      -5.888 -13.273  -1.202  0.00  0.00    +0.053 C 
ENDROOT
BRANCH   8  12
ATOM     12  S   UNL     1      -5.868 -10.341   0.044  0.00  0.00    +0.062 S 
ATOM     13  O   UNL     1      -6.529  -9.083   0.077  0.00  0.00    -0.153 OA
ATOM     14  O   UNL     1      -6.395 -11.495   0.685  0.00  0.00    -0.153 OA
BRANCH  12  15
ATOM     15  N   UNL     1      -4.356 -10.097   0.675  0.00  0.00    -0.177 NA
ATOM     16  C   UNL     1      -3.602 -11.213   1.263  0.00  0.00    +0.110 C 
ATOM     17  C   UNL     1      -3.169 -10.822   2.679  0.00  0.00    +0.020 C 
ATOM     18  C   UNL     1      -2.398  -9.501   2.627  0.00  0.00    -0.012 C 
ATOM     19  C   UNL     1      -3.309  -8.399   2.079  0.00  0.00    +0.020 C 
ATOM     20  C   UNL     1      -3.741  -8.763   0.651  0.00  0.00    +0.110 C 
ATOM     21  C   UNL     1      -1.934  -9.126   4.036  0.00  0.00    +0.007 C 
ENDBRANCH  12  15
ENDBRANCH   8  12
BRANCH   1  22
ATOM     22  C   UNL     1      -5.124  -6.064  -3.386  0.00  0.00    +0.221 C 
BRANCH  22  24
ATOM     23  N   UNL     1      -3.386  -4.357  -2.958  0.00  0.00    -0.314 N 
ATOM     24  C   UNL     1      -3.694  -5.656  -3.142  0.00  0.00    +0.233 C 
ATOM     25  O   UNL     1      -2.820  -6.496  -3.111  0.00  0.00    -0.274 OA
ATOM     26  H   UNL     1      -4.085  -3.684  -2.983  0.00  0.00    +0.149 HD
BRANCH  23  27
ATOM     27  C   UNL     1      -1.996  -3.960  -2.721  0.00  0.00    +0.102 C 
BRANCH  27  28
ATOM     28  C   UNL     1      -1.921  -2.442  -2.546  0.00  0.00    +0.000 C 
BRANCH  28  29
ATOM     29  C   UNL     1      -0.469  -2.027  -2.299  0.00  0.00    -0.077 C 
BRANCH  29  30
ATOM     30  N   UNL     1      -0.398  -0.569  -2.131  0.00  0.00    +0.379 N 
ATOM     31  H   UNL     1      -0.815  -0.118  -2.932  0.00  0.00    -0.082 HD
BRANCH  30  33
ATOM     32  C   UNL     1      -1.172   1.345  -0.815  0.00  0.00    -0.017 C 
ATOM     33  C   UNL     1      -1.126  -0.180  -0.916  0.00  0.00    -0.082 C 
ENDBRANCH  30  33
BRANCH  30  34
ATOM     34  C   UNL     1       1.007  -0.158  -2.013  0.00  0.00    -0.082 C 
ATOM     35  C   UNL     1       1.731  -0.433  -3.333  0.00  0.00    -0.017 C 
ENDBRANCH  30  34
ENDBRANCH  29  30
ENDBRANCH  28  29
ENDBRANCH  27  28
ENDBRANCH  23  27
ENDBRANCH  22  24
ENDBRANCH   1  22
TORSDOF 10
