REMARK  Name = ZINC40896661
REMARK  6 active torsions:
REMARK  status: ('A' for Active; 'I' for Inactive)
REMARK    1  A    between atoms: C_3  and  N_19
REMARK    2  A    between atoms: C_6  and  C_7
REMARK    3  A    between atoms: C_9  and  C_12
REMARK    4  A    between atoms: C_23  and  C_26
REMARK    5  A    between atoms: N_28  and  C_29
REMARK    6  A    between atoms: C_29  and  C_30
REMARK                            x       y       z     vdW  Elec       q    Type
REMARK                         _______ _______ _______ _____ _____    ______ ____
ROOT
ATOM      1  C   UNL     1      -0.017   1.389   0.010  0.00  0.00    +0.013 A 
ATOM      2  C   UNL     1       1.168   2.095   0.002  0.00  0.00    +0.027 A 
ATOM      3  C   UNL     1       2.381   1.418  -0.013  0.00  0.00    +0.065 A 
ATOM      4  C   UNL     1       2.404   0.026  -0.022  0.00  0.00    +0.145 A 
ATOM      5  C   UNL     1       1.220  -0.683  -0.014  0.00  0.00    +0.052 A 
ATOM      6  C   UNL     1       0.002  -0.004   0.002  0.00  0.00    +0.025 A 
ATOM      7  F   UNL     1       3.584  -0.631  -0.037  0.00  0.00    -0.204 F 
ENDROOT
BRANCH   3   8
ATOM      8  N   UNL     1       3.579   2.135  -0.022  0.00  0.00    -0.327 N 
ATOM      9  C   UNL     1       4.206   2.531  -1.290  0.00  0.00    +0.105 C 
ATOM     10  C   UNL     1       5.657   2.038  -1.298  0.00  0.00    +0.020 C 
ATOM     11  C   UNL     1       6.375   2.560  -0.052  0.00  0.00    +0.016 C 
ATOM     12  C   UNL     1       5.687   2.015   1.202  0.00  0.00    +0.092 C 
ATOM     13  C   UNL     1       4.234   2.512   1.238  0.00  0.00    +0.118 C 
BRANCH  12  14
ATOM     14  C   UNL     1       6.416   2.502   2.427  0.00  0.00    +0.218 C 
ATOM     15  O   UNL     1       5.833   3.175   3.252  0.00  0.00    -0.275 OA
ATOM     16  N   UNL     1       7.715   2.191   2.608  0.00  0.00    -0.315 N 
ATOM     17  H   UNL     1       8.181   1.653   1.949  0.00  0.00    +0.149 HD
BRANCH  16  18
ATOM     18  C   UNL     1       8.423   2.665   3.800  0.00  0.00    +0.107 C 
BRANCH  18  19
ATOM     19  C   UNL     1       9.872   2.175   3.760  0.00  0.00    +0.006 C 
ATOM     20  C   UNL     1       9.897   0.648   3.854  0.00  0.00    +0.005 C 
ATOM     21  C   UNL     1      11.347   0.159   3.814  0.00  0.00    +0.000 C 
ATOM     22  C   UNL     1      12.119   0.756   4.993  0.00  0.00    +0.000 C 
ATOM     23  C   UNL     1      12.093   2.283   4.899  0.00  0.00    +0.000 C 
ATOM     24  C   UNL     1      10.644   2.772   4.938  0.00  0.00    +0.005 C 
ENDBRANCH  18  19
ENDBRANCH  16  18
ENDBRANCH  12  14
ENDBRANCH   3   8
BRANCH   6  25
ATOM     25  C   UNL     1      -1.272  -0.764   0.011  0.00  0.00    +0.202 A 
ATOM     26  N   UNL     1      -1.384  -2.102   0.010  0.00  0.00    -0.187 NA
ATOM     27  C   UNL     1      -2.649  -2.445   0.020  0.00  0.00    +0.259 A 
ATOM     28  O   UNL     1      -3.390  -1.323   0.027  0.00  0.00    -0.332 OA
ATOM     29  N   UNL     1      -2.474  -0.239   0.026  0.00  0.00    -0.056 NA
BRANCH  27  30
ATOM     30  C   UNL     1      -3.172  -3.829   0.022  0.00  0.00    +0.042 A 
ATOM     31  C   UNL     1      -2.304  -4.926   0.019  0.00  0.00    +0.033 A 
ATOM     32  C   UNL     1      -2.835  -6.200   0.022  0.00  0.00    +0.111 A 
ATOM     33  N   UNL     1      -4.140  -6.390   0.027  0.00  0.00    -0.263 NA
ATOM     34  C   UNL     1      -4.993  -5.385   0.029  0.00  0.00    +0.111 A 
ATOM     35  C   UNL     1      -4.549  -4.078   0.033  0.00  0.00    +0.033 A 
ENDBRANCH  27  30
ENDBRANCH   6  25
TORSDOF 6
