REMARK  Name = ZINC06211309
REMARK  8 active torsions:
REMARK  status: ('A' for Active; 'I' for Inactive)
REMARK    1  A    between atoms: C_1  and  C_2
REMARK    2  A    between atoms: C_2  and  C_4
REMARK    3  A    between atoms: C_7  and  N_10
REMARK    4  A    between atoms: C_11  and  C_13
REMARK    5  A    between atoms: C_13  and  N_24
REMARK    6  A    between atoms: C_14  and  C_15
REMARK    7  A    between atoms: C_18  and  N_21
REMARK    8  A    between atoms: C_25  and  C_27
REMARK                            x       y       z     vdW  Elec       q    Type
REMARK                         _______ _______ _______ _____ _____    ______ ____
ROOT
ATOM      1  C   UNL     1      -1.414   3.301   0.035  0.00  0.00    +0.097 C 
ATOM      2  C   UNL     1      -1.498   1.957  -0.099  0.00  0.00    +0.036 C 
ENDROOT
BRANCH   2   3
ATOM      3  C   UNL     1      -0.352   1.197  -0.621  0.00  0.00    -0.023 A 
ATOM      4  C   UNL     1       0.323   1.640  -1.764  0.00  0.00    +0.010 A 
ATOM      5  C   UNL     1       1.393   0.919  -2.251  0.00  0.00    +0.033 A 
ATOM      6  C   UNL     1       1.800  -0.240  -1.612  0.00  0.00    +0.126 A 
ATOM      7  C   UNL     1       1.137  -0.684  -0.481  0.00  0.00    +0.033 A 
ATOM      8  C   UNL     1       0.066   0.025   0.019  0.00  0.00    +0.010 A 
BRANCH   6   9
ATOM      9  N   UNL     1       2.949  -1.008  -2.141  0.00  0.00    +0.056 N 
ATOM     10  O   UNL     1       3.309  -2.028  -1.582  0.00  0.00    -0.126 OA
ATOM     11  O   UNL     1       3.534  -0.620  -3.137  0.00  0.00    -0.126 OA
ENDBRANCH   6   9
ENDBRANCH   2   3
BRANCH   1  13
ATOM     12  N   UNL     1      -0.053   5.321  -0.126  0.00  0.00    -0.280 N 
ATOM     13  C   UNL     1      -0.116   3.975  -0.108  0.00  0.00    +0.262 C 
ATOM     14  O   UNL     1       0.903   3.317  -0.210  0.00  0.00    -0.268 OA
ATOM     15  H   UNL     1      -0.854   5.846   0.029  0.00  0.00    +0.155 HD
BRANCH  12  19
ATOM     16  C   UNL     1       3.569   7.222  -0.850  0.00  0.00    +0.017 A 
ATOM     17  C   UNL     1       2.374   7.786  -1.315  0.00  0.00    +0.013 A 
ATOM     18  C   UNL     1       1.185   7.158  -1.075  0.00  0.00    +0.024 A 
ATOM     19  C   UNL     1       1.160   5.958  -0.369  0.00  0.00    +0.034 A 
ATOM     20  C   UNL     1       2.345   5.396   0.101  0.00  0.00    +0.024 A 
ATOM     21  C   UNL     1       3.539   6.015  -0.139  0.00  0.00    +0.013 A 
BRANCH  16  23
ATOM     22  C   UNL     1       6.133   7.285  -0.604  0.00  0.00    +0.091 C 
ATOM     23  C   UNL     1       4.849   7.894  -1.106  0.00  0.00    +0.160 C 
ATOM     24  O   UNL     1       4.873   8.938  -1.722  0.00  0.00    -0.292 OA
ENDBRANCH  16  23
ENDBRANCH  12  19
ENDBRANCH   1  13
BRANCH   1  25
ATOM     25  N   UNL     1      -2.563   4.049   0.309  0.00  0.00    -0.275 N 
ATOM     26  C   UNL     1      -2.625   4.805   1.423  0.00  0.00    +0.284 C 
ATOM     27  O   UNL     1      -1.647   4.913   2.140  0.00  0.00    -0.266 OA
ATOM     28  H   UNL     1      -3.315   4.023  -0.302  0.00  0.00    +0.155 HD
BRANCH  26  29
ATOM     29  C   UNL     1      -3.869   5.497   1.771  0.00  0.00    +0.189 A 
ATOM     30  C   UNL     1      -4.068   6.291   2.865  0.00  0.00    +0.054 A 
ATOM     31  C   UNL     1      -5.395   6.743   2.800  0.00  0.00    +0.042 A 
ATOM     32  C   UNL     1      -5.942   6.212   1.684  0.00  0.00    +0.196 A 
ATOM     33  O   UNL     1      -5.018   5.467   1.063  0.00  0.00    -0.458 OA
ENDBRANCH  26  29
ENDBRANCH   1  25
TORSDOF 7
