REMARK  Name = ZINC02761495
REMARK  8 active torsions:
REMARK  status: ('A' for Active; 'I' for Inactive)
REMARK    1  A    between atoms: C_1  and  C_2
REMARK    2  A    between atoms: C_2  and  C_3
REMARK    3  A    between atoms: C_10  and  N_14
REMARK    4  A    between atoms: C_11  and  C_12
REMARK    5  A    between atoms: C_15  and  C_17
REMARK    6  A    between atoms: C_17  and  C_19
REMARK    7  A    between atoms: C_17  and  N_20
REMARK    8  A    between atoms: C_22  and  N_25
REMARK                            x       y       z     vdW  Elec       q    Type
REMARK                         _______ _______ _______ _____ _____    ______ ____
ROOT
ATOM      1  N   UNL     1      -2.527   5.875   1.719  0.00  0.00    -0.277 N 
ATOM      2  C   UNL     1      -1.748   4.806   1.460  0.00  0.00    +0.242 C 
ATOM      3  O   UNL     1      -1.200   4.220   2.370  0.00  0.00    -0.273 OA
ATOM      4  H   UNL     1      -2.965   6.343   0.991  0.00  0.00    +0.155 HD
ENDROOT
BRANCH   1  11
ATOM      5  C   UNL     1      -3.052   8.112   7.685  0.00  0.00    -0.006 C 
ATOM      6  C   UNL     1      -4.417   8.429   7.067  0.00  0.00    +0.008 C 
ATOM      7  C   UNL     1      -4.254   8.746   5.580  0.00  0.00    +0.037 C 
ATOM      8  C   UNL     1      -3.474   7.616   4.920  0.00  0.00    -0.018 A 
ATOM      9  C   UNL     1      -2.738   6.755   5.657  0.00  0.00    -0.004 A 
ATOM     10  S   UNL     1      -2.037   5.635   4.479  0.00  0.00    -0.077 S 
ATOM     11  C   UNL     1      -2.702   6.306   3.026  0.00  0.00    +0.090 A 
ATOM     12  C   UNL     1      -3.457   7.374   3.488  0.00  0.00    +0.084 A 
ATOM     13  C   UNL     1      -2.567   6.758   7.145  0.00  0.00    +0.046 C 
BRANCH   5  15
ATOM     14  C   UNL     1      -1.800   7.830   9.828  0.00  0.00    +0.004 C 
ATOM     15  C   UNL     1      -3.182   8.040   9.207  0.00  0.00    +0.000 C 
ENDBRANCH   5  15
BRANCH  12  16
ATOM     16  C   UNL     1      -4.191   8.209   2.585  0.00  0.00    +0.102 C 
ATOM     17  N   UNL     1      -4.774   8.871   1.869  0.00  0.00    -0.191 NA
ENDBRANCH  12  16
ENDBRANCH   1  11
BRANCH   2  18
ATOM     18  C   UNL     1      -1.558   4.338   0.040  0.00  0.00    +0.190 C 
ATOM     19  C   UNL     1      -0.930   5.461  -0.787  0.00  0.00    +0.042 C 
BRANCH  18  20
ATOM     20  N   UNL     1      -0.675   3.169   0.025  0.00  0.00    -0.258 N 
ATOM     21  C   UNL     1       0.674   3.193   0.013  0.00  0.00    +0.142 A 
ATOM     22  C   UNL     1       1.109   1.911   0.002  0.00  0.00    +0.163 A 
ATOM     23  C   UNL     1      -0.013   1.076   0.008  0.00  0.00    +0.167 A 
ATOM     24  N   UNL     1      -1.083   1.829   0.017  0.00  0.00    -0.177 NA
BRANCH  22  25
ATOM     25  N   UNL     1       2.522   1.472  -0.015  0.00  0.00    +0.059 N 
ATOM     26  O   UNL     1       2.791   0.283  -0.024  0.00  0.00    -0.126 OA
ATOM     27  O   UNL     1       3.417   2.298  -0.019  0.00  0.00    -0.126 OA
ENDBRANCH  22  25
ENDBRANCH  18  20
ENDBRANCH   2  18
TORSDOF 6
