REMARK  Name = ZINC14960949
REMARK  10 active torsions:
REMARK  status: ('A' for Active; 'I' for Inactive)
REMARK    1  A    between atoms: C_1  and  N_2
REMARK    2  A    between atoms: N_2  and  C_3
REMARK    3  A    between atoms: C_3  and  C_4
REMARK    4  A    between atoms: C_14  and  O_17
REMARK    5  A    between atoms: O_17  and  C_18
REMARK    6  A    between atoms: C_18  and  C_19
REMARK    7  A    between atoms: N_21  and  C_22
REMARK    8  A    between atoms: C_22  and  C_23
REMARK    9  A    between atoms: C_23  and  N_24
REMARK   10  A    between atoms: C_29  and  C_31
REMARK                            x       y       z     vdW  Elec       q    Type
REMARK                         _______ _______ _______ _____ _____    ______ ____
ROOT
ATOM      1  C   UNL     1       1.330   7.510   0.029  0.00  0.00    +0.251 C 
ATOM      2  O   UNL     1       0.239   8.040   0.042  0.00  0.00    -0.272 OA
ATOM      3  N   UNL     1       2.446   8.265   0.023  0.00  0.00    -0.311 N 
ATOM      4  H   UNL     1       3.319   7.841   0.013  0.00  0.00    +0.149 HD
ENDROOT
BRANCH   1   5
ATOM      5  C   UNL     1       1.437   6.007   0.020  0.00  0.00    +0.326 C 
BRANCH   5   6
ATOM      6  O   UNL     1       0.127   5.436   0.029  0.00  0.00    -0.466 OA
BRANCH   6  12
ATOM      7  C   UNL     1       1.277  -0.720   0.097  0.00  0.00    +0.131 C 
ATOM      8  N   UNL     1       0.002  -0.004   0.002  0.00  0.00    -0.312 N 
ATOM      9  C   UNL     1      -0.017   1.389   0.010  0.00  0.00    +0.144 A 
ATOM     10  C   UNL     1      -1.234   2.072   0.019  0.00  0.00    +0.051 A 
ATOM     11  C   UNL     1      -1.200   3.456   0.031  0.00  0.00    +0.072 A 
ATOM     12  C   UNL     1       0.046   4.080   0.023  0.00  0.00    +0.235 A 
ATOM     13  N   UNL     1       1.148   3.351   0.009  0.00  0.00    -0.110 NA
ATOM     14  N   UNL     1       1.119   2.068   0.003  0.00  0.00    -0.131 NA
BRANCH   8  15
ATOM     15  C   UNL     1      -1.253  -0.753  -0.101  0.00  0.00    +0.141 C 
BRANCH  15  16
ATOM     16  C   UNL     1      -1.573  -1.001  -1.552  0.00  0.00    -0.030 A 
ATOM     17  C   UNL     1      -2.335  -0.088  -2.257  0.00  0.00    +0.008 A 
ATOM     18  C   UNL     1      -2.625  -0.311  -3.590  0.00  0.00    +0.038 A 
ATOM     19  C   UNL     1      -2.161  -1.455  -4.216  0.00  0.00    +0.123 A 
ATOM     20  C   UNL     1      -1.402  -2.372  -3.508  0.00  0.00    +0.038 A 
ATOM     21  C   UNL     1      -1.108  -2.143  -2.177  0.00  0.00    +0.008 A 
ATOM     22  F   UNL     1      -2.447  -1.677  -5.517  0.00  0.00    -0.205 F 
ENDBRANCH  15  16
ENDBRANCH   8  15
ENDBRANCH   6  12
ENDBRANCH   5   6
ENDBRANCH   1   5
BRANCH   3  23
ATOM     23  C   UNL     1       2.342   9.726   0.032  0.00  0.00    +0.127 C 
BRANCH  23  24
ATOM     24  C   UNL     1       3.744  10.338   0.022  0.00  0.00    +0.166 C 
BRANCH  24  25
ATOM     25  N   UNL     1       3.640  11.799   0.031  0.00  0.00    -0.227 N 
ATOM     26  C   UNL     1       3.599  12.446   1.211  0.00  0.00    +0.267 A 
ATOM     27  O   UNL     1       3.648  11.819   2.257  0.00  0.00    -0.266 OA
ATOM     28  C   UNL     1       3.502  13.855   1.230  0.00  0.00    +0.074 A 
ATOM     29  C   UNL     1       3.445  14.507   0.033  0.00  0.00    +0.035 A 
ATOM     30  C   UNL     1       3.491  13.735  -1.152  0.00  0.00    +0.092 A 
ATOM     31  N   UNL     1       3.585  12.428  -1.087  0.00  0.00    -0.168 NA
BRANCH  30  32
ATOM     32  C   UNL     1       3.431  14.407  -2.474  0.00  0.00    +0.002 A 
ATOM     33  C   UNL     1       3.325  15.794  -2.549  0.00  0.00    +0.010 A 
ATOM     34  C   UNL     1       3.276  16.414  -3.781  0.00  0.00    +0.001 A 
ATOM     35  C   UNL     1       3.320  15.660  -4.940  0.00  0.00    +0.000 A 
ATOM     36  C   UNL     1       3.420  14.282  -4.871  0.00  0.00    +0.001 A 
ATOM     37  C   UNL     1       3.476  13.652  -3.644  0.00  0.00    +0.010 A 
ENDBRANCH  30  32
ENDBRANCH  24  25
ENDBRANCH  23  24
ENDBRANCH   3  23
TORSDOF 9
