REMARK  Name = ZINC16269530
REMARK  5 active torsions:
REMARK  status: ('A' for Active; 'I' for Inactive)
REMARK    1  A    between atoms: C_1  and  C_2
REMARK    2  A    between atoms: C_4  and  N_18
REMARK    3  A    between atoms: C_6  and  C_9
REMARK    4  A    between atoms: C_7  and  O_8
REMARK    5  A    between atoms: N_10  and  C_11
REMARK                            x       y       z     vdW  Elec       q    Type
REMARK                         _______ _______ _______ _____ _____    ______ ____
ROOT
ATOM      1  C   UNL     1      -0.018   1.503   0.010  0.00  0.00    +0.047 C 
ATOM      2  C   UNL     1       0.002  -0.004   0.002  0.00  0.00    -0.006 A 
ATOM      3  C   UNL     1       0.006  -0.687  -1.199  0.00  0.00    +0.039 A 
ATOM      4  C   UNL     1       0.024  -2.072  -1.218  0.00  0.00    +0.127 A 
ATOM      5  C   UNL     1       0.040  -2.784  -0.038  0.00  0.00    +0.045 A 
ATOM      6  C   UNL     1       0.036  -2.106   1.185  0.00  0.00    +0.037 A 
ATOM      7  C   UNL     1       0.023  -0.702   1.199  0.00  0.00    +0.128 A 
ENDROOT
BRANCH   4   8
ATOM      8  N   UNL     1       0.028  -2.791  -2.512  0.00  0.00    +0.056 N 
ATOM      9  O   UNL     1       0.014  -2.169  -3.549  0.00  0.00    -0.126 OA
ATOM     10  O   UNL     1       0.044  -4.000  -2.532  0.00  0.00    -0.126 OA
ENDBRANCH   4   8
BRANCH   7  11
ATOM     11  O   UNL     1       0.025  -0.032   2.379  0.00  0.00    -0.506 OA
ATOM     12  H   UNL     1      -0.857   0.150   2.729  0.00  0.00    +0.292 HD
ENDBRANCH   7  11
BRANCH   6  13
ATOM     13  C   UNL     1       0.052  -2.858   2.448  0.00  0.00    +0.123 C 
ATOM     14  N   UNL     1       0.049  -2.221   3.586  0.00  0.00    -0.255 NA
BRANCH  14  15
ATOM     15  C   UNL     1       0.063  -2.922   4.762  0.00  0.00    +0.064 A 
ATOM     16  C   UNL     1      -0.771  -4.029   4.929  0.00  0.00    +0.029 A 
ATOM     17  C   UNL     1      -0.751  -4.731   6.116  0.00  0.00    +0.017 A 
ATOM     18  C   UNL     1       0.093  -4.339   7.141  0.00  0.00    +0.018 A 
ATOM     19  C   UNL     1       0.923  -3.242   6.982  0.00  0.00    +0.017 A 
ATOM     20  C   UNL     1       0.917  -2.535   5.797  0.00  0.00    +0.029 A 
ATOM     21 BR   UNL     1       0.113  -5.306   8.766  0.00  0.00    -0.050 Br
ENDBRANCH  14  15
ENDBRANCH   6  13
TORSDOF 4
