REMARK  Name = ZINC02754101
REMARK  7 active torsions:
REMARK  status: ('A' for Active; 'I' for Inactive)
REMARK    1  A    between atoms: C_1  and  O_2
REMARK    2  A    between atoms: O_2  and  C_3
REMARK    3  A    between atoms: C_10  and  S_13
REMARK    4  A    between atoms: S_13  and  C_14
REMARK    5  A    between atoms: C_14  and  C_15
REMARK    6  A    between atoms: N_17  and  C_18
REMARK    7  A    between atoms: C_19  and  C_27
REMARK                            x       y       z     vdW  Elec       q    Type
REMARK                         _______ _______ _______ _____ _____    ______ ____
ROOT
ATOM      1  C   UNL     1       5.545   2.964  -0.034  0.00  0.00    +0.228 C 
ATOM      2  O   UNL     1       6.357   2.063  -0.046  0.00  0.00    -0.275 OA
ATOM      3  N   UNL     1       5.962   4.246  -0.031  0.00  0.00    -0.278 N 
ATOM      4  H   UNL     1       5.314   4.967  -0.022  0.00  0.00    +0.155 HD
ENDROOT
BRANCH   3   5
ATOM      5  C   UNL     1       7.320   4.534  -0.042  0.00  0.00    +0.090 A 
ATOM      6  C   UNL     1       7.937   5.776  -0.047  0.00  0.00    +0.084 A 
ATOM      7  C   UNL     1       9.389   5.805  -0.055  0.00  0.00    -0.018 A 
ATOM      8  C   UNL     1       9.989   4.593  -0.067  0.00  0.00    -0.004 A 
ATOM      9  S   UNL     1       8.655   3.429  -0.060  0.00  0.00    -0.077 S 
ATOM     10  C   UNL     1      11.460   4.314  -0.083  0.00  0.00    +0.043 C 
ATOM     11  C   UNL     1      12.194   5.608  -0.462  0.00  0.00    +0.005 C 
ATOM     12  C   UNL     1      11.639   6.756   0.386  0.00  0.00    +0.005 C 
ATOM     13  C   UNL     1      10.212   7.087  -0.055  0.00  0.00    +0.037 C 
BRANCH   6  14
ATOM     14  C   UNL     1       7.171   6.986  -0.041  0.00  0.00    +0.102 C 
ATOM     15  N   UNL     1       6.563   7.945  -0.036  0.00  0.00    -0.191 NA
ENDBRANCH   6  14
ENDBRANCH   3   5
BRANCH   1  16
ATOM     16  C   UNL     1       4.071   2.651  -0.022  0.00  0.00    +0.173 C 
BRANCH  16  17
ATOM     17  S   UNL     1       3.835   0.857  -0.029  0.00  0.00    -0.079 S 
BRANCH  17  25
ATOM     18  C   UNL     1      -2.419   1.350   0.032  0.00  0.00    +0.122 A 
ATOM     19  C   UNL     1      -2.392  -0.041   0.025  0.00  0.00    +0.048 A 
ATOM     20  C   UNL     1      -1.188  -0.715   0.010  0.00  0.00    +0.031 A 
ATOM     21  C   UNL     1       0.002  -0.004   0.002  0.00  0.00    +0.067 A 
ATOM     22  C   UNL     1      -0.017   1.400   0.010  0.00  0.00    +0.093 A 
ATOM     23  C   UNL     1      -1.242   2.072   0.030  0.00  0.00    +0.075 A 
ATOM     24  N   UNL     1       1.276   1.818  -0.000  0.00  0.00    -0.222 NA
ATOM     25  C   UNL     1       2.075   0.780  -0.014  0.00  0.00    +0.168 A 
ATOM     26  N   UNL     1       1.340  -0.371  -0.013  0.00  0.00    -0.333 N 
ATOM     27  H   UNL     1       1.699  -1.305  -0.021  0.00  0.00    +0.168 HD
BRANCH  18  29
ATOM     28  C   UNL     1      -4.793   1.197   0.055  0.00  0.00    +0.277 C 
ATOM     29  O   UNL     1      -3.612   2.003   0.048  0.00  0.00    -0.495 OA
ENDBRANCH  18  29
ENDBRANCH  17  25
ENDBRANCH  16  17
ENDBRANCH   1  16
TORSDOF 6
