REMARK  Name = ZINC28076126
REMARK  10 active torsions:
REMARK  status: ('A' for Active; 'I' for Inactive)
REMARK    1  A    between atoms: C_1  and  C_2
REMARK    2  A    between atoms: C_2  and  C_3
REMARK    3  A    between atoms: C_2  and  C_4
REMARK    4  A    between atoms: C_4  and  C_6
REMARK    5  A    between atoms: C_4  and  N_20
REMARK    6  A    between atoms: C_6  and  O_8
REMARK    7  A    between atoms: O_8  and  C_9
REMARK    8  A    between atoms: C_9  and  C_10
REMARK    9  A    between atoms: C_21  and  C_23
REMARK   10  A    between atoms: C_26  and  N_30
REMARK                            x       y       z     vdW  Elec       q    Type
REMARK                         _______ _______ _______ _____ _____    ______ ____
ROOT
ATOM      1  C   UNL     1      -1.431  -0.532   0.013  0.00  0.00    +0.185 C 
ENDROOT
BRANCH   1   2
ATOM      2  N   UNL     1      -2.102  -0.145  -1.231  0.00  0.00    -0.298 N 
ATOM      3  C   UNL     1      -1.967  -0.906  -2.334  0.00  0.00    +0.246 C 
ATOM      4  O   UNL     1      -1.289  -1.915  -2.298  0.00  0.00    -0.270 OA
ATOM      5  H   UNL     1      -2.643   0.660  -1.260  0.00  0.00    +0.150 HD
BRANCH   3   6
ATOM      6  C   UNL     1      -2.643  -0.516  -3.589  0.00  0.00    +0.055 A 
ATOM      7  C   UNL     1      -3.418   0.645  -3.636  0.00  0.00    +0.017 A 
ATOM      8  C   UNL     1      -4.046   1.004  -4.810  0.00  0.00    +0.033 A 
ATOM      9  C   UNL     1      -3.911   0.217  -5.941  0.00  0.00    +0.128 A 
ATOM     10  C   UNL     1      -3.146  -0.934  -5.902  0.00  0.00    +0.053 A 
ATOM     11  C   UNL     1      -2.506  -1.303  -4.735  0.00  0.00    +0.055 A 
ATOM     12 CL   UNL     1      -1.540  -2.744  -4.690  0.00  0.00    -0.083 Cl
BRANCH   9  13
ATOM     13  N   UNL     1      -4.589   0.610  -7.197  0.00  0.00    +0.056 N 
ATOM     14  O   UNL     1      -5.259   1.615  -7.233  0.00  0.00    -0.126 OA
ATOM     15  O   UNL     1      -4.473  -0.076  -8.186  0.00  0.00    -0.126 OA
ENDBRANCH   9  13
ENDBRANCH   3   6
ENDBRANCH   1   2
BRANCH   1  17
ATOM     16  C   UNL     1      -0.013   1.524   0.012  0.00  0.00    +0.009 C 
ATOM     17  C   UNL     1       0.005  -0.005   0.003  0.00  0.00    +0.014 C 
ATOM     18  C   UNL     1       0.743  -0.514   1.243  0.00  0.00    +0.009 C 
ENDBRANCH   1  17
BRANCH   1  19
ATOM     19  C   UNL     1      -2.173   0.053   1.187  0.00  0.00    +0.328 C 
ATOM     20  O   UNL     1      -3.160   0.725   1.004  0.00  0.00    -0.249 OA
BRANCH  19  21
ATOM     21  O   UNL     1      -1.737  -0.172   2.436  0.00  0.00    -0.454 OA
BRANCH  21  22
ATOM     22  C   UNL     1      -2.489   0.414   3.501  0.00  0.00    +0.327 C 
BRANCH  22  23
ATOM     23  C   UNL     1      -1.854   0.056   4.820  0.00  0.00    +0.253 C 
ATOM     24  O   UNL     1      -0.910  -0.706   4.852  0.00  0.00    -0.272 OA
ATOM     25  N   UNL     1      -2.334   0.582   5.964  0.00  0.00    -0.299 N 
ATOM     26  C   UNL     1      -1.650   0.333   7.241  0.00  0.00    +0.108 C 
ATOM     27  C   UNL     1      -0.306   1.049   7.233  0.00  0.00    +0.019 C 
ATOM     28  C   UNL     1      -0.540   2.563   7.373  0.00  0.00    +0.002 C 
ATOM     29  C   UNL     1      -0.986   3.134   6.032  0.00  0.00    +0.000 C 
ATOM     30  C   UNL     1      -2.437   3.642   6.111  0.00  0.00    +0.002 C 
ATOM     31  C   UNL     1      -3.301   2.620   6.851  0.00  0.00    +0.019 C 
ATOM     32  C   UNL     1      -3.531   1.406   5.947  0.00  0.00    +0.108 C 
ENDBRANCH  22  23
ENDBRANCH  21  22
ENDBRANCH  19  21
ENDBRANCH   1  19
TORSDOF 8
