REMARK  Name = ZINC17970194
REMARK  8 active torsions:
REMARK  status: ('A' for Active; 'I' for Inactive)
REMARK    1  A    between atoms: C_1  and  C_2
REMARK    2  A    between atoms: C_5  and  S_8
REMARK    3  A    between atoms: S_8  and  N_11
REMARK    4  A    between atoms: N_11  and  C_12
REMARK    5  A    between atoms: C_12  and  C_13
REMARK    6  A    between atoms: C_13  and  C_14
REMARK    7  A    between atoms: C_20  and  C_22
REMARK    8  A    between atoms: C_25  and  N_29
REMARK                            x       y       z     vdW  Elec       q    Type
REMARK                         _______ _______ _______ _____ _____    ______ ____
ROOT
ATOM      1  C   UNL     1       3.456  -3.136  -4.635  0.00  0.00    +0.105 A 
ATOM      2  N   UNL     1       4.658  -3.674  -4.685  0.00  0.00    -0.145 NA
ATOM      3  N   UNL     1       5.536  -3.283  -5.502  0.00  0.00    -0.126 NA
ATOM      4  C   UNL     1       5.301  -2.304  -6.364  0.00  0.00    +0.188 A 
ATOM      5  S   UNL     1       3.606  -1.916  -5.936  0.00  0.00    -0.035 S 
ATOM      6  N   UNL     1       6.131  -1.742  -7.327  0.00  0.00    -0.259 N 
ATOM      7  C   UNL     1       7.389  -2.201  -7.483  0.00  0.00    +0.251 C 
ATOM      8  O   UNL     1       7.798  -3.105  -6.780  0.00  0.00    -0.270 OA
ATOM      9  H   UNL     1       5.805  -1.021  -7.888  0.00  0.00    +0.157 HD
ENDROOT
BRANCH   7  10
ATOM     10  C   UNL     1       8.271  -1.604  -8.507  0.00  0.00    +0.055 A 
ATOM     11  C   UNL     1       7.805  -0.566  -9.316  0.00  0.00    +0.017 A 
ATOM     12  C   UNL     1       8.633  -0.013 -10.270  0.00  0.00    +0.033 A 
ATOM     13  C   UNL     1       9.925  -0.485 -10.427  0.00  0.00    +0.128 A 
ATOM     14  C   UNL     1      10.395  -1.512  -9.630  0.00  0.00    +0.053 A 
ATOM     15  C   UNL     1       9.577  -2.073  -8.667  0.00  0.00    +0.055 A 
ATOM     16 CL   UNL     1      10.170  -3.358  -7.663  0.00  0.00    -0.083 Cl
BRANCH  13  17
ATOM     17  N   UNL     1      10.808   0.114 -11.452  0.00  0.00    +0.056 N 
ATOM     18  O   UNL     1      10.398   1.020 -12.156  0.00  0.00    -0.126 OA
ATOM     19  O   UNL     1      11.946  -0.298 -11.593  0.00  0.00    -0.126 OA
ENDBRANCH  13  17
ENDBRANCH   7  10
BRANCH   1  20
ATOM     20  C   UNL     1       2.286  -3.461  -3.742  0.00  0.00    +0.081 C 
BRANCH  20  21
ATOM     21  C   UNL     1       2.360  -2.607  -2.474  0.00  0.00    +0.112 C 
BRANCH  21  22
ATOM     22  N   UNL     1       1.223  -2.923  -1.606  0.00  0.00    -0.190 NA
ATOM     23  H   UNL     1       0.465  -3.414  -1.959  0.00  0.00    +0.148 HD
BRANCH  22  24
ATOM     24  S   UNL     1       1.232  -2.441  -0.022  0.00  0.00    +0.058 S 
ATOM     25  O   UNL     1       2.489  -2.832   0.515  0.00  0.00    -0.153 OA
ATOM     26  O   UNL     1      -0.002  -2.866   0.539  0.00  0.00    -0.153 OA
BRANCH  24  31
ATOM     27  C   UNL     1       1.151   3.592   0.010  0.00  0.00    +0.044 C 
ATOM     28  C   UNL     1       1.171   2.086   0.002  0.00  0.00    -0.050 A 
ATOM     29  C   UNL     1      -0.017   1.378   0.010  0.00  0.00    +0.005 A 
ATOM     30  C   UNL     1       0.002  -0.004   0.002  0.00  0.00    +0.029 A 
ATOM     31  C   UNL     1       1.208  -0.679  -0.013  0.00  0.00    +0.105 A 
ATOM     32  C   UNL     1       2.396   0.029  -0.021  0.00  0.00    +0.029 A 
ATOM     33  C   UNL     1       2.377   1.411  -0.015  0.00  0.00    +0.005 A 
ENDBRANCH  24  31
ENDBRANCH  22  24
ENDBRANCH  21  22
ENDBRANCH  20  21
ENDBRANCH   1  20
TORSDOF 7
