REMARK  Name = ZINC36676721
REMARK  5 active torsions:
REMARK  status: ('A' for Active; 'I' for Inactive)
REMARK    1  A    between atoms: C_4  and  N_7
REMARK    2  A    between atoms: C_11  and  S_13
REMARK    3  A    between atoms: S_13  and  C_14
REMARK    4  A    between atoms: C_14  and  C_15
REMARK    5  A    between atoms: N_20  and  C_21
REMARK                            x       y       z     vdW  Elec       q    Type
REMARK                         _______ _______ _______ _____ _____    ______ ____
ROOT
ATOM      1  C   UNL     1       6.336  -7.815  -2.389  0.00  0.00    +0.231 C 
ATOM      2  O   UNL     1       6.828  -7.951  -3.489  0.00  0.00    -0.274 OA
ATOM      3  N   UNL     1       6.450  -8.797  -1.474  0.00  0.00    -0.239 N 
ATOM      4  C   UNL     1       7.112  -9.930  -1.781  0.00  0.00    +0.306 C 
ATOM      5  O   UNL     1       7.605 -10.067  -2.883  0.00  0.00    -0.252 OA
ATOM      6  N   UNL     1       7.227 -10.913  -0.865  0.00  0.00    -0.294 N 
ATOM      7  H   UNL     1       6.057  -8.688  -0.594  0.00  0.00    +0.159 HD
ATOM      8  H   UNL     1       6.833 -10.804   0.015  0.00  0.00    +0.151 HD
ENDROOT
BRANCH   6   9
ATOM      9  C   UNL     1       7.946 -12.145  -1.198  0.00  0.00    +0.037 C 
ATOM     10  C   UNL     1       7.267 -12.826  -2.388  0.00  0.00    +0.029 C 
ATOM     11  C   UNL     1       8.018 -14.112  -2.736  0.00  0.00    -0.008 C 
ATOM     12  C   UNL     1       8.001 -15.055  -1.531  0.00  0.00    +0.007 C 
ATOM     13  C   UNL     1       8.680 -14.374  -0.341  0.00  0.00    -0.008 C 
ATOM     14  C   UNL     1       7.929 -13.087   0.007  0.00  0.00    +0.029 C 
ATOM     15  C   UNL     1      10.128 -14.037  -0.705  0.00  0.00    +0.007 C 
ATOM     16  C   UNL     1      10.145 -13.094  -1.910  0.00  0.00    -0.008 C 
ATOM     17  C   UNL     1       9.465 -13.775  -3.100  0.00  0.00    +0.007 C 
ATOM     18  C   UNL     1       9.393 -11.808  -1.562  0.00  0.00    +0.029 C 
ENDBRANCH   6   9
BRANCH   1  19
ATOM     19  C   UNL     1       5.596  -6.548  -2.046  0.00  0.00    +0.172 C 
BRANCH  19  20
ATOM     20  S   UNL     1       5.616  -5.430  -3.475  0.00  0.00    -0.088 S 
BRANCH  20  25
ATOM     21  N   UNL     1       2.839  -0.440  -2.473  0.00  0.00    -0.319 N 
ATOM     22  C   UNL     1       3.443  -1.692  -2.484  0.00  0.00    +0.183 A 
ATOM     23  N   UNL     1       3.505  -2.598  -1.527  0.00  0.00    -0.125 NA
ATOM     24  N   UNL     1       4.160  -3.787  -1.751  0.00  0.00    -0.133 NA
ATOM     25  C   UNL     1       4.723  -4.015  -2.922  0.00  0.00    +0.160 A 
ATOM     26  S   UNL     1       4.335  -2.508  -3.799  0.00  0.00    -0.025 S 
ATOM     27  H   UNL     1       2.872   0.121  -3.264  0.00  0.00    +0.148 HD
BRANCH  21  31
ATOM     28  C   UNL     1      -0.019   1.526   0.010  0.00  0.00    +0.000 C 
ATOM     29  C   UNL     1       1.417   2.055  -0.000  0.00  0.00    +0.002 C 
ATOM     30  C   UNL     1       2.133   1.562  -1.259  0.00  0.00    +0.022 C 
ATOM     31  C   UNL     1       2.154   0.032  -1.268  0.00  0.00    +0.072 C 
ATOM     32  C   UNL     1       0.718  -0.497  -1.257  0.00  0.00    +0.022 C 
ATOM     33  C   UNL     1       0.002  -0.004   0.002  0.00  0.00    +0.002 C 
ENDBRANCH  21  31
ENDBRANCH  20  25
ENDBRANCH  19  20
ENDBRANCH   1  19
TORSDOF 5
