REMARK  Name = ZINC43465827
REMARK  7 active torsions:
REMARK  status: ('A' for Active; 'I' for Inactive)
REMARK    1  A    between atoms: C_1  and  C_2
REMARK    2  A    between atoms: C_2  and  C_3
REMARK    3  A    between atoms: C_3  and  N_4
REMARK    4  A    between atoms: N_7  and  N_8
REMARK    5  A    between atoms: C_9  and  C_11
REMARK    6  A    between atoms: C_14  and  S_17
REMARK    7  A    between atoms: S_17  and  N_20
REMARK                            x       y       z     vdW  Elec       q    Type
REMARK                         _______ _______ _______ _____ _____    ______ ____
ROOT
ATOM      1  C   UNL     1       0.153  -6.787   0.065  0.00  0.00    +0.038 A 
ATOM      2  C   UNL     1      -0.467  -6.095  -0.977  0.00  0.00    +0.015 A 
ATOM      3  C   UNL     1      -1.062  -6.793  -2.007  0.00  0.00    +0.029 A 
ATOM      4  C   UNL     1      -1.046  -8.177  -2.009  0.00  0.00    +0.106 A 
ATOM      5  C   UNL     1      -0.434  -8.869  -0.979  0.00  0.00    +0.029 A 
ATOM      6  C   UNL     1       0.170  -8.183   0.054  0.00  0.00    +0.015 A 
ENDROOT
BRANCH   1   8
ATOM      7  N   UNL     1       0.775  -4.698   1.179  0.00  0.00    -0.229 N 
ATOM      8  C   UNL     1       0.794  -6.045   1.171  0.00  0.00    +0.260 C 
ATOM      9  O   UNL     1       1.337  -6.651   2.075  0.00  0.00    -0.269 OA
ATOM     10  H   UNL     1       0.342  -4.215   0.458  0.00  0.00    +0.173 HD
BRANCH   7  14
ATOM     11  N   UNL     1       0.762  -1.976   1.234  0.00  0.00    -0.298 N 
ATOM     12  C   UNL     1       1.364  -2.647   2.235  0.00  0.00    +0.316 C 
ATOM     13  O   UNL     1       1.891  -2.037   3.145  0.00  0.00    -0.251 OA
ATOM     14  N   UNL     1       1.383  -3.995   2.228  0.00  0.00    -0.218 N 
ATOM     15  H   UNL     1       0.342  -2.462   0.507  0.00  0.00    +0.150 HD
ATOM     16  H   UNL     1       1.816  -4.478   2.948  0.00  0.00    +0.174 HD
BRANCH  11  17
ATOM     17  C   UNL     1       0.742  -0.511   1.242  0.00  0.00    +0.105 C 
BRANCH  17  19
ATOM     18  C   UNL     1      -0.019   1.526   0.010  0.00  0.00    +0.005 C 
ATOM     19  C   UNL     1       0.002  -0.004   0.002  0.00  0.00    +0.015 C 
ENDBRANCH  17  19
ENDBRANCH  11  17
ENDBRANCH   7  14
ENDBRANCH   1   8
BRANCH   4  20
ATOM     20  S   UNL     1      -1.809  -9.061  -3.328  0.00  0.00    +0.061 S 
ATOM     21  O   UNL     1      -2.134 -10.348  -2.820  0.00  0.00    -0.153 OA
ATOM     22  O   UNL     1      -2.786  -8.194  -3.887  0.00  0.00    -0.153 OA
BRANCH  20  23
ATOM     23  N   UNL     1      -0.657  -9.290  -4.495  0.00  0.00    -0.177 NA
ATOM     24  C   UNL     1      -0.369  -8.372  -5.607  0.00  0.00    +0.109 C 
ATOM     25  C   UNL     1       0.758  -9.009  -6.447  0.00  0.00    +0.018 C 
ATOM     26  C   UNL     1       0.653 -10.514  -6.085  0.00  0.00    +0.018 C 
ATOM     27  C   UNL     1       0.255 -10.445  -4.588  0.00  0.00    +0.109 C 
ENDBRANCH  20  23
ENDBRANCH   4  20
TORSDOF 6
