REMARK  Name = ZINC20598392
REMARK  4 active torsions:
REMARK  status: ('A' for Active; 'I' for Inactive)
REMARK    1  A    between atoms: C_6  and  C_7
REMARK    2  A    between atoms: C_9  and  C_12
REMARK    3  A    between atoms: C_12  and  N_13
REMARK    4  A    between atoms: C_17  and  C_19
REMARK                            x       y       z     vdW  Elec       q    Type
REMARK                         _______ _______ _______ _____ _____    ______ ____
ROOT
ATOM      1  N   UNL     1       6.471   4.365  -1.420  0.00  0.00    +0.392 N 
ATOM      2  C   UNL     1       6.239   5.672  -2.061  0.00  0.00    -0.077 C 
ATOM      3  C   UNL     1       7.605   6.184  -2.564  0.00  0.00    -0.020 C 
ATOM      4  C   UNL     1       8.443   4.884  -2.684  0.00  0.00    -0.010 C 
ATOM      5  C   UNL     1       7.916   4.060  -1.482  0.00  0.00    -0.000 C 
ATOM      6  H   UNL     1       5.902   3.587  -1.950  0.00  0.00    -0.080 HD
ENDROOT
BRANCH   5   7
ATOM      7  C   UNL     1       8.132   2.588  -1.721  0.00  0.00    +0.095 A 
ATOM      8  N   UNL     1       9.251   1.897  -1.370  0.00  0.00    -0.234 NA
ATOM      9  H   UNL     1       6.311   2.184  -2.646  0.00  0.00    +0.167 HD
ATOM     10  C   UNL     1       9.057   0.583  -1.748  0.00  0.00    +0.090 A 
ATOM     11  C   UNL     1       9.821  -0.572  -1.652  0.00  0.00    +0.050 A 
ATOM     12  C   UNL     1       9.323  -1.762  -2.142  0.00  0.00    +0.043 A 
ATOM     13  C   UNL     1       8.066  -1.810  -2.730  0.00  0.00    +0.022 A 
ATOM     14  C   UNL     1       7.303  -0.682  -2.835  0.00  0.00    +0.029 A 
ATOM     15  C   UNL     1       7.785   0.534  -2.342  0.00  0.00    +0.066 A 
ATOM     16  N   UNL     1       7.276   1.792  -2.292  0.00  0.00    -0.343 N 
ATOM     17 CL   UNL     1      10.276  -3.209  -2.025  0.00  0.00    -0.083 Cl
ENDBRANCH   5   7
BRANCH   1  18
ATOM     18  C   UNL     1       5.993   4.368  -0.031  0.00  0.00    +0.023 C 
BRANCH  18  21
ATOM     19  C   UNL     1       2.427   3.915  -0.005  0.00  0.00    +0.202 A 
ATOM     20  N   UNL     1       3.674   3.391  -0.015  0.00  0.00    -0.193 NA
ATOM     21  C   UNL     1       4.487   4.418  -0.018  0.00  0.00    +0.211 A 
ATOM     22  O   UNL     1       3.729   5.520  -0.001  0.00  0.00    -0.340 OA
ATOM     23  N   UNL     1       2.555   5.216   0.006  0.00  0.00    -0.056 NA
BRANCH  19  29
ATOM     24  C   UNL     1       1.171   1.762  -0.015  0.00  0.00    +0.015 A 
ATOM     25  C   UNL     1      -0.015   1.056  -0.012  0.00  0.00    +0.050 A 
ATOM     26  C   UNL     1      -1.227   1.729  -0.002  0.00  0.00    +0.166 A 
ATOM     27  C   UNL     1      -1.250   3.123   0.016  0.00  0.00    +0.167 A 
ATOM     28  C   UNL     1      -0.065   3.834   0.013  0.00  0.00    +0.061 A 
ATOM     29  C   UNL     1       1.153   3.155  -0.002  0.00  0.00    +0.026 A 
ATOM     30  O   UNL     1      -2.552   3.537   0.030  0.00  0.00    -0.453 OA
ATOM     31  C   UNL     1      -3.316   2.387   0.439  0.00  0.00    +0.466 C 
ATOM     32  O   UNL     1      -2.513   1.272   0.009  0.00  0.00    -0.453 OA
ENDBRANCH  19  29
ENDBRANCH  18  21
ENDBRANCH   1  18
TORSDOF 4
