REMARK  Name = ZINC63513798
REMARK  7 active torsions:
REMARK  status: ('A' for Active; 'I' for Inactive)
REMARK    1  A    between atoms: C_4  and  C_7
REMARK    2  A    between atoms: C_7  and  N_8
REMARK    3  A    between atoms: N_18  and  C_23
REMARK    4  A    between atoms: C_23  and  C_24
REMARK    5  A    between atoms: N_26  and  C_27
REMARK    6  A    between atoms: C_27  and  C_28
REMARK    7  A    between atoms: C_28  and  C_29
REMARK                            x       y       z     vdW  Elec       q    Type
REMARK                         _______ _______ _______ _____ _____    ______ ____
ROOT
ATOM      1  N   UNL     1       4.090  -1.056   1.334  0.00  0.00    -0.310 N 
ATOM      2  C   UNL     1       4.823  -0.244   2.210  0.00  0.00    +0.038 A 
ATOM      3  C   UNL     1       5.481   0.957   1.974  0.00  0.00    +0.024 A 
ATOM      4  C   UNL     1       6.168   1.590   2.991  0.00  0.00    +0.002 A 
ATOM      5  C   UNL     1       6.208   1.037   4.259  0.00  0.00    +0.001 A 
ATOM      6  C   UNL     1       5.555  -0.150   4.517  0.00  0.00    +0.010 A 
ATOM      7  C   UNL     1       4.850  -0.798   3.501  0.00  0.00    +0.003 A 
ATOM      8  C   UNL     1       4.048  -2.021   3.483  0.00  0.00    +0.006 C 
ATOM      9  C   UNL     1       3.559  -2.802   4.451  0.00  0.00    +0.094 C 
ATOM     10  N   UNL     1       2.734  -3.836   3.966  0.00  0.00    -0.268 N 
ATOM     11  N   UNL     1       1.840  -3.485   2.927  0.00  0.00    -0.212 N 
ATOM     12  C   UNL     1       2.309  -2.684   1.924  0.00  0.00    +0.257 C 
ATOM     13  O   UNL     1       1.598  -2.304   1.018  0.00  0.00    -0.272 OA
ATOM     14  C   UNL     1       3.762  -2.301   2.015  0.00  0.00    +0.194 C 
ATOM     15  H   UNL     1       2.777  -4.736   4.324  0.00  0.00    +0.170 HD
ENDROOT
BRANCH   1  16
ATOM     16  C   UNL     1       3.711  -0.707  -0.038  0.00  0.00    +0.141 C 
BRANCH  16  20
ATOM     17  C   UNL     1       6.572  -2.329  -2.764  0.00  0.00    +0.000 A 
ATOM     18  C   UNL     1       5.521  -3.110  -2.319  0.00  0.00    +0.000 A 
ATOM     19  C   UNL     1       4.596  -2.585  -1.437  0.00  0.00    +0.005 A 
ATOM     20  C   UNL     1       4.721  -1.280  -0.999  0.00  0.00    -0.030 A 
ATOM     21  C   UNL     1       5.772  -0.499  -1.443  0.00  0.00    +0.005 A 
ATOM     22  C   UNL     1       6.697  -1.024  -2.326  0.00  0.00    +0.000 A 
ENDBRANCH  16  20
ENDBRANCH   1  16
BRANCH  11  23
ATOM     23  C   UNL     1       0.456  -3.966   2.926  0.00  0.00    +0.226 C 
BRANCH  23  24
ATOM     24  C   UNL     1       0.381  -5.281   2.194  0.00  0.00    +0.232 C 
ATOM     25  O   UNL     1       1.385  -5.769   1.719  0.00  0.00    -0.274 OA
ATOM     26  N   UNL     1      -0.801  -5.915   2.066  0.00  0.00    -0.314 N 
ATOM     27  H   UNL     1      -1.604  -5.524   2.445  0.00  0.00    +0.149 HD
BRANCH  26  28
ATOM     28  C   UNL     1      -0.874  -7.193   1.354  0.00  0.00    +0.108 C 
BRANCH  28  29
ATOM     29  C   UNL     1      -2.319  -7.695   1.353  0.00  0.00    +0.052 C 
BRANCH  29  30
ATOM     30  C   UNL     1      -2.394  -9.010   0.621  0.00  0.00    -0.040 C 
ATOM     31  C   UNL     1      -2.351 -10.247   1.166  0.00  0.00    -0.001 A 
ATOM     32  C   UNL     1      -2.226 -10.721   2.549  0.00  0.00    +0.010 A 
ATOM     33  C   UNL     1      -2.211 -12.052   2.788  0.00  0.00    +0.001 A 
ATOM     34  C   UNL     1      -2.312 -12.988   1.750  0.00  0.00    +0.002 A 
ATOM     35  C   UNL     1      -2.429 -12.630   0.454  0.00  0.00    +0.026 A 
ATOM     36  C   UNL     1      -2.456 -11.256   0.087  0.00  0.00    +0.043 A 
ATOM     37  N   UNL     1      -2.560 -10.665  -1.078  0.00  0.00    -0.380 N 
ATOM     38  C   UNL     1      -2.539  -9.213  -0.871  0.00  0.00    +0.144 C 
ATOM     39  H   UNL     1      -2.642 -11.113  -1.935  0.00  0.00    +0.160 HD
ENDBRANCH  29  30
ENDBRANCH  28  29
ENDBRANCH  26  28
ENDBRANCH  23  24
ENDBRANCH  11  23
TORSDOF 7
