REMARK  Name = ZINC15805839
REMARK  11 active torsions:
REMARK  status: ('A' for Active; 'I' for Inactive)
REMARK    1  A    between atoms: C_1  and  C_2
REMARK    2  A    between atoms: C_2  and  C_4
REMARK    3  A    between atoms: C_2  and  O_19
REMARK    4  A    between atoms: N_6  and  C_7
REMARK    5  A    between atoms: C_7  and  C_8
REMARK    6  A    between atoms: C_8  and  C_9
REMARK    7  A    between atoms: C_12  and  S_15
REMARK    8  A    between atoms: S_15  and  N_18
REMARK    9  A    between atoms: O_19  and  C_20
REMARK   10  A    between atoms: C_20  and  C_22
REMARK   11  A    between atoms: C_22  and  C_23
REMARK                            x       y       z     vdW  Elec       q    Type
REMARK                         _______ _______ _______ _____ _____    ______ ____
ROOT
ATOM      1  C   UNL     1      -0.268   1.258  -2.409  0.00  0.00    +0.254 C 
ATOM      2  O   UNL     1       0.726   0.575  -2.534  0.00  0.00    -0.272 OA
ATOM      3  N   UNL     1      -0.721   1.571  -1.179  0.00  0.00    -0.312 N 
ATOM      4  H   UNL     1      -1.516   2.118  -1.079  0.00  0.00    +0.149 HD
ENDROOT
BRANCH   1   6
ATOM      5  C   UNL     1      -2.432   1.228  -3.619  0.00  0.00    +0.062 C 
ATOM      6  C   UNL     1      -0.997   1.758  -3.630  0.00  0.00    +0.258 C 
BRANCH   6   7
ATOM      7  O   UNL     1      -0.317   1.289  -4.825  0.00  0.00    -0.452 OA
BRANCH   7   8
ATOM      8  C   UNL     1      -0.396   2.068  -5.915  0.00  0.00    +0.312 C 
ATOM      9  O   UNL     1      -1.013   3.106  -5.873  0.00  0.00    -0.250 OA
BRANCH   8  10
ATOM     10  C   UNL     1       0.284   1.647  -7.192  0.00  0.00    +0.155 C 
BRANCH  10  11
ATOM     11  C   UNL     1       0.044   2.687  -8.256  0.00  0.00    -0.037 A 
ATOM     12  C   UNL     1      -1.056   2.585  -9.087  0.00  0.00    +0.005 A 
ATOM     13  C   UNL     1      -1.279   3.541 -10.059  0.00  0.00    +0.015 A 
ATOM     14  C   UNL     1      -0.396   4.595 -10.208  0.00  0.00    +0.018 A 
ATOM     15  C   UNL     1       0.708   4.694  -9.380  0.00  0.00    +0.015 A 
ATOM     16  C   UNL     1       0.927   3.740  -8.404  0.00  0.00    +0.005 A 
ATOM     17 BR   UNL     1      -0.697   5.900 -11.543  0.00  0.00    -0.050 Br
ENDBRANCH  10  11
ENDBRANCH   8  10
ENDBRANCH   7   8
ENDBRANCH   6   7
ENDBRANCH   1   6
BRANCH   3  18
ATOM     18  C   UNL     1      -0.013   1.086   0.008  0.00  0.00    +0.109 C 
BRANCH  18  19
ATOM     19  C   UNL     1      -0.729   1.579   1.267  0.00  0.00    +0.054 C 
BRANCH  19  20
ATOM     20  C   UNL     1       0.000   1.080   2.488  0.00  0.00    -0.046 A 
ATOM     21  C   UNL     1      -0.347  -0.133   3.052  0.00  0.00    +0.005 A 
ATOM     22  C   UNL     1       0.324  -0.593   4.170  0.00  0.00    +0.029 A 
ATOM     23  C   UNL     1       1.337   0.164   4.728  0.00  0.00    +0.105 A 
ATOM     24  C   UNL     1       1.681   1.380   4.166  0.00  0.00    +0.029 A 
ATOM     25  C   UNL     1       1.012   1.838   3.046  0.00  0.00    +0.005 A 
BRANCH  23  26
ATOM     26  S   UNL     1       2.190  -0.420   6.154  0.00  0.00    +0.056 S 
ATOM     27  O   UNL     1       2.048  -1.834   6.162  0.00  0.00    -0.153 OA
ATOM     28  O   UNL     1       3.459   0.218   6.158  0.00  0.00    -0.153 OA
BRANCH  26  29
ATOM     29  N   UNL     1       1.372   0.145   7.479  0.00  0.00    -0.204 NA
ATOM     30  H   UNL     1       1.375  -0.365   8.304  0.00  0.00    +0.144 HD
ATOM     31  H   UNL     1       0.891   0.986   7.430  0.00  0.00    +0.144 HD
ENDBRANCH  26  29
ENDBRANCH  23  26
ENDBRANCH  19  20
ENDBRANCH  18  19
ENDBRANCH   3  18
TORSDOF 10
