REMARK  Name = ZINC24890760
REMARK  8 active torsions:
REMARK  status: ('A' for Active; 'I' for Inactive)
REMARK    1  A    between atoms: C_4  and  C_7
REMARK    2  A    between atoms: C_7  and  C_8
REMARK    3  A    between atoms: C_8  and  N_9
REMARK    4  A    between atoms: C_10  and  C_23
REMARK    5  A    between atoms: C_13  and  S_14
REMARK    6  A    between atoms: S_14  and  C_15
REMARK    7  A    between atoms: C_15  and  C_16
REMARK    8  A    between atoms: C_16  and  C_17
REMARK                            x       y       z     vdW  Elec       q    Type
REMARK                         _______ _______ _______ _____ _____    ______ ____
ROOT
ATOM      1  N   UNL     1       5.421  -1.685  -1.680  0.00  0.00    -0.302 N 
ATOM      2  C   UNL     1       5.613  -3.022  -1.419  0.00  0.00    +0.165 A 
ATOM      3  N   UNL     1       6.907  -3.210  -1.305  0.00  0.00    -0.128 NA
ATOM      4  N   UNL     1       7.529  -2.098  -1.475  0.00  0.00    -0.122 NA
ATOM      5  C   UNL     1       6.669  -1.133  -1.713  0.00  0.00    +0.192 A 
ENDROOT
BRANCH   2   6
ATOM      6  C   UNL     1       4.561  -4.053  -1.291  0.00  0.00    +0.019 A 
ATOM      7  C   UNL     1       3.242  -3.679  -1.032  0.00  0.00    +0.012 A 
ATOM      8  C   UNL     1       2.264  -4.645  -0.918  0.00  0.00    +0.016 A 
ATOM      9  C   UNL     1       2.591  -5.984  -1.051  0.00  0.00    +0.018 A 
ATOM     10  C   UNL     1       3.899  -6.362  -1.302  0.00  0.00    +0.016 A 
ATOM     11  C   UNL     1       4.885  -5.405  -1.423  0.00  0.00    +0.012 A 
ATOM     12 BR   UNL     1       1.245  -7.303  -0.886  0.00  0.00    -0.050 Br
ENDBRANCH   2   6
BRANCH   1  13
ATOM     13  C   UNL     1       4.143  -0.999  -1.885  0.00  0.00    +0.130 C 
BRANCH  13  14
ATOM     14  C   UNL     1       3.660  -0.412  -0.557  0.00  0.00    +0.057 C 
BRANCH  14  18
ATOM     15  C   UNL     1      -0.066   1.590  -1.158  0.00  0.00    +0.000 A 
ATOM     16  C   UNL     1       1.122   2.283  -1.297  0.00  0.00    +0.000 A 
ATOM     17  C   UNL     1       2.328   1.635  -1.103  0.00  0.00    +0.004 A 
ATOM     18  C   UNL     1       2.345   0.294  -0.769  0.00  0.00    -0.046 A 
ATOM     19  C   UNL     1       1.158  -0.400  -0.629  0.00  0.00    +0.004 A 
ATOM     20  C   UNL     1      -0.048   0.248  -0.824  0.00  0.00    +0.000 A 
ENDBRANCH  14  18
ENDBRANCH  13  14
ENDBRANCH   1  13
BRANCH   5  21
ATOM     21  S   UNL     1       7.056   0.559  -2.015  0.00  0.00    -0.086 S 
BRANCH  21  22
ATOM     22  C   UNL     1       8.861   0.496  -1.898  0.00  0.00    +0.086 C 
BRANCH  22  23
ATOM     23  C   UNL     1       9.437   1.894  -2.133  0.00  0.00    +0.107 C 
BRANCH  23  24
ATOM     24  C   UNL     1      10.940   1.840  -2.035  0.00  0.00    +0.221 C 
ATOM     25  O   UNL     1      11.495   0.788  -1.802  0.00  0.00    -0.275 OA
ATOM     26  N   UNL     1      11.666   2.962  -2.208  0.00  0.00    -0.240 N 
ATOM     27  C   UNL     1      13.010   2.915  -2.121  0.00  0.00    +0.303 C 
ATOM     28  O   UNL     1      13.567   1.860  -1.887  0.00  0.00    -0.253 OA
ATOM     29  N   UNL     1      13.737   4.037  -2.294  0.00  0.00    -0.313 N 
ATOM     30  H   UNL     1      11.162   3.917  -2.420  0.00  0.00    +0.159 HD
ATOM     31  H   UNL     1      14.834   3.998  -2.223  0.00  0.00    +0.146 HD
ATOM     32  H   UNL     1      13.233   4.991  -2.506  0.00  0.00    +0.146 HD
ENDBRANCH  23  24
ENDBRANCH  22  23
ENDBRANCH  21  22
ENDBRANCH   5  21
TORSDOF 8
