REMARK  Name = ZINC36490812
REMARK  10 active torsions:
REMARK  status: ('A' for Active; 'I' for Inactive)
REMARK    1  A    between atoms: C_1  and  C_2
REMARK    2  A    between atoms: C_2  and  C_3
REMARK    3  A    between atoms: C_3  and  C_4
REMARK    4  A    between atoms: C_4  and  N_5
REMARK    5  A    between atoms: C_6  and  C_8
REMARK    6  A    between atoms: C_8  and  C_10
REMARK    7  A    between atoms: C_8  and  N_20
REMARK    8  A    between atoms: C_12  and  N_17
REMARK    9  A    between atoms: N_20  and  C_21
REMARK   10  A    between atoms: C_27  and  C_29
REMARK                            x       y       z     vdW  Elec       q    Type
REMARK                         _______ _______ _______ _____ _____    ______ ____
ROOT
ATOM      1  C   UNL     1      -4.234  -4.314   0.256  0.00  0.00    +0.194 C 
ENDROOT
BRANCH   1   2
ATOM      2  C   UNL     1      -4.905  -3.666  -0.927  0.00  0.00    +0.002 A 
ATOM      3  C   UNL     1      -4.217  -2.744  -1.693  0.00  0.00    +0.040 A 
ATOM      4  C   UNL     1      -4.833  -2.148  -2.778  0.00  0.00    +0.127 A 
ATOM      5  C   UNL     1      -6.138  -2.474  -3.098  0.00  0.00    +0.034 A 
ATOM      6  C   UNL     1      -6.827  -3.396  -2.333  0.00  0.00    +0.022 A 
ATOM      7  C   UNL     1      -6.209  -3.997  -1.250  0.00  0.00    +0.047 A 
ATOM      8 CL   UNL     1      -7.072  -5.160  -0.293  0.00  0.00    -0.083 Cl
BRANCH   4   9
ATOM      9  N   UNL     1      -4.095  -1.161  -3.597  0.00  0.00    +0.056 N 
ATOM     10  O   UNL     1      -2.954  -0.875  -3.318  0.00  0.00    -0.126 OA
ATOM     11  O   UNL     1      -4.634  -0.640  -4.546  0.00  0.00    -0.126 OA
ENDBRANCH   4   9
ENDBRANCH   1   2
BRANCH   1  13
ATOM     12  N   UNL     1      -2.526  -2.568   0.646  0.00  0.00    -0.313 N 
ATOM     13  C   UNL     1      -2.802  -3.850   0.337  0.00  0.00    +0.238 C 
ATOM     14  O   UNL     1      -1.899  -4.631   0.125  0.00  0.00    -0.273 OA
ATOM     15  H   UNL     1      -3.247  -1.926   0.743  0.00  0.00    +0.149 HD
BRANCH  12  16
ATOM     16  C   UNL     1      -1.137  -2.143   0.836  0.00  0.00    +0.104 C 
BRANCH  16  17
ATOM     17  C   UNL     1      -1.101  -0.652   1.176  0.00  0.00    +0.018 C 
BRANCH  17  19
ATOM     18  C   UNL     1       0.385   1.283   1.714  0.00  0.00    +0.004 C 
ATOM     19  C   UNL     1       0.350  -0.208   1.374  0.00  0.00    -0.002 C 
ENDBRANCH  17  19
ENDBRANCH  16  17
ENDBRANCH  12  16
ENDBRANCH   1  13
BRANCH   1  20
ATOM     20  N   UNL     1      -4.267  -5.770   0.098  0.00  0.00    -0.281 N 
ATOM     21  C   UNL     1      -4.842  -6.537   1.046  0.00  0.00    +0.237 C 
ATOM     22  O   UNL     1      -5.365  -6.020   2.010  0.00  0.00    -0.274 OA
BRANCH  21  23
ATOM     23  C   UNL     1      -4.835  -8.038   0.907  0.00  0.00    +0.159 C 
ATOM     24  C   UNL     1      -5.872  -8.482  -0.148  0.00  0.00    +0.041 C 
ATOM     25  C   UNL     1      -7.113  -8.768   0.730  0.00  0.00    +0.098 C 
ATOM     26  C   UNL     1      -6.537  -9.081   2.094  0.00  0.00    +0.214 C 
ATOM     27  O   UNL     1      -7.140  -9.626   2.994  0.00  0.00    -0.276 OA
ATOM     28  N   UNL     1      -5.258  -8.666   2.164  0.00  0.00    -0.304 N 
ATOM     29  H   UNL     1      -4.690  -8.770   2.943  0.00  0.00    +0.149 HD
ENDBRANCH  21  23
BRANCH  20  30
ATOM     30  C   UNL     1      -3.676  -6.393  -1.089  0.00  0.00    +0.077 C 
ATOM     31  C   UNL     1      -2.362  -7.077  -0.705  0.00  0.00    +0.022 C 
ATOM     32  C   UNL     1      -1.744  -7.727  -1.944  0.00  0.00    +0.002 C 
ATOM     33  C   UNL     1      -1.471  -6.654  -3.000  0.00  0.00    +0.000 C 
ATOM     34  C   UNL     1      -2.784  -5.969  -3.384  0.00  0.00    +0.002 C 
ATOM     35  C   UNL     1      -3.402  -5.319  -2.144  0.00  0.00    +0.022 C 
ENDBRANCH  20  30
ENDBRANCH   1  20
TORSDOF 9
