REMARK  Name = ZINC09473148
REMARK  12 active torsions:
REMARK  status: ('A' for Active; 'I' for Inactive)
REMARK    1  A    between atoms: C_1  and  C_2
REMARK    2  A    between atoms: C_5  and  C_8
REMARK    3  A    between atoms: C_8  and  N_9
REMARK    4  A    between atoms: C_10  and  C_12
REMARK    5  A    between atoms: C_12  and  S_13
REMARK    6  A    between atoms: S_13  and  C_14
REMARK    7  A    between atoms: N_24  and  C_25
REMARK    8  A    between atoms: C_25  and  C_26
REMARK    9  A    between atoms: C_26  and  C_27
REMARK   10  A    between atoms: C_27  and  C_28
REMARK   11  A    between atoms: N_30  and  C_31
REMARK   12  A    between atoms: C_31  and  C_32
REMARK                            x       y       z     vdW  Elec       q    Type
REMARK                         _______ _______ _______ _____ _____    ______ ____
ROOT
ATOM      1  C   UNL     1      -1.119  -2.036   0.001  0.00  0.00    +0.173 A 
ATOM      2  N   UNL     1      -1.136  -0.726   0.009  0.00  0.00    -0.223 NA
ATOM      3  C   UNL     1       0.002  -0.004   0.002  0.00  0.00    +0.079 A 
ATOM      4  C   UNL     1      -0.017   1.394   0.010  0.00  0.00    +0.028 A 
ATOM      5  C   UNL     1       1.161   2.086   0.002  0.00  0.00    +0.002 A 
ATOM      6  C   UNL     1       2.381   1.422  -0.013  0.00  0.00    +0.001 A 
ATOM      7  C   UNL     1       2.432   0.055  -0.021  0.00  0.00    +0.015 A 
ATOM      8  C   UNL     1       1.245  -0.677  -0.013  0.00  0.00    +0.065 A 
ATOM      9  C   UNL     1       1.239  -2.146  -0.022  0.00  0.00    +0.262 A 
ATOM     10  O   UNL     1       2.277  -2.782  -0.035  0.00  0.00    -0.267 OA
ATOM     11  N   UNL     1       0.036  -2.766  -0.014  0.00  0.00    -0.287 N 
ENDROOT
BRANCH   1  12
ATOM     12  S   UNL     1      -2.656  -2.897   0.012  0.00  0.00    -0.078 S 
BRANCH  12  13
ATOM     13  C   UNL     1      -3.801  -1.496   0.031  0.00  0.00    +0.173 C 
BRANCH  13  15
ATOM     14  N   UNL     1      -6.248  -1.135   0.057  0.00  0.00    -0.311 N 
ATOM     15  C   UNL     1      -5.219  -2.005   0.042  0.00  0.00    +0.224 C 
ATOM     16  O   UNL     1      -5.434  -3.199   0.038  0.00  0.00    -0.275 OA
ATOM     17  H   UNL     1      -6.076  -0.180   0.061  0.00  0.00    +0.149 HD
BRANCH  14  18
ATOM     18  C   UNL     1      -7.627  -1.631   0.068  0.00  0.00    +0.139 C 
BRANCH  18  23
ATOM     19  C   UNL     1     -11.283   2.844   0.129  0.00  0.00    +0.044 C 
ATOM     20  C   UNL     1     -10.329   1.677   0.113  0.00  0.00    -0.050 A 
ATOM     21  C   UNL     1      -9.903   1.149  -1.091  0.00  0.00    +0.003 A 
ATOM     22  C   UNL     1      -9.029   0.078  -1.106  0.00  0.00    +0.005 A 
ATOM     23  C   UNL     1      -8.580  -0.464   0.084  0.00  0.00    -0.030 A 
ATOM     24  C   UNL     1      -9.010   0.061   1.288  0.00  0.00    +0.005 A 
ATOM     25  C   UNL     1      -9.881   1.135   1.303  0.00  0.00    +0.003 A 
ENDBRANCH  18  23
ENDBRANCH  14  18
ENDBRANCH  13  15
ENDBRANCH  12  13
ENDBRANCH   1  12
BRANCH  11  26
ATOM     26  C   UNL     1      -0.028  -4.229  -0.022  0.00  0.00    +0.128 C 
BRANCH  26  27
ATOM     27  C   UNL     1      -0.037  -4.747   1.418  0.00  0.00    +0.031 C 
BRANCH  27  28
ATOM     28  C   UNL     1      -0.104  -6.276   1.410  0.00  0.00    +0.097 C 
BRANCH  28  29
ATOM     29  C   UNL     1      -0.113  -6.785   2.828  0.00  0.00    +0.213 C 
ATOM     30  O   UNL     1      -0.070  -6.003   3.754  0.00  0.00    -0.276 OA
ATOM     31  N   UNL     1      -0.169  -8.111   3.067  0.00  0.00    -0.313 N 
ATOM     32  H   UNL     1      -0.203  -8.736   2.327  0.00  0.00    +0.149 HD
BRANCH  31  33
ATOM     33  C   UNL     1      -0.177  -8.606   4.446  0.00  0.00    +0.135 C 
BRANCH  33  34
ATOM     34  C   UNL     1      -0.245 -10.135   4.438  0.00  0.00    +0.135 C 
ATOM     35  C   UNL     1      -0.381 -10.675   5.879  0.00  0.00    +0.035 C 
ATOM     36  C   UNL     1       0.472 -11.963   5.879  0.00  0.00    +0.031 C 
ATOM     37  C   UNL     1       1.022 -12.050   4.438  0.00  0.00    +0.160 C 
ATOM     38  O   UNL     1       0.997 -10.690   3.951  0.00  0.00    -0.375 OA
ENDBRANCH  33  34
ENDBRANCH  31  33
ENDBRANCH  28  29
ENDBRANCH  27  28
ENDBRANCH  26  27
ENDBRANCH  11  26
TORSDOF 11
