REMARK  Name = ZINC09514288
REMARK  13 active torsions:
REMARK  status: ('A' for Active; 'I' for Inactive)
REMARK    1  A    between atoms: C_1  and  C_2
REMARK    2  A    between atoms: C_5  and  C_29
REMARK    3  A    between atoms: C_6  and  O_8
REMARK    4  A    between atoms: O_8  and  C_9
REMARK    5  A    between atoms: C_9  and  C_10
REMARK    6  A    between atoms: N_12  and  N_13
REMARK    7  A    between atoms: C_14  and  C_16
REMARK    8  A    between atoms: C_16  and  N_17
REMARK    9  A    between atoms: N_17  and  S_18
REMARK   10  A    between atoms: S_18  and  C_21
REMARK   11  A    between atoms: C_24  and  C_27
REMARK   12  A    between atoms: C_29  and  C_30
REMARK   13  A    between atoms: C_29  and  C_31
REMARK                            x       y       z     vdW  Elec       q    Type
REMARK                         _______ _______ _______ _____ _____    ______ ____
ROOT
ATOM      1  N   UNL     1      -0.966   1.736  -3.578  0.00  0.00    -0.233 N 
ATOM      2  C   UNL     1      -0.513   1.424  -4.808  0.00  0.00    +0.245 C 
ATOM      3  O   UNL     1       0.481   0.741  -4.933  0.00  0.00    -0.273 OA
ATOM      4  H   UNL     1      -1.761   2.283  -3.479  0.00  0.00    +0.173 HD
ENDROOT
BRANCH   1   7
ATOM      5  C   UNL     1      -0.742   1.585  -1.213  0.00  0.00    +0.267 C 
ATOM      6  O   UNL     1      -1.736   2.268  -1.088  0.00  0.00    -0.271 OA
ATOM      7  N   UNL     1      -0.288   1.272  -2.443  0.00  0.00    -0.232 N 
ATOM      8  H   UNL     1       0.507   0.726  -2.543  0.00  0.00    +0.173 HD
BRANCH   5   9
ATOM      9  C   UNL     1      -0.013   1.086   0.008  0.00  0.00    +0.326 C 
BRANCH   9  10
ATOM     10  O   UNL     1      -0.682   1.547   1.184  0.00  0.00    -0.482 OA
BRANCH  10  16
ATOM     11  C   UNL     1       2.775  -0.826   3.683  0.00  0.00    +0.044 C 
ATOM     12  C   UNL     1       1.534   0.027   3.637  0.00  0.00    -0.047 A 
ATOM     13  C   UNL     1       0.936   0.440   4.814  0.00  0.00    +0.004 A 
ATOM     14  C   UNL     1      -0.203   1.222   4.776  0.00  0.00    +0.008 A 
ATOM     15  C   UNL     1      -0.747   1.594   3.561  0.00  0.00    -0.003 A 
ATOM     16  C   UNL     1      -0.149   1.182   2.380  0.00  0.00    +0.125 A 
ATOM     17  C   UNL     1       0.991   0.392   2.421  0.00  0.00    +0.049 A 
BRANCH  15  18
ATOM     18  C   UNL     1      -1.988   2.448   3.520  0.00  0.00    +0.016 C 
ATOM     19  C   UNL     1      -3.132   1.718   4.229  0.00  0.00    +0.012 C 
ATOM     20  C   UNL     1      -1.717   3.777   4.226  0.00  0.00    +0.012 C 
ENDBRANCH  15  18
ENDBRANCH  10  16
ENDBRANCH   9  10
ENDBRANCH   5   9
ENDBRANCH   1   7
BRANCH   2  21
ATOM     21  C   UNL     1      -1.242   1.923  -6.029  0.00  0.00    +0.203 C 
BRANCH  21  22
ATOM     22  N   UNL     1      -0.556   1.450  -7.234  0.00  0.00    -0.181 NA
ATOM     23  H   UNL     1       0.345   1.096  -7.173  0.00  0.00    +0.149 HD
BRANCH  22  24
ATOM     24  S   UNL     1      -1.319   1.522  -8.703  0.00  0.00    +0.059 S 
ATOM     25  O   UNL     1      -0.398   1.024  -9.663  0.00  0.00    -0.153 OA
ATOM     26  O   UNL     1      -2.609   0.956  -8.518  0.00  0.00    -0.153 OA
BRANCH  24  27
ATOM     27  C   UNL     1      -1.566   3.226  -9.079  0.00  0.00    +0.105 A 
ATOM     28  C   UNL     1      -2.730   3.857  -8.679  0.00  0.00    +0.030 A 
ATOM     29  C   UNL     1      -2.928   5.192  -8.966  0.00  0.00    +0.021 A 
ATOM     30  C   UNL     1      -1.954   5.903  -9.671  0.00  0.00    +0.052 A 
ATOM     31  C   UNL     1      -0.784   5.258 -10.076  0.00  0.00    +0.021 A 
ATOM     32  C   UNL     1      -0.597   3.924  -9.777  0.00  0.00    +0.030 A 
BRANCH  30  33
ATOM     33  C   UNL     1      -2.155   7.288  -9.976  0.00  0.00    +0.099 C 
ATOM     34  N   UNL     1      -2.314   8.386 -10.219  0.00  0.00    -0.191 NA
ENDBRANCH  30  33
ENDBRANCH  24  27
ENDBRANCH  22  24
ENDBRANCH  21  22
ENDBRANCH   2  21
TORSDOF 10
