REMARK  Name = ZINC08846383
REMARK  9 active torsions:
REMARK  status: ('A' for Active; 'I' for Inactive)
REMARK    1  A    between atoms: C_1  and  C_2
REMARK    2  A    between atoms: C_2  and  O_3
REMARK    3  A    between atoms: O_3  and  C_4
REMARK    4  A    between atoms: C_7  and  C_12
REMARK    5  A    between atoms: C_9  and  O_10
REMARK    6  A    between atoms: O_10  and  C_11
REMARK    7  A    between atoms: C_19  and  N_33
REMARK    8  A    between atoms: C_20  and  C_31
REMARK    9  A    between atoms: C_21  and  C_23
REMARK                            x       y       z     vdW  Elec       q    Type
REMARK                         _______ _______ _______ _____ _____    ______ ____
ROOT
ATOM      1  C   UNL     1       1.106  -6.025  -1.841  0.00  0.00    +0.100 A 
ATOM      2  C   UNL     1       1.274  -6.964  -0.818  0.00  0.00    +0.054 A 
ATOM      3  C   UNL     1       1.333  -8.203  -1.388  0.00  0.00    +0.223 A 
ATOM      4  N   UNL     1       1.210  -8.047  -2.722  0.00  0.00    -0.246 N 
ATOM      5  H   UNL     1       1.217  -8.758  -3.382  0.00  0.00    +0.192 HD
ATOM      6  N   UNL     1       1.062  -6.677  -2.987  0.00  0.00    -0.171 NA
ATOM      7  O   UNL     1       1.490  -9.337  -0.660  0.00  0.00    -0.423 OA
ATOM      8  C   UNL     1       1.313  -9.252   0.674  0.00  0.00    +0.200 C 
ATOM      9  C   UNL     1       1.250  -8.084   1.352  0.00  0.00    +0.098 C 
ATOM     10  C   UNL     1       1.380  -6.745   0.669  0.00  0.00    +0.106 C 
ENDROOT
BRANCH  10  11
ATOM     11  C   UNL     1       2.717  -6.134   0.999  0.00  0.00    +0.019 A 
ATOM     12  C   UNL     1       3.884  -6.804   0.674  0.00  0.00    +0.129 A 
ATOM     13  C   UNL     1       5.112  -6.241   0.978  0.00  0.00    +0.039 A 
ATOM     14  C   UNL     1       5.172  -5.010   1.604  0.00  0.00    +0.004 A 
ATOM     15  C   UNL     1       4.007  -4.341   1.928  0.00  0.00    +0.020 A 
ATOM     16  C   UNL     1       2.779  -4.900   1.621  0.00  0.00    +0.048 A 
ATOM     17 CL   UNL     1       1.316  -4.056   2.022  0.00  0.00    -0.083 Cl
ATOM     18  F   UNL     1       3.825  -8.007   0.062  0.00  0.00    -0.205 F 
ENDBRANCH  10  11
BRANCH   1  22
ATOM     19  C   UNL     1       0.777  -1.811  -1.336  0.00  0.00    +0.162 A 
ATOM     20  C   UNL     1       0.242  -2.667  -0.386  0.00  0.00    +0.050 A 
ATOM     21  C   UNL     1       0.348  -4.034  -0.547  0.00  0.00    +0.014 A 
ATOM     22  C   UNL     1       0.992  -4.556  -1.667  0.00  0.00    +0.006 A 
ATOM     23  C   UNL     1       1.530  -3.696  -2.623  0.00  0.00    +0.059 A 
ATOM     24  C   UNL     1       1.417  -2.327  -2.460  0.00  0.00    +0.162 A 
BRANCH  24  25
ATOM     25  O   UNL     1       1.936  -1.486  -3.394  0.00  0.00    -0.491 OA
ATOM     26  C   UNL     1       2.578  -2.085  -4.521  0.00  0.00    +0.277 C 
ENDBRANCH  24  25
BRANCH  19  27
ATOM     27  O   UNL     1       0.671  -0.465  -1.174  0.00  0.00    -0.489 OA
BRANCH  27  29
ATOM     28  C   UNL     1      -0.019   1.526   0.010  0.00  0.00    +0.048 C 
ATOM     29  C   UNL     1       0.002  -0.004   0.002  0.00  0.00    +0.226 C 
ENDBRANCH  27  29
ENDBRANCH  19  27
ENDBRANCH   1  22
BRANCH   8  30
ATOM     30  N   UNL     1       1.188 -10.419   1.385  0.00  0.00    -0.328 N 
ATOM     31  H   UNL     1       1.228 -11.273   0.927  0.00  0.00    +0.145 HD
ATOM     32  H   UNL     1       1.059 -10.391   2.346  0.00  0.00    +0.145 HD
ENDBRANCH   8  30
BRANCH   9  33
ATOM     33  C   UNL     1       1.054  -8.119   2.770  0.00  0.00    +0.101 C 
ATOM     34  N   UNL     1       0.898  -8.146   3.895  0.00  0.00    -0.191 NA
ENDBRANCH   9  33
TORSDOF 7
