REMARK  Name = ZINC39795549
REMARK  6 active torsions:
REMARK  status: ('A' for Active; 'I' for Inactive)
REMARK    1  A    between atoms: C_1  and  C_2
REMARK    2  A    between atoms: C_10  and  S_14
REMARK    3  A    between atoms: S_14  and  C_15
REMARK    4  A    between atoms: C_15  and  C_16
REMARK    5  A    between atoms: N_18  and  C_19
REMARK    6  A    between atoms: C_20  and  C_27
REMARK                            x       y       z     vdW  Elec       q    Type
REMARK                         _______ _______ _______ _____ _____    ______ ____
ROOT
ATOM      1  C   UNL     1       8.436  -3.442  -0.841  0.00  0.00    +0.173 C 
ENDROOT
BRANCH   1   2
ATOM      2  C   UNL     1       9.726  -4.216  -0.753  0.00  0.00    +0.228 C 
ATOM      3  O   UNL     1      10.135  -4.593   0.324  0.00  0.00    -0.275 OA
ATOM      4  N   UNL     1      10.426  -4.488  -1.873  0.00  0.00    -0.279 N 
ATOM      5  H   UNL     1      10.099  -4.186  -2.735  0.00  0.00    +0.155 HD
BRANCH   4   6
ATOM      6  C   UNL     1      11.613  -5.200  -1.792  0.00  0.00    +0.084 A 
ATOM      7  C   UNL     1      12.459  -5.562  -2.824  0.00  0.00    +0.068 A 
ATOM      8  C   UNL     1      13.660  -6.317  -2.472  0.00  0.00    -0.023 A 
ATOM      9  C   UNL     1      13.786  -6.566  -1.156  0.00  0.00    -0.004 A 
ATOM     10  S   UNL     1      12.358  -5.812  -0.420  0.00  0.00    -0.077 S 
ATOM     11  C   UNL     1      15.034  -7.348  -0.850  0.00  0.00    +0.043 C 
ATOM     12  C   UNL     1      15.472  -7.934  -2.210  0.00  0.00    +0.010 C 
ATOM     13  C   UNL     1      14.858  -6.923  -3.200  0.00  0.00    +0.037 C 
BRANCH   7  14
ATOM     14  C   UNL     1      12.162  -5.205  -4.215  0.00  0.00    +0.244 C 
ATOM     15  O   UNL     1      12.571  -4.155  -4.674  0.00  0.00    -0.270 OA
ATOM     16  N   UNL     1      11.437  -6.040  -4.985  0.00  0.00    -0.325 N 
ATOM     17  H   UNL     1      11.110  -6.877  -4.619  0.00  0.00    +0.145 HD
ATOM     18  H   UNL     1      11.240  -5.804  -5.905  0.00  0.00    +0.145 HD
ENDBRANCH   7  14
ENDBRANCH   4   6
ENDBRANCH   1   2
BRANCH   1  19
ATOM     19  S   UNL     1       7.738  -3.240   0.821  0.00  0.00    -0.079 S 
BRANCH  19  28
ATOM     20  C   UNL     1      -0.019   1.526   0.010  0.00  0.00    +0.007 C 
ATOM     21  C   UNL     1       0.002  -0.004   0.002  0.00  0.00    -0.012 C 
ATOM     22  C   UNL     1       0.702  -0.489  -1.265  0.00  0.00    +0.008 C 
ATOM     23  C   UNL     1       2.123   0.085  -1.344  0.00  0.00    +0.033 C 
ATOM     24  C   UNL     1       2.809  -0.264  -0.025  0.00  0.00    -0.042 C 
ATOM     25  C   UNL     1       3.967  -0.912   0.081  0.00  0.00    +0.071 C 
ATOM     26  C   UNL     1       4.410  -1.346   1.435  0.00  0.00    +0.112 C 
ATOM     27  N   UNL     1       5.511  -2.025   1.629  0.00  0.00    -0.217 NA
ATOM     28  C   UNL     1       6.254  -2.329   0.553  0.00  0.00    +0.182 C 
ATOM     29  N   UNL     1       5.960  -1.999  -0.690  0.00  0.00    -0.151 NA
ATOM     30  C   UNL     1       4.869  -1.309  -1.053  0.00  0.00    +0.272 C 
ATOM     31  O   UNL     1       4.628  -1.025  -2.214  0.00  0.00    -0.268 OA
ATOM     32  S   UNL     1       3.169  -0.735   2.531  0.00  0.00    -0.097 S 
ATOM     33  C   UNL     1       2.124   0.119   1.288  0.00  0.00    +0.080 C 
ATOM     34  C   UNL     1       0.729  -0.504   1.254  0.00  0.00    +0.022 C 
ENDBRANCH  19  28
ENDBRANCH   1  19
TORSDOF 5
