REMARK  Name = ZINC09566543
REMARK  11 active torsions:
REMARK  status: ('A' for Active; 'I' for Inactive)
REMARK    1  A    between atoms: C_1  and  C_2
REMARK    2  A    between atoms: C_2  and  C_4
REMARK    3  A    between atoms: C_2  and  S_16
REMARK    4  A    between atoms: N_6  and  C_7
REMARK    5  A    between atoms: C_11  and  N_13
REMARK    6  A    between atoms: S_16  and  C_17
REMARK    7  A    between atoms: C_20  and  C_26
REMARK    8  A    between atoms: N_21  and  C_22
REMARK    9  A    between atoms: C_22  and  C_23
REMARK   10  A    between atoms: C_23  and  C_24
REMARK   11  A    between atoms: C_23  and  C_25
REMARK                            x       y       z     vdW  Elec       q    Type
REMARK                         _______ _______ _______ _____ _____    ______ ____
ROOT
ATOM      1  C   UNL     1      -0.020   1.532  -0.003  0.00  0.00    +0.029 C 
ATOM      2  C   UNL     1       0.003   0.002   0.000  0.00  0.00    +0.137 C 
ENDROOT
BRANCH   2   3
ATOM      3  C   UNL     1       0.707  -0.492  -1.237  0.00  0.00    +0.230 C 
ATOM      4  O   UNL     1       0.066  -0.791  -2.222  0.00  0.00    -0.274 OA
ATOM      5  N   UNL     1       2.051  -0.601  -1.250  0.00  0.00    -0.285 N 
ATOM      6  H   UNL     1       2.569  -0.298  -0.487  0.00  0.00    +0.155 HD
BRANCH   5   7
ATOM      7  C   UNL     1       2.698  -1.150  -2.362  0.00  0.00    +0.036 A 
ATOM      8  C   UNL     1       3.837  -1.925  -2.191  0.00  0.00    +0.023 A 
ATOM      9  C   UNL     1       4.474  -2.466  -3.291  0.00  0.00    +0.004 A 
ATOM     10  C   UNL     1       3.978  -2.236  -4.561  0.00  0.00    +0.033 A 
ATOM     11  C   UNL     1       2.844  -1.464  -4.735  0.00  0.00    +0.128 A 
ATOM     12  C   UNL     1       2.199  -0.925  -3.638  0.00  0.00    +0.056 A 
BRANCH  11  13
ATOM     13  N   UNL     1       2.317  -1.220  -6.096  0.00  0.00    +0.056 N 
ATOM     14  O   UNL     1       2.878  -1.695  -7.056  0.00  0.00    -0.126 OA
ATOM     15  O   UNL     1       1.325  -0.545  -6.248  0.00  0.00    -0.126 OA
ENDBRANCH  11  13
ENDBRANCH   5   7
ENDBRANCH   2   3
BRANCH   2  16
ATOM     16  S   UNL     1      -1.698  -0.627   0.019  0.00  0.00    -0.074 S 
BRANCH  16  17
ATOM     17  C   UNL     1      -2.332  -0.095   1.575  0.00  0.00    +0.193 A 
ATOM     18  N   UNL     1      -1.687   0.604   2.481  0.00  0.00    -0.122 NA
ATOM     19  N   UNL     1      -2.445   0.820   3.496  0.00  0.00    -0.125 NA
ATOM     20  C   UNL     1      -3.624   0.271   3.300  0.00  0.00    +0.200 A 
ATOM     21  N   UNL     1      -3.589  -0.327   2.060  0.00  0.00    -0.299 N 
BRANCH  20  22
ATOM     22  C   UNL     1      -4.766   0.296   4.228  0.00  0.00    +0.172 A 
ATOM     23  C   UNL     1      -4.905   1.122   5.303  0.00  0.00    +0.053 A 
ATOM     24  C   UNL     1      -6.140   0.804   5.900  0.00  0.00    +0.042 A 
ATOM     25  C   UNL     1      -6.689  -0.188   5.172  0.00  0.00    +0.196 A 
ATOM     26  O   UNL     1      -5.858  -0.489   4.159  0.00  0.00    -0.460 OA
ENDBRANCH  20  22
BRANCH  21  27
ATOM     27  C   UNL     1      -4.671  -1.061   1.400  0.00  0.00    +0.129 C 
BRANCH  27  28
ATOM     28  C   UNL     1      -4.588  -2.541   1.778  0.00  0.00    +0.003 C 
ATOM     29  C   UNL     1      -4.847  -2.700   3.277  0.00  0.00    +0.009 C 
ATOM     30  C   UNL     1      -5.640  -3.328   0.993  0.00  0.00    +0.009 C 
ENDBRANCH  27  28
ENDBRANCH  21  27
ENDBRANCH  16  17
ENDBRANCH   2  16
TORSDOF 8
