REMARK  Name = ZINC39710983
REMARK  9 active torsions:
REMARK  status: ('A' for Active; 'I' for Inactive)
REMARK    1  A    between atoms: C_1  and  C_2
REMARK    2  A    between atoms: C_4  and  C_36
REMARK    3  A    between atoms: C_9  and  C_14
REMARK    4  A    between atoms: C_14  and  C_16
REMARK    5  A    between atoms: C_14  and  N_26
REMARK    6  A    between atoms: N_21  and  C_22
REMARK    7  A    between atoms: C_22  and  C_23
REMARK    8  A    between atoms: C_22  and  C_24
REMARK    9  A    between atoms: C_22  and  C_25
REMARK                            x       y       z     vdW  Elec       q    Type
REMARK                         _______ _______ _______ _____ _____    ______ ____
ROOT
ATOM      1  C   UNL     1      -1.559  -6.389   3.141  0.00  0.00    +0.114 C 
ENDROOT
BRANCH   1  10
ATOM      2  C   UNL     1      -4.617  -0.699   6.187  0.00  0.00    +0.044 C 
ATOM      3  C   UNL     1      -3.717  -1.365   5.178  0.00  0.00    -0.050 A 
ATOM      4  C   UNL     1      -3.405  -0.695   3.995  0.00  0.00    +0.008 A 
ATOM      5  C   UNL     1      -2.601  -1.231   3.040  0.00  0.00    -0.028 A 
ATOM      6  C   UNL     1      -2.041  -2.510   3.213  0.00  0.00    +0.043 A 
ATOM      7  N   UNL     1      -1.253  -3.026   2.270  0.00  0.00    -0.284 N 
ATOM      8  C   UNL     1      -0.695  -4.220   2.368  0.00  0.00    +0.226 C 
ATOM      9  O   UNL     1       0.016  -4.638   1.474  0.00  0.00    -0.275 OA
ATOM     10  C   UNL     1      -0.943  -5.065   3.598  0.00  0.00    +0.119 C 
ATOM     11  C   UNL     1      -1.838  -4.483   4.674  0.00  0.00    -0.003 C 
ATOM     12  C   UNL     1      -2.353  -3.240   4.454  0.00  0.00    -0.006 A 
ATOM     13  C   UNL     1      -3.223  -2.602   5.443  0.00  0.00    +0.012 A 
ATOM     14  C   UNL     1      -2.308  -0.450   1.785  0.00  0.00    +0.046 C 
ATOM     15  H   UNL     1      -1.081  -2.500   1.473  0.00  0.00    +0.155 HD
ENDBRANCH   1  10
BRANCH   1  16
ATOM     16  N   UNL     1      -2.731  -6.118   2.297  0.00  0.00    -0.290 NA
ATOM     17  C   UNL     1      -3.403  -4.876   2.709  0.00  0.00    +0.090 C 
ATOM     18  C   UNL     1      -4.365  -4.453   1.600  0.00  0.00    +0.051 C 
ATOM     19  C   UNL     1      -5.240  -5.616   1.206  0.00  0.00    -0.042 A 
ATOM     20  C   UNL     1      -6.398  -5.359   0.489  0.00  0.00    +0.004 A 
ATOM     21  C   UNL     1      -7.225  -6.396   0.105  0.00  0.00    +0.000 A 
ATOM     22  C   UNL     1      -6.897  -7.697   0.438  0.00  0.00    +0.000 A 
ATOM     23  C   UNL     1      -5.745  -7.953   1.153  0.00  0.00    +0.005 A 
ATOM     24  C   UNL     1      -4.914  -6.912   1.542  0.00  0.00    -0.030 A 
ATOM     25  C   UNL     1      -3.673  -7.241   2.331  0.00  0.00    +0.120 C 
ENDBRANCH   1  16
BRANCH   1  26
ATOM     26  C   UNL     1      -0.526  -7.183   2.340  0.00  0.00    +0.214 C 
ATOM     27  N   UNL     1       0.760  -7.243   3.061  0.00  0.00    -0.226 N 
ATOM     28  N   UNL     1       1.693  -6.607   2.233  0.00  0.00    -0.064 NA
ATOM     29  N   UNL     1       1.196  -6.198   1.187  0.00  0.00    -0.061 NA
ATOM     30  N   UNL     1      -0.176  -6.477   1.093  0.00  0.00    -0.208 N 
ATOM     31  H   UNL     1       0.925  -7.641   3.930  0.00  0.00    +0.172 HD
BRANCH  30  32
ATOM     32  C   UNL     1      -1.077  -6.137  -0.011  0.00  0.00    +0.047 C 
ATOM     33  C   UNL     1      -1.665  -4.744   0.220  0.00  0.00    +0.033 C 
ATOM     34  C   UNL     1      -0.297  -6.149  -1.328  0.00  0.00    +0.033 C 
ATOM     35  C   UNL     1      -2.209  -7.164  -0.081  0.00  0.00    +0.033 C 
ENDBRANCH  30  32
ENDBRANCH   1  26
TORSDOF 4
