REMARK  Name = ZINC43909501
REMARK  9 active torsions:
REMARK  status: ('A' for Active; 'I' for Inactive)
REMARK    1  A    between atoms: C_1  and  C_2
REMARK    2  A    between atoms: C_2  and  O_3
REMARK    3  A    between atoms: O_3  and  C_4
REMARK    4  A    between atoms: C_7  and  C_9
REMARK    5  A    between atoms: C_10  and  C_28
REMARK    6  A    between atoms: C_11  and  C_27
REMARK    7  A    between atoms: C_13  and  N_14
REMARK    8  A    between atoms: C_15  and  C_17
REMARK    9  A    between atoms: C_22  and  N_23
REMARK                            x       y       z     vdW  Elec       q    Type
REMARK                         _______ _______ _______ _____ _____    ______ ____
ROOT
ATOM      1  C   UNL     1       2.353  -5.528  -4.383  0.00  0.00    +0.069 A 
ATOM      2  C   UNL     1       3.735  -5.886  -4.603  0.00  0.00    -0.027 A 
ATOM      3  C   UNL     1       4.106  -6.037  -5.888  0.00  0.00    -0.008 A 
ATOM      4  S   UNL     1       2.608  -5.699  -6.788  0.00  0.00    -0.078 S 
ATOM      5  C   UNL     1       1.562  -5.385  -5.516  0.00  0.00    +0.085 A 
ATOM      6  C   UNL     1       5.462  -6.403  -6.433  0.00  0.00    +0.052 C 
ATOM      7  C   UNL     1       4.703  -6.079  -3.464  0.00  0.00    +0.045 C 
ENDROOT
BRANCH   1  11
ATOM      8  C   UNL     1       1.346  -3.929  -1.229  0.00  0.00    +0.407 C 
ATOM      9  O   UNL     1       0.870  -4.868  -0.623  0.00  0.00    -0.226 OA
ATOM     10  N   UNL     1       1.844  -4.110  -2.469  0.00  0.00    -0.217 N 
ATOM     11  C   UNL     1       1.812  -5.332  -3.036  0.00  0.00    +0.255 C 
ATOM     12  O   UNL     1       1.335  -6.272  -2.429  0.00  0.00    -0.270 OA
ATOM     13  H   UNL     1       2.224  -3.360  -2.952  0.00  0.00    +0.161 HD
BRANCH   8  14
ATOM     14  O   UNL     1       1.378  -2.709  -0.662  0.00  0.00    -0.450 OA
BRANCH  14  16
ATOM     15  C   UNL     1       0.957  -1.141   1.128  0.00  0.00    +0.048 C 
ATOM     16  C   UNL     1       0.834  -2.590   0.654  0.00  0.00    +0.230 C 
ENDBRANCH  14  16
ENDBRANCH   8  14
ENDBRANCH   1  11
BRANCH   5  17
ATOM     17  N   UNL     1       0.218  -5.056  -5.580  0.00  0.00    -0.275 N 
ATOM     18  C   UNL     1      -0.396  -4.960  -6.775  0.00  0.00    +0.251 C 
ATOM     19  O   UNL     1       0.229  -5.162  -7.798  0.00  0.00    -0.270 OA
ATOM     20  H   UNL     1      -0.281  -4.895  -4.764  0.00  0.00    +0.156 HD
BRANCH  18  21
ATOM     21  C   UNL     1      -1.830  -4.608  -6.844  0.00  0.00    +0.069 A 
ATOM     22  C   UNL     1      -2.771  -5.360  -6.137  0.00  0.00    +0.035 A 
ATOM     23  C   UNL     1      -4.108  -5.026  -6.205  0.00  0.00    +0.042 A 
ATOM     24  C   UNL     1      -4.517  -3.948  -6.973  0.00  0.00    +0.022 A 
ATOM     25  C   UNL     1      -3.590  -3.201  -7.676  0.00  0.00    +0.035 A 
ATOM     26  C   UNL     1      -2.249  -3.520  -7.611  0.00  0.00    +0.138 A 
ATOM     27 CL   UNL     1      -5.280  -5.959  -5.327  0.00  0.00    -0.084 Cl
BRANCH  26  28
ATOM     28  N   UNL     1      -1.258  -2.714  -8.358  0.00  0.00    +0.057 N 
ATOM     29  O   UNL     1      -1.631  -1.851  -9.118  0.00  0.00    -0.126 OA
ATOM     30  O   UNL     1      -0.076  -2.919  -8.209  0.00  0.00    -0.126 OA
ENDBRANCH  26  28
ENDBRANCH  18  21
ENDBRANCH   5  17
TORSDOF 6
