REMARK  Name = ZINC38702057
REMARK  7 active torsions:
REMARK  status: ('A' for Active; 'I' for Inactive)
REMARK    1  A    between atoms: C_1  and  C_2
REMARK    2  A    between atoms: C_2  and  C_3
REMARK    3  A    between atoms: C_3  and  O_4
REMARK    4  A    between atoms: O_4  and  C_5
REMARK    5  A    between atoms: C_9  and  C_11
REMARK    6  A    between atoms: C_14  and  C_30
REMARK    7  A    between atoms: N_21  and  C_22
REMARK                            x       y       z     vdW  Elec       q    Type
REMARK                         _______ _______ _______ _____ _____    ______ ____
ROOT
ATOM      1  C   UNL     1       2.148  -6.065   3.443  0.00  0.00    +0.142 C 
ATOM      2  C   UNL     1       3.512  -6.538   3.022  0.00  0.00    +0.035 A 
ATOM      3  C   UNL     1       4.457  -6.595   2.048  0.00  0.00    +0.075 A 
ATOM      4  N   UNL     1       5.511  -7.295   2.564  0.00  0.00    -0.276 N 
ATOM      5  N   UNL     1       5.250  -7.651   3.772  0.00  0.00    -0.168 NA
ATOM      6  H   UNL     1       6.333  -7.493   2.090  0.00  0.00    +0.189 HD
ATOM      7  C   UNL     1       4.053  -7.231   4.129  0.00  0.00    +0.153 A 
ATOM      8  C   UNL     1       3.057  -7.195   5.215  0.00  0.00    +0.268 C 
ATOM      9  O   UNL     1       3.207  -7.700   6.311  0.00  0.00    -0.268 OA
ATOM     10  N   UNL     1       1.958  -6.525   4.824  0.00  0.00    -0.280 N 
ENDROOT
BRANCH   3  11
ATOM     11  C   UNL     1       4.364  -6.014   0.691  0.00  0.00    +0.048 A 
ATOM     12  C   UNL     1       4.343  -6.846  -0.428  0.00  0.00    +0.033 A 
ATOM     13  C   UNL     1       4.255  -6.297  -1.692  0.00  0.00    +0.042 A 
ATOM     14  C   UNL     1       4.187  -4.923  -1.853  0.00  0.00    +0.024 A 
ATOM     15  C   UNL     1       4.207  -4.090  -0.750  0.00  0.00    +0.053 A 
ATOM     16  C   UNL     1       4.290  -4.626   0.524  0.00  0.00    +0.188 A 
ATOM     17  O   UNL     1       4.304  -3.808   1.609  0.00  0.00    -0.287 OA
ATOM     18 CL   UNL     1       4.229  -7.333  -3.085  0.00  0.00    -0.084 Cl
ENDBRANCH   3  11
BRANCH  10  19
ATOM     19  C   UNL     1       0.766  -6.291   5.642  0.00  0.00    +0.100 C 
ATOM     20  C   UNL     1       1.155  -5.531   6.921  0.00  0.00    +0.047 C 
ATOM     21  C   UNL     1      -0.019  -5.560   7.930  0.00  0.00    +0.168 C 
ATOM     22  S   UNL     1      -0.882  -7.125   7.499  0.00  0.00    -0.029 S 
ATOM     23  O   UNL     1      -0.705  -8.057   8.557  0.00  0.00    -0.174 OA
ATOM     24  O   UNL     1      -2.195  -6.820   7.049  0.00  0.00    -0.174 OA
ATOM     25  C   UNL     1       0.139  -7.652   6.060  0.00  0.00    +0.188 C 
ENDBRANCH  10  19
BRANCH   1  30
ATOM     26  C   UNL     1       1.385  -2.554   2.273  0.00  0.00    +0.121 A 
ATOM     27  C   UNL     1       1.962  -1.797   3.283  0.00  0.00    +0.045 A 
ATOM     28  C   UNL     1       2.595  -2.424   4.339  0.00  0.00    +0.004 A 
ATOM     29  C   UNL     1       2.654  -3.804   4.390  0.00  0.00    +0.006 A 
ATOM     30  C   UNL     1       2.081  -4.561   3.384  0.00  0.00    -0.019 A 
ATOM     31  C   UNL     1       1.442  -3.939   2.329  0.00  0.00    +0.051 A 
BRANCH  26  32
ATOM     32  O   UNL     1       0.761  -1.940   1.234  0.00  0.00    -0.492 OA
BRANCH  32  33
ATOM     33  C   UNL     1       0.742  -0.511   1.242  0.00  0.00    +0.229 C 
BRANCH  33  35
ATOM     34  C   UNL     1      -0.019   1.526   0.010  0.00  0.00    +0.007 C 
ATOM     35  C   UNL     1       0.002  -0.004   0.002  0.00  0.00    +0.038 C 
ENDBRANCH  33  35
ENDBRANCH  32  33
ENDBRANCH  26  32
ENDBRANCH   1  30
TORSDOF 6
