REMARK  Name = ZINC14747530
REMARK  12 active torsions:
REMARK  status: ('A' for Active; 'I' for Inactive)
REMARK    1  A    between atoms: C_1  and  C_2
REMARK    2  A    between atoms: C_2  and  C_3
REMARK    3  A    between atoms: C_3  and  C_5
REMARK    4  A    between atoms: C_3  and  C_6
REMARK    5  A    between atoms: N_8  and  C_9
REMARK    6  A    between atoms: C_12  and  N_29
REMARK    7  A    between atoms: N_16  and  C_22
REMARK    8  A    between atoms: C_17  and  C_18
REMARK    9  A    between atoms: C_18  and  O_20
REMARK   10  A    between atoms: O_20  and  C_21
REMARK   11  A    between atoms: C_22  and  C_23
REMARK   12  A    between atoms: N_29  and  C_30
REMARK                            x       y       z     vdW  Elec       q    Type
REMARK                         _______ _______ _______ _____ _____    ______ ____
ROOT
ATOM      1  C   UNL     1      -1.111  -0.825   0.018  0.00  0.00    +0.075 A 
ATOM      2  C   UNL     1      -0.395  -1.488   1.110  0.00  0.00    +0.043 A 
ATOM      3  C   UNL     1      -0.759  -1.897   2.397  0.00  0.00    +0.038 A 
ATOM      4  C   UNL     1       0.204  -2.512   3.183  0.00  0.00    +0.046 A 
ATOM      5  C   UNL     1       1.485  -2.699   2.667  0.00  0.00    +0.136 A 
ATOM      6  N   UNL     1       1.801  -2.305   1.453  0.00  0.00    -0.235 NA
ATOM      7  C   UNL     1       0.920  -1.711   0.657  0.00  0.00    +0.143 A 
ATOM      8  N   UNL     1       1.010  -1.225  -0.626  0.00  0.00    -0.316 N 
ATOM      9  C   UNL     1      -0.208  -0.685  -1.015  0.00  0.00    +0.151 A 
ENDROOT
BRANCH   1  12
ATOM     10  C   UNL     1      -3.408  -1.266  -0.372  0.00  0.00    +0.220 C 
ATOM     11  O   UNL     1      -3.131  -2.413  -0.654  0.00  0.00    -0.275 OA
ATOM     12  N   UNL     1      -2.440  -0.416   0.023  0.00  0.00    -0.283 N 
ATOM     13  H   UNL     1      -2.671   0.481   0.311  0.00  0.00    +0.155 HD
BRANCH  10  14
ATOM     14  C   UNL     1      -4.836  -0.793  -0.463  0.00  0.00    +0.072 C 
ATOM     15  C   UNL     1      -5.303  -0.314   0.913  0.00  0.00    +0.017 C 
BRANCH  14  17
ATOM     16  C   UNL     1      -7.153  -1.433  -1.144  0.00  0.00    +0.004 C 
ATOM     17  C   UNL     1      -5.727  -1.945  -0.932  0.00  0.00    +0.009 C 
ENDBRANCH  14  17
ENDBRANCH  10  14
ENDBRANCH   1  12
BRANCH   9  18
ATOM     18  C   UNL     1      -0.481  -0.092  -2.274  0.00  0.00    +0.358 C 
ATOM     19  O   UNL     1      -1.593   0.342  -2.513  0.00  0.00    -0.243 OA
BRANCH  18  20
ATOM     20  O   UNL     1       0.489  -0.014  -3.208  0.00  0.00    -0.463 OA
ATOM     21  C   UNL     1       0.144   0.596  -4.453  0.00  0.00    +0.280 C 
ENDBRANCH  18  20
ENDBRANCH   9  18
BRANCH   4  22
ATOM     22  N   UNL     1      -0.107  -2.941   4.479  0.00  0.00    -0.340 N 
ATOM     23  H   UNL     1      -1.000  -2.808   4.832  0.00  0.00    +0.146 HD
BRANCH  22  24
ATOM     24  C   UNL     1       0.917  -3.590   5.301  0.00  0.00    +0.075 C 
ATOM     25  C   UNL     1       0.955  -5.088   4.985  0.00  0.00    +0.050 C 
ATOM     26  C   UNL     1       1.971  -5.771   5.904  0.00  0.00    +0.161 C 
ATOM     27  O   UNL     1       1.616  -5.530   7.267  0.00  0.00    -0.380 OA
ATOM     28  C   UNL     1       1.611  -4.148   7.633  0.00  0.00    +0.161 C 
ATOM     29  C   UNL     1       0.580  -3.401   6.783  0.00  0.00    +0.050 C 
ENDBRANCH  22  24
ENDBRANCH   4  22
BRANCH   8  30
ATOM     30  C   UNL     1       2.215  -1.268  -1.458  0.00  0.00    +0.155 C 
BRANCH  30  31
ATOM     31  C   UNL     1       3.038   0.002  -1.230  0.00  0.00    +0.138 C 
ATOM     32  C   UNL     1       4.362  -0.064  -2.032  0.00  0.00    +0.035 C 
ATOM     33  C   UNL     1       4.681   1.448  -2.196  0.00  0.00    +0.031 C 
ATOM     34  C   UNL     1       3.274   2.071  -2.318  0.00  0.00    +0.160 C 
ATOM     35  O   UNL     1       2.341   1.147  -1.745  0.00  0.00    -0.375 OA
ENDBRANCH  30  31
ENDBRANCH   8  30
TORSDOF 9
