REMARK  Name = ZINC09397691
REMARK  9 active torsions:
REMARK  status: ('A' for Active; 'I' for Inactive)
REMARK    1  A    between atoms: C_1  and  C_2
REMARK    2  A    between atoms: C_5  and  C_30
REMARK    3  A    between atoms: C_6  and  N_8
REMARK    4  A    between atoms: C_13  and  C_15
REMARK    5  A    between atoms: C_15  and  O_17
REMARK    6  A    between atoms: O_17  and  C_18
REMARK    7  A    between atoms: C_18  and  C_19
REMARK    8  A    between atoms: N_21  and  C_22
REMARK    9  A    between atoms: C_25  and  C_29
REMARK                            x       y       z     vdW  Elec       q    Type
REMARK                         _______ _______ _______ _____ _____    ______ ____
ROOT
ATOM      1  C   UNL     1       3.636   1.582   0.010  0.00  0.00    +0.356 C 
ATOM      2  O   UNL     1       3.779   2.789   0.020  0.00  0.00    -0.244 OA
ENDROOT
BRANCH   1   8
ATOM      3  N   UNL     1       5.744  -1.451  -0.019  0.00  0.00    -0.160 N 
ATOM      4  C   UNL     1       6.960  -1.016   0.366  0.00  0.00    +0.240 C 
ATOM      5  O   UNL     1       7.906  -1.774   0.362  0.00  0.00    -0.273 OA
ATOM      6  C   UNL     1       7.139   0.416   0.801  0.00  0.00    +0.104 C 
ATOM      7  C   UNL     1       6.188   1.309  -0.004  0.00  0.00    +0.074 C 
ATOM      8  C   UNL     1       4.810   0.705   0.000  0.00  0.00    +0.144 C 
ATOM      9  N   UNL     1       4.646  -0.583  -0.011  0.00  0.00    -0.170 NA
BRANCH   3  15
ATOM     10  C   UNL     1       7.051  -5.169  -2.958  0.00  0.00    +0.044 C 
ATOM     11  C   UNL     1       6.197  -4.607  -1.851  0.00  0.00    -0.049 A 
ATOM     12  C   UNL     1       5.248  -5.404  -1.238  0.00  0.00    +0.004 A 
ATOM     13  C   UNL     1       4.463  -4.892  -0.222  0.00  0.00    +0.005 A 
ATOM     14  C   UNL     1       4.628  -3.584   0.189  0.00  0.00    -0.027 A 
ATOM     15  C   UNL     1       5.577  -2.779  -0.428  0.00  0.00    +0.063 A 
ATOM     16  C   UNL     1       6.364  -3.296  -1.449  0.00  0.00    +0.029 A 
ATOM     17  C   UNL     1       3.777  -3.029   1.301  0.00  0.00    +0.046 C 
ENDBRANCH   3  15
ENDBRANCH   1   8
BRANCH   1  18
ATOM     18  O   UNL     1       2.396   1.050   0.008  0.00  0.00    -0.451 OA
BRANCH  18  19
ATOM     19  C   UNL     1       1.280   1.979   0.019  0.00  0.00    +0.328 C 
BRANCH  19  20
ATOM     20  C   UNL     1      -0.015   1.208   0.015  0.00  0.00    +0.255 C 
ATOM     21  O   UNL     1       0.001  -0.005   0.005  0.00  0.00    -0.272 OA
ATOM     22  N   UNL     1      -1.191   1.867   0.018  0.00  0.00    -0.281 N 
ATOM     23  H   UNL     1      -1.205   2.834   0.092  0.00  0.00    +0.155 HD
BRANCH  22  24
ATOM     24  C   UNL     1      -2.392   1.155  -0.086  0.00  0.00    +0.052 A 
ATOM     25  C   UNL     1      -2.510  -0.099   0.499  0.00  0.00    +0.025 A 
ATOM     26  C   UNL     1      -3.696  -0.799   0.395  0.00  0.00    +0.005 A 
ATOM     27  C   UNL     1      -4.766  -0.252  -0.291  0.00  0.00    -0.049 A 
ATOM     28  C   UNL     1      -4.652   0.996  -0.874  0.00  0.00    +0.025 A 
ATOM     29  C   UNL     1      -3.469   1.704  -0.770  0.00  0.00    +0.062 A 
ATOM     30 CL   UNL     1      -3.329   3.274  -1.497  0.00  0.00    -0.082 Cl
ATOM     31  C   UNL     1      -6.059  -1.019  -0.402  0.00  0.00    +0.044 C 
ENDBRANCH  22  24
ENDBRANCH  19  20
ENDBRANCH  18  19
ENDBRANCH   1  18
TORSDOF 6
