REMARK  Name = ZINC09729563
REMARK  12 active torsions:
REMARK  status: ('A' for Active; 'I' for Inactive)
REMARK    1  A    between atoms: C_1  and  C_2
REMARK    2  A    between atoms: C_2  and  C_4
REMARK    3  A    between atoms: C_2  and  N_59
REMARK    4  A    between atoms: C_7  and  S_16
REMARK    5  A    between atoms: N_8  and  C_9
REMARK    6  A    between atoms: S_16  and  C_17
REMARK    7  A    between atoms: C_17  and  C_19
REMARK    8  A    between atoms: C_17  and  C_20
REMARK    9  A    between atoms: N_22  and  C_23
REMARK   10  A    between atoms: C_23  and  C_24
REMARK   11  A    between atoms: C_33  and  N_59
REMARK   12  A    between atoms: C_34  and  N_59
REMARK                            x       y       z     vdW  Elec       q    Type
REMARK                         _______ _______ _______ _____ _____    ______ ____
ROOT
ATOM      1  C   UNL     1      12.469  -2.068  -1.951  0.00  0.00    +0.125 A 
ATOM      2  N   UNL     1      11.315  -2.419  -2.444  0.00  0.00    -0.135 NA
ATOM      3  N   UNL     1      10.383  -2.207  -1.584  0.00  0.00    -0.122 NA
ATOM      4  C   UNL     1      10.894  -1.696  -0.488  0.00  0.00    +0.197 A 
ATOM      5  N   UNL     1      12.244  -1.594  -0.685  0.00  0.00    -0.275 N 
ENDROOT
BRANCH   5   6
ATOM      6  C   UNL     1      13.199  -1.107   0.220  0.00  0.00    +0.050 A 
ATOM      7  C   UNL     1      13.909   0.049  -0.075  0.00  0.00    +0.029 A 
ATOM      8  C   UNL     1      14.844   0.531   0.820  0.00  0.00    +0.040 A 
ATOM      9  C   UNL     1      15.083  -0.145   2.005  0.00  0.00    +0.124 A 
ATOM     10  C   UNL     1      14.379  -1.301   2.298  0.00  0.00    +0.040 A 
ATOM     11  C   UNL     1      13.439  -1.783   1.408  0.00  0.00    +0.029 A 
ATOM     12  F   UNL     1      16.002   0.325   2.876  0.00  0.00    -0.205 F 
ENDBRANCH   5   6
BRANCH   1  14
ATOM     13  C   UNL     1      14.260  -3.625  -2.669  0.00  0.00    -0.005 C 
ATOM     14  C   UNL     1      13.803  -2.165  -2.644  0.00  0.00    -0.003 C 
BRANCH  14  17
ATOM     15  C   UNL     1      14.985  -1.637  -4.690  0.00  0.00    -0.096 C 
ATOM     16  C   UNL     1      12.714  -2.471  -4.784  0.00  0.00    -0.096 C 
ATOM     17  N   UNL     1      13.668  -1.641  -4.019  0.00  0.00    +0.382 N 
ATOM     18  H   UNL     1      13.312  -0.679  -3.976  0.00  0.00    -0.082 HD
ENDBRANCH  14  17
ENDBRANCH   1  14
BRANCH   4  19
ATOM     19  S   UNL     1      10.010  -1.237   0.966  0.00  0.00    -0.073 S 
BRANCH  19  20
ATOM     20  C   UNL     1       8.326  -1.665   0.457  0.00  0.00    +0.137 C 
ATOM     21  C   UNL     1       8.224  -3.177   0.252  0.00  0.00    +0.029 C 
BRANCH  20  22
ATOM     22  C   UNL     1       7.355  -1.236   1.526  0.00  0.00    +0.226 C 
ATOM     23  O   UNL     1       7.746  -1.037   2.657  0.00  0.00    -0.275 OA
ATOM     24  N   UNL     1       6.051  -1.073   1.226  0.00  0.00    -0.310 N 
ATOM     25  H   UNL     1       5.738  -1.231   0.322  0.00  0.00    +0.149 HD
BRANCH  24  26
ATOM     26  C   UNL     1       5.107  -0.655   2.265  0.00  0.00    +0.139 C 
BRANCH  26  27
ATOM     27  C   UNL     1       3.725  -0.548   1.674  0.00  0.00    -0.027 A 
ATOM     28  C   UNL     1       2.885  -1.646   1.677  0.00  0.00    +0.009 A 
ATOM     29  C   UNL     1       1.617  -1.553   1.135  0.00  0.00    +0.050 A 
ATOM     30  C   UNL     1       1.183  -0.356   0.589  0.00  0.00    +0.166 A 
ATOM     31  C   UNL     1       2.028   0.751   0.586  0.00  0.00    +0.167 A 
ATOM     32  C   UNL     1       3.298   0.650   1.131  0.00  0.00    +0.054 A 
ATOM     33  O   UNL     1       1.376   1.797  -0.001  0.00  0.00    -0.453 OA
ATOM     34  C   UNL     1      -0.018   1.436   0.010  0.00  0.00    +0.466 C 
ATOM     35  O   UNL     1       0.002  -0.004   0.002  0.00  0.00    -0.453 OA
ENDBRANCH  26  27
ENDBRANCH  24  26
ENDBRANCH  20  22
ENDBRANCH  19  20
ENDBRANCH   4  19
TORSDOF 8
