REMARK  Name = ZINC39191980
REMARK  15 active torsions:
REMARK  status: ('A' for Active; 'I' for Inactive)
REMARK    1  A    between atoms: C_1  and  C_2
REMARK    2  A    between atoms: C_2  and  C_3
REMARK    3  A    between atoms: C_2  and  C_4
REMARK    4  A    between atoms: C_4  and  C_6
REMARK    5  A    between atoms: C_4  and  N_23
REMARK    6  A    between atoms: C_6  and  O_8
REMARK    7  A    between atoms: O_8  and  C_9
REMARK    8  A    between atoms: C_9  and  C_10
REMARK    9  A    between atoms: N_12  and  C_13
REMARK   10  A    between atoms: C_15  and  N_20
REMARK   11  A    between atoms: C_24  and  C_26
REMARK   12  A    between atoms: C_28  and  O_34
REMARK   13  A    between atoms: C_30  and  O_32
REMARK   14  A    between atoms: O_32  and  C_33
REMARK   15  A    between atoms: O_34  and  C_35
REMARK                            x       y       z     vdW  Elec       q    Type
REMARK                         _______ _______ _______ _____ _____    ______ ____
ROOT
ATOM      1  C   UNL     1      -1.406  -0.499   0.011  0.00  0.00    +0.185 C 
ENDROOT
BRANCH   1   2
ATOM      2  N   UNL     1      -2.071  -0.104  -1.233  0.00  0.00    -0.298 N 
ATOM      3  C   UNL     1      -1.932  -0.860  -2.340  0.00  0.00    +0.245 C 
ATOM      4  O   UNL     1      -1.255  -1.869  -2.307  0.00  0.00    -0.270 OA
ATOM      5  H   UNL     1      -2.611   0.701  -1.260  0.00  0.00    +0.150 HD
BRANCH   3   6
ATOM      6  C   UNL     1      -2.603  -0.461  -3.596  0.00  0.00    +0.044 A 
ATOM      7  C   UNL     1      -3.376   0.700  -3.639  0.00  0.00    +0.059 A 
ATOM      8  C   UNL     1      -4.002   1.069  -4.817  0.00  0.00    +0.124 A 
ATOM      9  C   UNL     1      -3.862   0.287  -5.955  0.00  0.00    +0.091 A 
ATOM     10  C   UNL     1      -3.095  -0.868  -5.917  0.00  0.00    +0.124 A 
ATOM     11  C   UNL     1      -2.460  -1.242  -4.744  0.00  0.00    +0.059 A 
BRANCH  10  12
ATOM     12  O   UNL     1      -2.961  -1.630  -7.034  0.00  0.00    -0.495 OA
ATOM     13  C   UNL     1      -3.638  -1.183  -8.210  0.00  0.00    +0.277 C 
ENDBRANCH  10  12
BRANCH   8  14
ATOM     14  O   UNL     1      -4.756   2.200  -4.859  0.00  0.00    -0.495 OA
ATOM     15  C   UNL     1      -5.373   2.522  -6.107  0.00  0.00    +0.277 C 
ENDBRANCH   8  14
ENDBRANCH   3   6
ENDBRANCH   1   2
BRANCH   1  17
ATOM     16  C   UNL     1       0.014   1.557   0.029  0.00  0.00    +0.009 C 
ATOM     17  C   UNL     1       0.031   0.027   0.011  0.00  0.00    +0.014 C 
ATOM     18  C   UNL     1       0.763  -0.490   1.251  0.00  0.00    +0.009 C 
ENDBRANCH   1  17
BRANCH   1  19
ATOM     19  C   UNL     1      -2.153   0.080   1.185  0.00  0.00    +0.328 C 
ATOM     20  O   UNL     1      -3.139   0.753   1.002  0.00  0.00    -0.249 OA
BRANCH  19  21
ATOM     21  O   UNL     1      -1.722  -0.152   2.435  0.00  0.00    -0.454 OA
BRANCH  21  22
ATOM     22  C   UNL     1      -2.478   0.428   3.500  0.00  0.00    +0.328 C 
BRANCH  22  23
ATOM     23  C   UNL     1      -1.849   0.062   4.820  0.00  0.00    +0.255 C 
ATOM     24  O   UNL     1      -0.852  -0.628   4.846  0.00  0.00    -0.272 OA
ATOM     25  N   UNL     1      -2.395   0.501   5.971  0.00  0.00    -0.280 N 
ATOM     26  H   UNL     1      -3.154   1.104   5.949  0.00  0.00    +0.155 HD
BRANCH  25  27
ATOM     27  C   UNL     1      -1.867   0.085   7.200  0.00  0.00    +0.071 A 
ATOM     28  C   UNL     1      -0.502  -0.128   7.334  0.00  0.00    +0.059 A 
ATOM     29  C   UNL     1       0.017  -0.538   8.547  0.00  0.00    +0.128 A 
ATOM     30  C   UNL     1      -0.822  -0.736   9.629  0.00  0.00    +0.035 A 
ATOM     31  C   UNL     1      -2.183  -0.525   9.500  0.00  0.00    +0.042 A 
ATOM     32  C   UNL     1      -2.708  -0.110   8.290  0.00  0.00    +0.145 A 
ATOM     33  F   UNL     1      -4.036   0.102   8.166  0.00  0.00    -0.204 F 
BRANCH  29  34
ATOM     34  N   UNL     1       1.472  -0.766   8.690  0.00  0.00    +0.056 N 
ATOM     35  O   UNL     1       2.206  -0.594   7.745  0.00  0.00    -0.126 OA
ATOM     36  O   UNL     1       1.927  -1.124   9.751  0.00  0.00    -0.126 OA
ENDBRANCH  29  34
ENDBRANCH  25  27
ENDBRANCH  22  23
ENDBRANCH  21  22
ENDBRANCH  19  21
ENDBRANCH   1  19
TORSDOF 11
