REMARK  Name = ZINC40392098
REMARK  9 active torsions:
REMARK  status: ('A' for Active; 'I' for Inactive)
REMARK    1  A    between atoms: C_1  and  C_2
REMARK    2  A    between atoms: C_2  and  C_3
REMARK    3  A    between atoms: C_2  and  C_4
REMARK    4  A    between atoms: C_2  and  N_6
REMARK    5  A    between atoms: C_4  and  O_5
REMARK    6  A    between atoms: C_18  and  C_27
REMARK    7  A    between atoms: C_19  and  C_20
REMARK    8  A    between atoms: C_27  and  O_28
REMARK    9  A    between atoms: O_28  and  C_29
REMARK                            x       y       z     vdW  Elec       q    Type
REMARK                         _______ _______ _______ _____ _____    ______ ____
ROOT
ATOM      1  N   UNL     1       0.688  -0.476  -1.203  0.00  0.00    -0.306 N 
ATOM      2  C   UNL     1       0.014  -1.257  -2.089  0.00  0.00    +0.092 A 
ATOM      3  C   UNL     1       0.588  -1.724  -3.219  0.00  0.00    +0.048 A 
ATOM      4  C   UNL     1       1.923  -1.410  -3.512  0.00  0.00    +0.102 A 
ATOM      5  C   UNL     1       2.649  -0.606  -2.618  0.00  0.00    +0.176 A 
ATOM      6  C   UNL     1       1.973  -0.123  -1.413  0.00  0.00    +0.281 A 
ATOM      7  O   UNL     1       2.562   0.581  -0.611  0.00  0.00    -0.265 OA
ATOM      8  N   UNL     1       3.925  -0.299  -2.887  0.00  0.00    -0.140 NA
ATOM      9  N   UNL     1       4.502  -0.730  -3.955  0.00  0.00    -0.128 NA
ATOM     10  C   UNL     1       3.866  -1.500  -4.847  0.00  0.00    +0.186 A 
ATOM     11  N   UNL     1       2.554  -1.860  -4.646  0.00  0.00    -0.210 N 
ATOM     12  N   UNL     1       2.156  -2.655  -5.724  0.00  0.00    -0.166 NA
ATOM     13  C   UNL     1       3.159  -2.787  -6.556  0.00  0.00    +0.099 A 
ATOM     14  C   UNL     1       4.261  -2.082  -6.054  0.00  0.00    +0.053 A 
ENDROOT
BRANCH  14  15
ATOM     15  C   UNL     1       5.596  -1.972  -6.686  0.00  0.00    -0.012 A 
ATOM     16  C   UNL     1       5.740  -1.313  -7.907  0.00  0.00    +0.011 A 
ATOM     17  C   UNL     1       6.986  -1.214  -8.492  0.00  0.00    +0.039 A 
ATOM     18  C   UNL     1       8.092  -1.768  -7.869  0.00  0.00    +0.123 A 
ATOM     19  C   UNL     1       7.954  -2.424  -6.656  0.00  0.00    +0.039 A 
ATOM     20  C   UNL     1       6.714  -2.523  -6.060  0.00  0.00    +0.011 A 
ATOM     21  F   UNL     1       9.310  -1.669  -8.446  0.00  0.00    -0.205 F 
ENDBRANCH  14  15
BRANCH   1  23
ATOM     22  C   UNL     1      -0.019   1.526   0.010  0.00  0.00    +0.037 C 
ATOM     23  C   UNL     1       0.002  -0.004   0.002  0.00  0.00    +0.066 C 
ATOM     24  C   UNL     1       0.742  -0.511   1.242  0.00  0.00    +0.037 C 
BRANCH  23  25
ATOM     25  C   UNL     1      -1.433  -0.534   0.013  0.00  0.00    +0.183 C 
BRANCH  25  26
ATOM     26  O   UNL     1      -2.102  -0.073   1.189  0.00  0.00    -0.393 OA
ATOM     27  H   UNL     1      -3.019  -0.371   1.262  0.00  0.00    +0.209 HD
ENDBRANCH  25  26
ENDBRANCH  23  25
ENDBRANCH   1  23
BRANCH  13  28
ATOM     28  C   UNL     1       3.133  -3.570  -7.843  0.00  0.00    +0.217 C 
BRANCH  28  29
ATOM     29  O   UNL     1       2.721  -2.716  -8.912  0.00  0.00    -0.377 OA
ATOM     30  C   UNL     1       2.663  -3.365 -10.184  0.00  0.00    +0.194 C 
ENDBRANCH  28  29
ENDBRANCH  13  28
TORSDOF 6
