REMARK  Name = ZINC20569572
REMARK  9 active torsions:
REMARK  status: ('A' for Active; 'I' for Inactive)
REMARK    1  A    between atoms: C_1  and  C_2
REMARK    2  A    between atoms: C_2  and  O_3
REMARK    3  A    between atoms: O_3  and  C_4
REMARK    4  A    between atoms: C_7  and  C_9
REMARK    5  A    between atoms: C_13  and  N_14
REMARK    6  A    between atoms: C_15  and  C_17
REMARK    7  A    between atoms: C_22  and  N_23
REMARK    8  A    between atoms: N_23  and  S_24
REMARK    9  A    between atoms: S_24  and  C_27
REMARK                            x       y       z     vdW  Elec       q    Type
REMARK                         _______ _______ _______ _____ _____    ______ ____
ROOT
ATOM      1  N   UNL     1       2.943  -1.253  -5.574  0.00  0.00    -0.275 N 
ATOM      2  C   UNL     1       3.385  -1.217  -4.302  0.00  0.00    +0.250 C 
ATOM      3  O   UNL     1       3.225  -2.179  -3.575  0.00  0.00    -0.270 OA
ATOM      4  H   UNL     1       3.087  -0.384  -6.232  0.00  0.00    +0.156 HD
ENDROOT
BRANCH   2   5
ATOM      5  C   UNL     1       4.061  -0.011  -3.791  0.00  0.00    +0.059 A 
ATOM      6  C   UNL     1       4.243   1.098  -4.621  0.00  0.00    +0.015 A 
ATOM      7  C   UNL     1       4.881   2.220  -4.139  0.00  0.00    +0.001 A 
ATOM      8  C   UNL     1       5.340   2.257  -2.832  0.00  0.00    +0.002 A 
ATOM      9  C   UNL     1       5.165   1.172  -1.998  0.00  0.00    +0.025 A 
ATOM     10  C   UNL     1       4.523   0.032  -2.466  0.00  0.00    +0.060 A 
BRANCH  10  11
ATOM     11  N   UNL     1       4.345  -1.062  -1.629  0.00  0.00    -0.216 N 
ATOM     12  H   UNL     1       4.408  -2.082  -2.036  0.00  0.00    +0.174 HD
BRANCH  11  13
ATOM     13  S   UNL     1       4.038  -0.831  -0.018  0.00  0.00    +0.072 S 
ATOM     14  O   UNL     1       5.069   0.014   0.474  0.00  0.00    -0.150 OA
ATOM     15  O   UNL     1       3.775  -2.114   0.533  0.00  0.00    -0.150 OA
BRANCH  13  16
ATOM     16  C   UNL     1       2.538   0.085   0.100  0.00  0.00    +0.108 A 
ATOM     17  C   UNL     1       1.327  -0.578   0.174  0.00  0.00    +0.029 A 
ATOM     18  C   UNL     1       0.150   0.141   0.267  0.00  0.00    +0.002 A 
ATOM     19  C   UNL     1       0.183   1.523   0.285  0.00  0.00    +0.000 A 
ATOM     20  C   UNL     1       1.394   2.186   0.211  0.00  0.00    +0.002 A 
ATOM     21  C   UNL     1       2.571   1.467   0.118  0.00  0.00    +0.029 A 
ENDBRANCH  13  16
ENDBRANCH  11  13
ENDBRANCH  10  11
ENDBRANCH   2   5
BRANCH   1  26
ATOM     22  C   UNL     1       1.781  -2.611  -7.323  0.00  0.00    +0.066 A 
ATOM     23  C   UNL     1       1.170  -3.898  -7.553  0.00  0.00    +0.022 A 
ATOM     24  C   UNL     1       1.152  -4.763  -6.523  0.00  0.00    +0.048 A 
ATOM     25  S   UNL     1       1.966  -3.864  -5.219  0.00  0.00    -0.081 S 
ATOM     26  C   UNL     1       2.307  -2.386  -6.054  0.00  0.00    +0.084 A 
BRANCH  22  30
ATOM     27  C   UNL     1       1.389  -0.908 -10.558  0.00  0.00    +0.407 C 
ATOM     28  O   UNL     1       1.913   0.164 -10.332  0.00  0.00    -0.226 OA
ATOM     29  N   UNL     1       1.328  -1.845  -9.591  0.00  0.00    -0.217 N 
ATOM     30  C   UNL     1       1.848  -1.592  -8.374  0.00  0.00    +0.255 C 
ATOM     31  O   UNL     1       2.373  -0.518  -8.147  0.00  0.00    -0.270 OA
ATOM     32  H   UNL     1       0.853  -2.816  -9.796  0.00  0.00    +0.161 HD
BRANCH  27  33
ATOM     33  O   UNL     1       0.870  -1.160 -11.774  0.00  0.00    -0.450 OA
BRANCH  33  35
ATOM     34  C   UNL     1       0.331  -0.573 -14.075  0.00  0.00    +0.048 C 
ATOM     35  C   UNL     1       0.972  -0.105 -12.766  0.00  0.00    +0.230 C 
ENDBRANCH  33  35
ENDBRANCH  27  33
ENDBRANCH  22  30
ENDBRANCH   1  26
TORSDOF 8
