REMARK  Name = ZINC39949008
REMARK  6 active torsions:
REMARK  status: ('A' for Active; 'I' for Inactive)
REMARK    1  A    between atoms: C_1  and  C_2
REMARK    2  A    between atoms: C_2  and  O_3
REMARK    3  A    between atoms: O_3  and  C_4
REMARK    4  A    between atoms: C_4  and  C_6
REMARK    5  A    between atoms: C_8  and  N_17
REMARK    6  A    between atoms: N_17  and  C_18
REMARK                            x       y       z     vdW  Elec       q    Type
REMARK                         _______ _______ _______ _____ _____    ______ ____
ROOT
ATOM      1  N   UNL     1       2.756  -4.395  -1.922  0.00  0.00    -0.276 NA
ATOM      2  H   UNL     1       3.351  -4.735  -2.662  0.00  0.00    +0.125 HD
ENDROOT
BRANCH   1   3
ATOM      3  C   UNL     1       2.533  -5.433  -0.907  0.00  0.00    +0.237 C 
ATOM      4  C   UNL     1       3.366  -5.081   0.304  0.00  0.00    +0.255 C 
ATOM      5  O   UNL     1       3.215  -4.015   0.866  0.00  0.00    -0.272 OA
ATOM      6  N   UNL     1       4.269  -5.958   0.748  0.00  0.00    -0.281 N 
ATOM      7  C   UNL     1       4.452  -7.125   0.155  0.00  0.00    +0.057 A 
ATOM      8  C   UNL     1       5.417  -8.031   0.651  0.00  0.00    +0.025 A 
ATOM      9  C   UNL     1       5.609  -9.227   0.047  0.00  0.00    +0.002 A 
ATOM     10  C   UNL     1       4.879  -9.634  -1.082  0.00  0.00    +0.002 A 
ATOM     11  C   UNL     1       3.933  -8.845  -1.637  0.00  0.00    +0.027 A 
ATOM     12  C   UNL     1       3.665  -7.527  -1.038  0.00  0.00    +0.058 A 
ATOM     13  N   UNL     1       2.761  -6.740  -1.544  0.00  0.00    -0.361 N 
ATOM     14  H   UNL     1       2.250  -7.008  -2.323  0.00  0.00    +0.162 HD
ATOM     15  H   UNL     1       4.804  -5.733   1.525  0.00  0.00    +0.155 HD
ENDBRANCH   1   3
BRANCH   1  17
ATOM     16  C   UNL     1       1.468  -2.353  -2.550  0.00  0.00    +0.152 C 
ATOM     17  C   UNL     1       1.482  -3.898  -2.457  0.00  0.00    +0.136 C 
ATOM     18  S   UNL     1       1.301  -4.288  -4.248  0.00  0.00    -0.110 S 
ATOM     19  C   UNL     1       0.586  -2.749  -4.776  0.00  0.00    -0.013 C 
ATOM     20  C   UNL     1       0.749  -1.880  -3.788  0.00  0.00    -0.044 C 
ATOM     21  C   UNL     1       0.227  -0.450  -3.906  0.00  0.00    +0.032 C 
ATOM     22  C   UNL     1      -0.011  -0.123  -5.380  0.00  0.00    +0.005 C 
ATOM     23  C   UNL     1      -0.894  -1.206  -6.008  0.00  0.00    +0.005 C 
ATOM     24  C   UNL     1      -0.080  -2.498  -6.101  0.00  0.00    +0.042 C 
BRANCH  16  25
ATOM     25  C   UNL     1       0.775  -1.794  -1.334  0.00  0.00    +0.317 C 
ATOM     26  O   UNL     1       0.314  -2.540  -0.504  0.00  0.00    -0.250 OA
BRANCH  25  27
ATOM     27  O   UNL     1       0.671  -0.465  -1.174  0.00  0.00    -0.464 OA
BRANCH  27  29
ATOM     28  C   UNL     1      -0.019   1.526   0.010  0.00  0.00    +0.048 C 
ATOM     29  C   UNL     1       0.002  -0.004   0.002  0.00  0.00    +0.229 C 
ENDBRANCH  27  29
ENDBRANCH  25  27
ENDBRANCH  16  25
ENDBRANCH   1  17
TORSDOF 5
