REMARK  Name = ZINC10136158
REMARK  9 active torsions:
REMARK  status: ('A' for Active; 'I' for Inactive)
REMARK    1  A    between atoms: C_1  and  C_2
REMARK    2  A    between atoms: C_2  and  C_3
REMARK    3  A    between atoms: N_11  and  C_15
REMARK    4  A    between atoms: C_15  and  C_16
REMARK    5  A    between atoms: C_16  and  O_18
REMARK    6  A    between atoms: O_18  and  C_19
REMARK    7  A    between atoms: C_19  and  C_20
REMARK    8  A    between atoms: N_22  and  C_23
REMARK    9  A    between atoms: C_25  and  N_30
REMARK                            x       y       z     vdW  Elec       q    Type
REMARK                         _______ _______ _______ _____ _____    ______ ____
ROOT
ATOM      1  C   UNL     1      -1.645  -1.097  -1.407  0.00  0.00    +0.326 C 
ATOM      2  O   UNL     1      -1.013  -0.638  -2.329  0.00  0.00    -0.249 OA
ENDROOT
BRANCH   1   3
ATOM      3  C   UNL     1      -1.223  -0.812   0.011  0.00  0.00    +0.238 C 
BRANCH   3  12
ATOM      4  C   UNL     1       1.215   4.734   0.015  0.00  0.00    -0.011 C 
ATOM      5  C   UNL     1       0.867   3.924  -1.236  0.00  0.00    +0.006 C 
ATOM      6  C   UNL     1       1.691   2.635  -1.253  0.00  0.00    +0.035 C 
ATOM      7  C   UNL     1       1.390   1.820   0.001  0.00  0.00    +0.113 C 
ATOM      8  C   UNL     1       1.712   2.623   1.256  0.00  0.00    +0.035 C 
ATOM      9  C   UNL     1       0.888   3.913   1.264  0.00  0.00    +0.006 C 
ATOM     10  C   UNL     1      -0.058   1.386   0.011  0.00  0.00    +0.247 C 
ATOM     11  O   UNL     1      -1.038   2.099   0.018  0.00  0.00    -0.273 OA
ATOM     12  N   UNL     1      -0.029   0.037   0.005  0.00  0.00    -0.213 N 
ATOM     13  C   UNL     1       1.226  -0.429  -0.008  0.00  0.00    +0.310 C 
ATOM     14  O   UNL     1       1.508  -1.611  -0.015  0.00  0.00    -0.252 OA
ATOM     15  N   UNL     1       2.141   0.559  -0.011  0.00  0.00    -0.285 N 
ATOM     16  H   UNL     1       3.106   0.457  -0.020  0.00  0.00    +0.151 HD
BRANCH   4  18
ATOM     17  C   UNL     1       0.836   6.895   1.210  0.00  0.00    +0.004 C 
ATOM     18  C   UNL     1       0.399   6.028   0.028  0.00  0.00    -0.000 C 
ENDBRANCH   4  18
ENDBRANCH   3  12
ENDBRANCH   1   3
BRANCH   1  19
ATOM     19  O   UNL     1      -2.722  -1.861  -1.646  0.00  0.00    -0.454 OA
BRANCH  19  20
ATOM     20  C   UNL     1      -3.070  -2.093  -3.037  0.00  0.00    +0.328 C 
BRANCH  20  21
ATOM     21  C   UNL     1      -4.297  -2.965  -3.109  0.00  0.00    +0.255 C 
ATOM     22  O   UNL     1      -4.826  -3.352  -2.088  0.00  0.00    -0.272 OA
ATOM     23  N   UNL     1      -4.806  -3.314  -4.307  0.00  0.00    -0.281 N 
ATOM     24  H   UNL     1      -4.423  -2.952  -5.121  0.00  0.00    +0.155 HD
BRANCH  23  25
ATOM     25  C   UNL     1      -5.888  -4.199  -4.376  0.00  0.00    +0.054 A 
ATOM     26  C   UNL     1      -6.870  -4.177  -3.394  0.00  0.00    +0.057 A 
ATOM     27  C   UNL     1      -7.939  -5.048  -3.468  0.00  0.00    +0.128 A 
ATOM     28  C   UNL     1      -8.028  -5.949  -4.513  0.00  0.00    +0.034 A 
ATOM     29  C   UNL     1      -7.050  -5.979  -5.490  0.00  0.00    +0.024 A 
ATOM     30  C   UNL     1      -5.980  -5.107  -5.425  0.00  0.00    +0.062 A 
ATOM     31 CL   UNL     1      -4.752  -5.144  -6.651  0.00  0.00    -0.082 Cl
BRANCH  27  32
ATOM     32  N   UNL     1      -8.989  -5.020  -2.425  0.00  0.00    +0.056 N 
ATOM     33  O   UNL     1      -9.929  -5.791  -2.486  0.00  0.00    -0.126 OA
ATOM     34  O   UNL     1      -8.911  -4.226  -1.504  0.00  0.00    -0.126 OA
ENDBRANCH  27  32
ENDBRANCH  23  25
ENDBRANCH  20  21
ENDBRANCH  19  20
ENDBRANCH   1  19
TORSDOF 8
