REMARK  Name = ZINC17082152
REMARK  8 active torsions:
REMARK  status: ('A' for Active; 'I' for Inactive)
REMARK    1  A    between atoms: C_1  and  C_2
REMARK    2  A    between atoms: C_2  and  C_4
REMARK    3  A    between atoms: C_8  and  N_10
REMARK    4  A    between atoms: C_11  and  C_13
REMARK    5  A    between atoms: C_13  and  C_29
REMARK    6  A    between atoms: C_14  and  C_15
REMARK    7  A    between atoms: C_18  and  C_20
REMARK    8  A    between atoms: C_23  and  N_26
REMARK                            x       y       z     vdW  Elec       q    Type
REMARK                         _______ _______ _______ _____ _____    ______ ____
ROOT
ATOM      1  C   UNL     1       1.243   1.945   0.164  0.00  0.00    +0.117 C 
ATOM      2  C   UNL     1       2.441   1.264   0.323  0.00  0.00    +0.070 C 
ENDROOT
BRANCH   2   3
ATOM      3  C   UNL     1       3.656   1.968   0.310  0.00  0.00    +0.130 A 
ATOM      4  C   UNL     1       4.920   1.413   0.457  0.00  0.00    +0.050 A 
ATOM      5  C   UNL     1       5.832   2.465   0.381  0.00  0.00    +0.050 A 
ATOM      6  C   UNL     1       5.103   3.620   0.193  0.00  0.00    +0.136 A 
ATOM      7  O   UNL     1       3.798   3.301   0.147  0.00  0.00    -0.455 OA
BRANCH   6   8
ATOM      8  C   UNL     1       5.662   4.978   0.057  0.00  0.00    +0.017 A 
ATOM      9  C   UNL     1       7.043   5.179   0.122  0.00  0.00    +0.014 A 
ATOM     10  C   UNL     1       7.559   6.451  -0.011  0.00  0.00    +0.033 A 
ATOM     11  C   UNL     1       6.712   7.529  -0.197  0.00  0.00    +0.126 A 
ATOM     12  C   UNL     1       5.342   7.339  -0.257  0.00  0.00    +0.033 A 
ATOM     13  C   UNL     1       4.812   6.072  -0.132  0.00  0.00    +0.014 A 
BRANCH  11  14
ATOM     14  N   UNL     1       7.273   8.892  -0.333  0.00  0.00    +0.056 N 
ATOM     15  O   UNL     1       6.529   9.843  -0.496  0.00  0.00    -0.126 OA
ATOM     16  O   UNL     1       8.478   9.063  -0.280  0.00  0.00    -0.126 OA
ENDBRANCH  11  14
ENDBRANCH   6   8
ENDBRANCH   2   3
BRANCH   1  18
ATOM     17  N   UNL     1      -1.191   1.871   0.018  0.00  0.00    -0.281 N 
ATOM     18  C   UNL     1      -0.027   1.210   0.177  0.00  0.00    +0.259 C 
ATOM     19  O   UNL     1      -0.029   0.002   0.328  0.00  0.00    -0.269 OA
ATOM     20  H   UNL     1      -1.196   2.840  -0.025  0.00  0.00    +0.155 HD
BRANCH  17  25
ATOM     21  C   UNL     1      -4.758   0.984   0.317  0.00  0.00    +0.019 A 
ATOM     22  C   UNL     1      -4.763  -0.270  -0.303  0.00  0.00    +0.011 A 
ATOM     23  C   UNL     1      -3.591  -0.796  -0.805  0.00  0.00    +0.002 A 
ATOM     24  C   UNL     1      -2.409  -0.085  -0.705  0.00  0.00    +0.023 A 
ATOM     25  C   UNL     1      -2.391   1.160  -0.086  0.00  0.00    +0.034 A 
ATOM     26  C   UNL     1      -3.562   1.699   0.423  0.00  0.00    +0.034 A 
BRANCH  21  28
ATOM     27  C   UNL     1      -7.294   0.775   0.737  0.00  0.00    +0.091 C 
ATOM     28  C   UNL     1      -6.006   1.549   0.854  0.00  0.00    +0.160 C 
ATOM     29  O   UNL     1      -5.998   2.636   1.390  0.00  0.00    -0.292 OA
ENDBRANCH  21  28
ENDBRANCH  17  25
ENDBRANCH   1  18
BRANCH   1  30
ATOM     30  C   UNL     1       1.245   3.366  -0.013  0.00  0.00    +0.104 C 
ATOM     31  N   UNL     1       1.247   4.494  -0.153  0.00  0.00    -0.191 NA
ENDBRANCH   1  30
TORSDOF 7
