REMARK  Name = ZINC13206270
REMARK  13 active torsions:
REMARK  status: ('A' for Active; 'I' for Inactive)
REMARK    1  A    between atoms: C_1  and  C_2
REMARK    2  A    between atoms: C_6  and  C_8
REMARK    3  A    between atoms: C_11  and  S_16
REMARK    4  A    between atoms: N_12  and  C_13
REMARK    5  A    between atoms: C_13  and  C_14
REMARK    6  A    between atoms: S_16  and  C_17
REMARK    7  A    between atoms: C_17  and  C_18
REMARK    8  A    between atoms: N_20  and  C_21
REMARK    9  A    between atoms: N_20  and  C_22
REMARK   10  A    between atoms: C_22  and  C_23
REMARK   11  A    between atoms: N_25  and  C_26
REMARK   12  A    between atoms: C_31  and  S_32
REMARK   13  A    between atoms: S_32  and  C_33
REMARK                            x       y       z     vdW  Elec       q    Type
REMARK                         _______ _______ _______ _____ _____    ______ ____
ROOT
ATOM      1  C   UNL     1       0.381   1.454  -0.021  0.00  0.00    +0.173 C 
ENDROOT
BRANCH   1   2
ATOM      2  C   UNL     1       0.581  -0.039   0.030  0.00  0.00    +0.226 C 
ATOM      3  O   UNL     1       1.702  -0.499   0.075  0.00  0.00    -0.275 OA
ATOM      4  N   UNL     1      -0.486  -0.863   0.025  0.00  0.00    -0.295 N 
ATOM      5  C   UNL     1      -1.840  -0.307  -0.030  0.00  0.00    +0.132 C 
BRANCH   4   6
ATOM      6  C   UNL     1      -0.291  -2.314   0.074  0.00  0.00    +0.203 C 
BRANCH   6   7
ATOM      7  C   UNL     1      -0.265  -2.769   1.511  0.00  0.00    +0.235 C 
ATOM      8  O   UNL     1      -0.395  -1.960   2.405  0.00  0.00    -0.274 OA
ATOM      9  N   UNL     1      -0.095  -4.074   1.801  0.00  0.00    -0.283 N 
ATOM     10  H   UNL     1      -0.053  -4.728   1.087  0.00  0.00    +0.155 HD
BRANCH   9  11
ATOM     11  C   UNL     1       0.020  -4.485   3.136  0.00  0.00    +0.047 A 
ATOM     12  C   UNL     1      -0.694  -3.832   4.129  0.00  0.00    +0.024 A 
ATOM     13  C   UNL     1      -0.583  -4.243   5.444  0.00  0.00    +0.002 A 
ATOM     14  C   UNL     1       0.247  -5.298   5.776  0.00  0.00    +0.001 A 
ATOM     15  C   UNL     1       0.967  -5.952   4.794  0.00  0.00    +0.016 A 
ATOM     16  C   UNL     1       0.858  -5.550   3.470  0.00  0.00    +0.029 A 
BRANCH  16  17
ATOM     17  S   UNL     1       1.775  -6.380   2.216  0.00  0.00    -0.127 S 
ATOM     18  C   UNL     1       2.694  -7.658   3.117  0.00  0.00    +0.090 C 
ENDBRANCH  16  17
ENDBRANCH   9  11
ENDBRANCH   6   7
ENDBRANCH   4   6
ENDBRANCH   1   2
BRANCH   1  19
ATOM     19  S   UNL     1       1.991   2.280  -0.001  0.00  0.00    -0.077 S 
BRANCH  19  23
ATOM     20  C   UNL     1       1.441   6.146  -0.133  0.00  0.00    +0.165 A 
ATOM     21  N   UNL     1       0.214   5.679  -0.153  0.00  0.00    -0.128 NA
ATOM     22  N   UNL     1       0.233   4.395  -0.113  0.00  0.00    -0.122 NA
ATOM     23  C   UNL     1       1.473   3.962  -0.066  0.00  0.00    +0.193 A 
ATOM     24  N   UNL     1       2.285   5.060  -0.071  0.00  0.00    -0.291 N 
BRANCH  20  30
ATOM     25  C   UNL     1       0.320  10.961   0.538  0.00  0.00    +0.044 C 
ATOM     26  C   UNL     1       1.306   9.888   0.157  0.00  0.00    -0.050 A 
ATOM     27  C   UNL     1       2.590  10.234  -0.227  0.00  0.00    +0.003 A 
ATOM     28  C   UNL     1       3.501   9.254  -0.579  0.00  0.00    +0.001 A 
ATOM     29  C   UNL     1       3.134   7.925  -0.551  0.00  0.00    +0.011 A 
ATOM     30  C   UNL     1       1.841   7.569  -0.165  0.00  0.00    +0.020 A 
ATOM     31  C   UNL     1       0.925   8.562   0.185  0.00  0.00    +0.015 A 
ENDBRANCH  20  30
BRANCH  24  32
ATOM     32  C   UNL     1       3.749   5.079  -0.023  0.00  0.00    +0.250 C 
BRANCH  32  33
ATOM     33  C   UNL     1       4.299   4.934  -1.419  0.00  0.00    +0.375 C 
ATOM     34  O   UNL     1       3.545   4.827  -2.357  0.00  0.00    -0.244 OA
ATOM     35  O   UNL     1       5.626   4.925  -1.620  0.00  0.00    -0.244 OA
ENDBRANCH  32  33
ENDBRANCH  24  32
ENDBRANCH  19  23
ENDBRANCH   1  19
TORSDOF 10
