REMARK  Name = ZINC14227400
REMARK  6 active torsions:
REMARK  status: ('A' for Active; 'I' for Inactive)
REMARK    1  A    between atoms: C_4  and  C_7
REMARK    2  A    between atoms: C_7  and  N_8
REMARK    3  A    between atoms: C_10  and  N_13
REMARK    4  A    between atoms: N_13  and  S_14
REMARK    5  A    between atoms: S_14  and  C_17
REMARK    6  A    between atoms: C_20  and  N_23
REMARK                            x       y       z     vdW  Elec       q    Type
REMARK                         _______ _______ _______ _____ _____    ______ ____
ROOT
ATOM      1  N   UNL     1       5.236  -2.944   4.081  0.00  0.00    -0.213 N 
ATOM      2  H   UNL     1       4.743  -3.778   4.144  0.00  0.00    +0.174 HD
ENDROOT
BRANCH   1   5
ATOM      3  N   UNL     1       4.152  -0.952   1.338  0.00  0.00    -0.265 N 
ATOM      4  C   UNL     1       4.475  -2.160   1.872  0.00  0.00    +0.133 A 
ATOM      5  C   UNL     1       4.830  -1.955   3.165  0.00  0.00    +0.085 A 
ATOM      6  C   UNL     1       4.720  -0.582   3.428  0.00  0.00    +0.158 A 
ATOM      7  N   UNL     1       4.321   0.017   2.335  0.00  0.00    -0.177 NA
BRANCH   3   8
ATOM      8  C   UNL     1       3.711  -0.707  -0.038  0.00  0.00    +0.178 C 
BRANCH   8  12
ATOM      9  C   UNL     1      -0.017   1.378   0.010  0.00  0.00    +0.000 A 
ATOM     10  C   UNL     1       1.171   2.086   0.002  0.00  0.00    +0.000 A 
ATOM     11  C   UNL     1       2.377   1.411  -0.013  0.00  0.00    +0.005 A 
ATOM     12  C   UNL     1       2.396   0.029  -0.020  0.00  0.00    -0.026 A 
ATOM     13  C   UNL     1       1.208  -0.679  -0.012  0.00  0.00    +0.005 A 
ATOM     14  C   UNL     1       0.002  -0.004   0.002  0.00  0.00    +0.000 A 
ENDBRANCH   8  12
ENDBRANCH   3   8
ENDBRANCH   1   5
BRANCH   1  15
ATOM     15  S   UNL     1       6.554  -2.685   5.050  0.00  0.00    +0.072 S 
ATOM     16  O   UNL     1       6.689  -3.838   5.869  0.00  0.00    -0.150 OA
ATOM     17  O   UNL     1       7.597  -2.227   4.201  0.00  0.00    -0.150 OA
BRANCH  15  18
ATOM     18  C   UNL     1       6.155  -1.348   6.125  0.00  0.00    +0.109 A 
ATOM     19  C   UNL     1       6.430  -0.048   5.743  0.00  0.00    +0.031 A 
ATOM     20  C   UNL     1       6.117   1.001   6.587  0.00  0.00    +0.034 A 
ATOM     21  C   UNL     1       5.529   0.751   7.812  0.00  0.00    +0.126 A 
ATOM     22  C   UNL     1       5.253  -0.549   8.194  0.00  0.00    +0.034 A 
ATOM     23  C   UNL     1       5.562  -1.598   7.348  0.00  0.00    +0.031 A 
BRANCH  21  24
ATOM     24  N   UNL     1       5.195   1.875   8.716  0.00  0.00    +0.056 N 
ATOM     25  O   UNL     1       5.436   3.011   8.383  0.00  0.00    -0.126 OA
ATOM     26  O   UNL     1       4.680   1.656   9.788  0.00  0.00    -0.126 OA
ENDBRANCH  21  24
ENDBRANCH  15  18
ENDBRANCH   1  15
TORSDOF 6
