REMARK  Name = ZINC04119076
REMARK  5 active torsions:
REMARK  status: ('A' for Active; 'I' for Inactive)
REMARK    1  A    between atoms: C_1  and  C_2
REMARK    2  A    between atoms: C_8  and  C_10
REMARK    3  A    between atoms: C_10  and  S_11
REMARK    4  A    between atoms: S_11  and  C_12
REMARK    5  A    between atoms: C_18  and  C_21
REMARK                            x       y       z     vdW  Elec       q    Type
REMARK                         _______ _______ _______ _____ _____    ______ ____
ROOT
ATOM      1  C   UNL     1      -6.268  -5.421   0.001  0.00  0.00    +0.118 A 
ATOM      2  C   UNL     1      -7.677  -5.415   0.002  0.00  0.00    +0.040 A 
ATOM      3  C   UNL     1      -8.364  -6.588  -0.002  0.00  0.00    +0.053 A 
ATOM      4  C   UNL     1      -7.650  -7.801  -0.006  0.00  0.00    +0.178 A 
ATOM      5  N   UNL     1      -8.013  -9.076  -0.010  0.00  0.00    -0.128 NA
ATOM      6  N   UNL     1      -6.965  -9.823  -0.013  0.00  0.00    -0.127 NA
ATOM      7  C   UNL     1      -5.876  -9.077  -0.011  0.00  0.00    +0.185 A 
ATOM      8  N   UNL     1      -6.277  -7.774  -0.007  0.00  0.00    -0.192 N 
ATOM      9  N   UNL     1      -5.601  -6.553  -0.009  0.00  0.00    -0.157 NA
ENDROOT
BRANCH   7  10
ATOM     10  C   UNL     1      -4.481  -9.563  -0.013  0.00  0.00    +0.021 A 
ATOM     11  C   UNL     1      -3.435  -8.695   0.308  0.00  0.00    +0.013 A 
ATOM     12  C   UNL     1      -2.135  -9.155   0.305  0.00  0.00    +0.021 A 
ATOM     13  C   UNL     1      -1.865 -10.476  -0.015  0.00  0.00    +0.041 A 
ATOM     14  C   UNL     1      -2.898 -11.341  -0.334  0.00  0.00    +0.021 A 
ATOM     15  C   UNL     1      -4.203 -10.895  -0.329  0.00  0.00    +0.013 A 
ATOM     16 CL   UNL     1      -0.226 -11.047  -0.017  0.00  0.00    -0.084 Cl
ENDBRANCH   7  10
BRANCH   1  17
ATOM     17  S   UNL     1      -5.390  -3.893   0.006  0.00  0.00    -0.095 S 
BRANCH  17  18
ATOM     18  C   UNL     1      -3.646  -4.389  -0.006  0.00  0.00    +0.172 C 
BRANCH  18  26
ATOM     19  C   UNL     1      -0.018   1.503   0.010  0.00  0.00    +0.089 C 
ATOM     20  C   UNL     1       0.002  -0.004   0.002  0.00  0.00    +0.136 A 
ATOM     21  C   UNL     1      -1.076  -0.808   0.003  0.00  0.00    +0.091 A 
ATOM     22  C   UNL     1      -0.625  -2.147  -0.007  0.00  0.00    +0.168 A 
ATOM     23  N   UNL     1       0.683  -2.130  -0.013  0.00  0.00    -0.063 NA
ATOM     24  O   UNL     1       1.100  -0.776  -0.013  0.00  0.00    -0.358 OA
ATOM     25  N   UNL     1      -1.432  -3.285  -0.010  0.00  0.00    -0.267 N 
ATOM     26  C   UNL     1      -2.774  -3.159  -0.003  0.00  0.00    +0.229 C 
ATOM     27  O   UNL     1      -3.280  -2.057   0.006  0.00  0.00    -0.275 OA
ATOM     28  H   UNL     1      -1.027  -4.166  -0.017  0.00  0.00    +0.156 HD
ENDBRANCH  18  26
ENDBRANCH  17  18
ENDBRANCH   1  17
TORSDOF 4
