REMARK  Name = ZINC13057633
REMARK  10 active torsions:
REMARK  status: ('A' for Active; 'I' for Inactive)
REMARK    1  A    between atoms: C_1  and  C_2
REMARK    2  A    between atoms: C_2  and  C_4
REMARK    3  A    between atoms: C_2  and  N_49
REMARK    4  A    between atoms: N_6  and  C_7
REMARK    5  A    between atoms: C_10  and  S_13
REMARK    6  A    between atoms: S_13  and  N_16
REMARK    7  A    between atoms: C_17  and  N_49
REMARK    8  A    between atoms: C_18  and  C_19
REMARK    9  A    between atoms: C_18  and  N_49
REMARK   10  A    between atoms: N_21  and  C_22
REMARK                            x       y       z     vdW  Elec       q    Type
REMARK                         _______ _______ _______ _____ _____    ______ ____
ROOT
ATOM      1  C   UNL     1       3.604  -2.267  -1.174  0.00  0.00    -0.004 C 
ATOM      2  C   UNL     1       2.778  -2.569   0.078  0.00  0.00    +0.017 C 
ENDROOT
BRANCH   2   3
ATOM      3  C   UNL     1       2.620  -4.061   0.228  0.00  0.00    +0.203 C 
ATOM      4  O   UNL     1       1.512  -4.555   0.230  0.00  0.00    -0.277 OA
ATOM      5  N   UNL     1       3.708  -4.844   0.358  0.00  0.00    -0.287 N 
ATOM      6  H   UNL     1       4.589  -4.443   0.424  0.00  0.00    +0.155 HD
BRANCH   5   7
ATOM      7  C   UNL     1       3.568  -6.236   0.399  0.00  0.00    +0.033 A 
ATOM      8  C   UNL     1       2.463  -6.806   1.018  0.00  0.00    +0.025 A 
ATOM      9  C   UNL     1       2.324  -8.180   1.050  0.00  0.00    +0.030 A 
ATOM     10  C   UNL     1       3.290  -8.987   0.479  0.00  0.00    +0.105 A 
ATOM     11  C   UNL     1       4.395  -8.423  -0.132  0.00  0.00    +0.030 A 
ATOM     12  C   UNL     1       4.536  -7.050  -0.174  0.00  0.00    +0.025 A 
BRANCH  10  13
ATOM     13  S   UNL     1       3.113 -10.740   0.530  0.00  0.00    +0.056 S 
ATOM     14  O   UNL     1       1.724 -11.004   0.677  0.00  0.00    -0.153 OA
ATOM     15  O   UNL     1       3.876 -11.257  -0.551  0.00  0.00    -0.153 OA
BRANCH  13  16
ATOM     16  N   UNL     1       3.845 -11.266   1.919  0.00  0.00    -0.204 NA
ATOM     17  H   UNL     1       4.262 -10.628   2.519  0.00  0.00    +0.144 HD
ATOM     18  H   UNL     1       3.856 -12.212   2.134  0.00  0.00    +0.144 HD
ENDBRANCH  13  16
ENDBRANCH  10  13
ENDBRANCH   5   7
ENDBRANCH   2   3
BRANCH   2  20
ATOM     19  C   UNL     1       0.747  -2.445  -1.233  0.00  0.00    -0.094 C 
ATOM     20  N   UNL     1       1.438  -1.954  -0.023  0.00  0.00    +0.391 N 
ATOM     21  H   UNL     1       0.888  -2.213   0.804  0.00  0.00    -0.080 HD
BRANCH  20  22
ATOM     22  C   UNL     1       1.562  -0.481  -0.075  0.00  0.00    +0.020 C 
BRANCH  22  23
ATOM     23  C   UNL     1       0.188   0.126   0.044  0.00  0.00    +0.201 C 
ATOM     24  O   UNL     1      -0.786  -0.591   0.144  0.00  0.00    -0.278 OA
ATOM     25  N   UNL     1       0.040   1.466   0.041  0.00  0.00    -0.285 N 
ATOM     26  H   UNL     1       0.822   2.039   0.028  0.00  0.00    +0.155 HD
BRANCH  25  27
ATOM     27  C   UNL     1      -1.243   2.030   0.051  0.00  0.00    +0.072 A 
ATOM     28  C   UNL     1      -2.270   1.408   0.748  0.00  0.00    +0.029 A 
ATOM     29  C   UNL     1      -3.533   1.967   0.761  0.00  0.00    +0.043 A 
ATOM     30  C   UNL     1      -3.780   3.142   0.071  0.00  0.00    +0.161 A 
ATOM     31  C   UNL     1      -2.759   3.763  -0.630  0.00  0.00    +0.195 A 
ATOM     32  C   UNL     1      -1.490   3.209  -0.642  0.00  0.00    +0.182 A 
ATOM     33  F   UNL     1      -0.493   3.814  -1.325  0.00  0.00    -0.200 F 
ATOM     34  F   UNL     1      -3.001   4.909  -1.303  0.00  0.00    -0.199 F 
ATOM     35  F   UNL     1      -5.018   3.683   0.082  0.00  0.00    -0.202 F 
ENDBRANCH  25  27
ENDBRANCH  22  23
ENDBRANCH  20  22
ENDBRANCH   2  20
TORSDOF 8
