REMARK  Name = ZINC12893833
REMARK  9 active torsions:
REMARK  status: ('A' for Active; 'I' for Inactive)
REMARK    1  A    between atoms: C_1  and  C_2
REMARK    2  A    between atoms: N_4  and  C_5
REMARK    3  A    between atoms: C_7  and  S_13
REMARK    4  A    between atoms: C_10  and  O_11
REMARK    5  A    between atoms: O_11  and  C_12
REMARK    6  A    between atoms: S_13  and  N_16
REMARK    7  A    between atoms: N_16  and  N_17
REMARK    8  A    between atoms: C_18  and  C_20
REMARK    9  A    between atoms: C_23  and  C_25
REMARK                            x       y       z     vdW  Elec       q    Type
REMARK                         _______ _______ _______ _____ _____    ______ ____
ROOT
ATOM      1  N   UNL     1      -3.216   4.255  -1.565  0.00  0.00    -0.108 NA
ATOM      2  H   UNL     1      -3.338   5.158  -1.896  0.00  0.00    +0.172 HD
ENDROOT
BRANCH   1   3
ATOM      3  N   UNL     1      -3.405   3.163  -2.422  0.00  0.00    -0.227 N 
ATOM      4  C   UNL     1      -4.568   3.022  -3.087  0.00  0.00    +0.265 C 
ATOM      5  O   UNL     1      -5.455   3.843  -2.944  0.00  0.00    -0.268 OA
ATOM      6  H   UNL     1      -2.698   2.508  -2.536  0.00  0.00    +0.171 HD
BRANCH   4   7
ATOM      7  C   UNL     1      -4.765   1.880  -3.983  0.00  0.00    +0.076 A 
ATOM      8  C   UNL     1      -5.877   1.552  -4.747  0.00  0.00    +0.021 A 
ATOM      9  C   UNL     1      -5.833   0.427  -5.520  0.00  0.00    +0.017 A 
ATOM     10  C   UNL     1      -4.685  -0.349  -5.504  0.00  0.00    +0.020 A 
ATOM     11  S   UNL     1      -3.640   0.548  -4.367  0.00  0.00    -0.084 S 
BRANCH  10  12
ATOM     12  C   UNL     1      -4.399  -1.599  -6.239  0.00  0.00    -0.011 A 
ATOM     13  C   UNL     1      -5.362  -2.149  -7.087  0.00  0.00    +0.012 A 
ATOM     14  C   UNL     1      -5.087  -3.312  -7.775  0.00  0.00    +0.039 A 
ATOM     15  C   UNL     1      -3.862  -3.941  -7.617  0.00  0.00    +0.123 A 
ATOM     16  C   UNL     1      -2.904  -3.401  -6.773  0.00  0.00    +0.039 A 
ATOM     17  C   UNL     1      -3.166  -2.236  -6.084  0.00  0.00    +0.012 A 
ATOM     18  F   UNL     1      -3.600  -5.083  -8.289  0.00  0.00    -0.205 F 
ENDBRANCH  10  12
ENDBRANCH   4   7
ENDBRANCH   1   3
BRANCH   1  19
ATOM     19  S   UNL     1      -2.784   4.004   0.014  0.00  0.00    +0.074 S 
ATOM     20  O   UNL     1      -3.744   3.109   0.560  0.00  0.00    -0.152 OA
ATOM     21  O   UNL     1      -2.531   5.285   0.575  0.00  0.00    -0.152 OA
BRANCH  19  24
ATOM     22  C   UNL     1       1.153   3.182  -0.003  0.00  0.00    +0.077 A 
ATOM     23  C   UNL     1      -0.060   3.856   0.006  0.00  0.00    +0.055 A 
ATOM     24  C   UNL     1      -1.245   3.145   0.003  0.00  0.00    +0.109 A 
ATOM     25  C   UNL     1      -1.226   1.763  -0.013  0.00  0.00    +0.032 A 
ATOM     26  C   UNL     1      -0.022   1.084  -0.016  0.00  0.00    +0.049 A 
ATOM     27  C   UNL     1       1.171   1.789  -0.013  0.00  0.00    +0.141 A 
BRANCH  22  31
ATOM     28  C   UNL     1       3.654   5.969   0.388  0.00  0.00    +0.109 C 
ATOM     29  C   UNL     1       2.393   5.151   0.498  0.00  0.00    +0.214 C 
ATOM     30  O   UNL     1       1.411   5.619   1.036  0.00  0.00    -0.276 OA
ATOM     31  N   UNL     1       2.356   3.900  -0.000  0.00  0.00    -0.283 N 
ATOM     32  H   UNL     1       3.162   3.496  -0.358  0.00  0.00    +0.155 HD
ENDBRANCH  22  31
BRANCH  27  33
ATOM     33  O   UNL     1       2.356   1.123  -0.022  0.00  0.00    -0.493 OA
ATOM     34  C   UNL     1       2.297  -0.305  -0.033  0.00  0.00    +0.277 C 
ENDBRANCH  27  33
ENDBRANCH  19  24
ENDBRANCH   1  19
TORSDOF 7
