REMARK  Name = ZINC15200566
REMARK  6 active torsions:
REMARK  status: ('A' for Active; 'I' for Inactive)
REMARK    1  A    between atoms: C_1  and  C_2
REMARK    2  A    between atoms: N_5  and  C_8
REMARK    3  A    between atoms: C_11  and  C_17
REMARK    4  A    between atoms: C_13  and  N_14
REMARK    5  A    between atoms: C_22  and  C_25
REMARK    6  A    between atoms: C_25  and  C_27
REMARK                            x       y       z     vdW  Elec       q    Type
REMARK                         _______ _______ _______ _____ _____    ______ ____
ROOT
ATOM      1  C   UNL     1      -1.068  -3.490   1.981  0.00  0.00    +0.060 A 
ATOM      2  C   UNL     1      -0.999  -4.849   1.683  0.00  0.00    +0.026 A 
ATOM      3  C   UNL     1      -1.503  -5.775   2.568  0.00  0.00    +0.015 A 
ATOM      4  C   UNL     1      -2.084  -5.350   3.767  0.00  0.00    +0.039 A 
ATOM      5  C   UNL     1      -2.151  -3.985   4.063  0.00  0.00    +0.047 A 
ATOM      6  C   UNL     1      -1.640  -3.065   3.176  0.00  0.00    +0.148 A 
ENDROOT
BRANCH   4   7
ATOM      7  C   UNL     1      -2.626  -6.340   4.717  0.00  0.00    +0.250 C 
ATOM      8  O   UNL     1      -3.130  -5.969   5.759  0.00  0.00    -0.270 OA
ATOM      9  N   UNL     1      -2.561  -7.655   4.429  0.00  0.00    -0.261 N 
ATOM     10  C   UNL     1      -3.071  -8.586   5.323  0.00  0.00    +0.165 A 
ATOM     11  N   UNL     1      -3.096  -9.898   5.226  0.00  0.00    -0.222 NA
ATOM     12  C   UNL     1      -3.645 -10.601   6.223  0.00  0.00    +0.115 A 
ATOM     13  C   UNL     1      -4.159  -9.916   7.307  0.00  0.00    +0.079 A 
ATOM     14  S   UNL     1      -3.852  -8.312   6.903  0.00  0.00    -0.060 S 
ATOM     15  H   UNL     1      -2.158  -7.950   3.598  0.00  0.00    +0.157 HD
BRANCH  12  16
ATOM     16  C   UNL     1      -3.700 -12.062   6.166  0.00  0.00    +0.179 C 
ATOM     17  O   UNL     1      -4.202 -12.687   7.078  0.00  0.00    -0.291 OA
ATOM     18  C   UNL     1      -3.134 -12.792   4.976  0.00  0.00    +0.093 C 
ENDBRANCH  12  16
ENDBRANCH   4   7
BRANCH   1  23
ATOM     19  C   UNL     1       1.515  -1.764  -2.545  0.00  0.00    +0.007 C 
ATOM     20  C   UNL     1       0.761  -1.596  -1.225  0.00  0.00    -0.011 C 
ATOM     21  C   UNL     1       1.556  -2.254  -0.096  0.00  0.00    +0.022 C 
ATOM     22  C   UNL     1       0.815  -2.053   1.230  0.00  0.00    +0.105 C 
ATOM     23  N   UNL     1      -0.557  -2.557   1.085  0.00  0.00    -0.328 N 
ATOM     24  C   UNL     1      -1.380  -2.057  -0.024  0.00  0.00    +0.105 C 
ATOM     25  C   UNL     1      -0.615  -2.258  -1.336  0.00  0.00    +0.022 C 
ENDBRANCH   1  23
BRANCH   6  26
ATOM     26  N   UNL     1      -1.706  -1.620   3.491  0.00  0.00    +0.058 N 
ATOM     27  O   UNL     1      -2.110  -1.254   4.571  0.00  0.00    -0.126 OA
ATOM     28  O   UNL     1      -1.354  -0.805   2.670  0.00  0.00    -0.126 OA
ENDBRANCH   6  26
TORSDOF 4
