REMARK  Name = ZINC47534292
REMARK  5 active torsions:
REMARK  status: ('A' for Active; 'I' for Inactive)
REMARK    1  A    between atoms: C_1  and  C_2
REMARK    2  A    between atoms: C_2  and  C_4
REMARK    3  A    between atoms: C_2  and  N_16
REMARK    4  A    between atoms: C_17  and  C_19
REMARK    5  A    between atoms: C_20  and  C_21
REMARK                            x       y       z     vdW  Elec       q    Type
REMARK                         _______ _______ _______ _____ _____    ______ ____
ROOT
ATOM      1  N   UNL     1       0.688  -0.476  -1.203  0.00  0.00    -0.305 N 
ATOM      2  C   UNL     1       0.006  -0.608  -2.358  0.00  0.00    +0.237 C 
ATOM      3  O   UNL     1      -1.179  -0.335  -2.400  0.00  0.00    -0.271 OA
ATOM      4  H   UNL     1       1.632  -0.695  -1.170  0.00  0.00    +0.150 HD
ENDROOT
BRANCH   1   6
ATOM      5  C   UNL     1      -0.019   1.526   0.010  0.00  0.00    +0.033 C 
ATOM      6  C   UNL     1       0.002  -0.004   0.002  0.00  0.00    +0.100 C 
BRANCH   6   7
ATOM      7  C   UNL     1       0.731  -0.503   1.223  0.00  0.00    -0.025 A 
ATOM      8  C   UNL     1       2.115  -0.512   1.244  0.00  0.00    +0.007 A 
ATOM      9  C   UNL     1       2.792  -0.968   2.358  0.00  0.00    +0.028 A 
ATOM     10  C   UNL     1       2.082  -1.418   3.461  0.00  0.00    +0.067 A 
ATOM     11  C   UNL     1       0.686  -1.409   3.440  0.00  0.00    +0.067 A 
ATOM     12  C   UNL     1       0.015  -0.944   2.319  0.00  0.00    +0.033 A 
ATOM     13  N   UNL     1       0.262  -1.910   4.668  0.00  0.00    -0.306 N 
ATOM     14  H   UNL     1      -0.660  -2.023   4.947  0.00  0.00    +0.170 HD
ATOM     15  C   UNL     1       1.350  -2.210   5.402  0.00  0.00    +0.325 A 
ATOM     16  O   UNL     1       1.330  -2.670   6.529  0.00  0.00    -0.247 OA
ATOM     17  N   UNL     1       2.463  -1.924   4.701  0.00  0.00    -0.306 N 
ATOM     18  H   UNL     1       3.375  -2.050   5.007  0.00  0.00    +0.170 HD
ENDBRANCH   6   7
ENDBRANCH   1   6
BRANCH   2  19
ATOM     19  C   UNL     1       0.691  -1.080  -3.562  0.00  0.00    +0.068 C 
ATOM     20  C   UNL     1       0.008  -1.212  -4.719  0.00  0.00    +0.013 C 
BRANCH  20  21
ATOM     21  C   UNL     1       0.696  -1.686  -5.928  0.00  0.00    -0.021 A 
ATOM     22  C   UNL     1       2.058  -2.006  -5.881  0.00  0.00    +0.012 A 
ATOM     23  C   UNL     1       2.699  -2.451  -7.016  0.00  0.00    +0.050 A 
ATOM     24  C   UNL     1       2.001  -2.583  -8.209  0.00  0.00    +0.166 A 
ATOM     25  C   UNL     1       0.642  -2.265  -8.263  0.00  0.00    +0.167 A 
ATOM     26  C   UNL     1      -0.009  -1.823  -7.129  0.00  0.00    +0.057 A 
ATOM     27  O   UNL     1       0.196  -2.478  -9.536  0.00  0.00    -0.453 OA
ATOM     28  C   UNL     1       1.380  -2.537 -10.353  0.00  0.00    +0.466 C 
ATOM     29  O   UNL     1       2.400  -2.995  -9.446  0.00  0.00    -0.453 OA
ENDBRANCH  20  21
ENDBRANCH   2  19
TORSDOF 4
