REMARK  Name = ZINC12972527
REMARK  7 active torsions:
REMARK  status: ('A' for Active; 'I' for Inactive)
REMARK    1  A    between atoms: C_3  and  S_21
REMARK    2  A    between atoms: C_6  and  C_7
REMARK    3  A    between atoms: C_7  and  N_8
REMARK    4  A    between atoms: C_9  and  C_11
REMARK    5  A    between atoms: C_11  and  N_57
REMARK    6  A    between atoms: C_15  and  C_18
REMARK    7  A    between atoms: S_21  and  N_24
REMARK                            x       y       z     vdW  Elec       q    Type
REMARK                         _______ _______ _______ _____ _____    ______ ____
ROOT
ATOM      1  N   UNL     1      -0.721   1.571  -1.179  0.00  0.00    -0.313 N 
ATOM      2  C   UNL     1      -0.268   1.258  -2.409  0.00  0.00    +0.197 C 
ATOM      3  O   UNL     1       0.726   0.575  -2.534  0.00  0.00    -0.278 OA
ATOM      4  H   UNL     1      -1.516   2.118  -1.079  0.00  0.00    +0.149 HD
ENDROOT
BRANCH   1   5
ATOM      5  C   UNL     1      -0.013   1.086   0.008  0.00  0.00    +0.139 C 
BRANCH   5  11
ATOM      6  C   UNL     1      -0.360   2.779   1.819  0.00  0.00    +0.007 A 
ATOM      7  C   UNL     1      -1.010   3.227   2.953  0.00  0.00    +0.029 A 
ATOM      8  C   UNL     1      -2.012   2.463   3.523  0.00  0.00    +0.105 A 
ATOM      9  C   UNL     1      -2.366   1.254   2.955  0.00  0.00    +0.029 A 
ATOM     10  C   UNL     1      -1.719   0.808   1.818  0.00  0.00    +0.007 A 
ATOM     11  C   UNL     1      -0.718   1.572   1.248  0.00  0.00    -0.030 A 
BRANCH   8  12
ATOM     12  S   UNL     1      -2.837   3.032   4.972  0.00  0.00    +0.061 S 
ATOM     13  O   UNL     1      -2.695   4.446   4.992  0.00  0.00    -0.153 OA
ATOM     14  O   UNL     1      -4.107   2.394   4.993  0.00  0.00    -0.153 OA
BRANCH  12  15
ATOM     15  N   UNL     1      -1.995   2.453   6.274  0.00  0.00    -0.172 NA
ATOM     16  C   UNL     1      -2.328   1.152   6.875  0.00  0.00    +0.137 C 
ATOM     17  C   UNL     1      -1.032   0.335   6.998  0.00  0.00    +0.177 C 
ATOM     18  O   UNL     1      -0.049   1.115   7.681  0.00  0.00    -0.377 OA
ATOM     19  C   UNL     1       0.329   2.312   6.996  0.00  0.00    +0.177 C 
ATOM     20  C   UNL     1      -0.894   3.228   6.870  0.00  0.00    +0.137 C 
ENDBRANCH  12  15
ENDBRANCH   8  12
ENDBRANCH   5  11
ENDBRANCH   1   5
BRANCH   2  21
ATOM     21  C   UNL     1      -0.997   1.758  -3.630  0.00  0.00    +0.019 C 
BRANCH  21  27
ATOM     22  C   UNL     1      -0.395  -0.178  -4.954  0.00  0.00    -0.078 C 
ATOM     23  C   UNL     1       0.202  -0.621  -6.292  0.00  0.00    -0.018 C 
ATOM     24  C   UNL     1       1.663  -0.169  -6.368  0.00  0.00    +0.009 C 
ATOM     25  C   UNL     1       1.728   1.352  -6.197  0.00  0.00    +0.058 C 
ATOM     26  C   UNL     1       1.087   1.738  -4.862  0.00  0.00    -0.065 C 
ATOM     27  N   UNL     1      -0.324   1.296  -4.862  0.00  0.00    +0.386 N 
ATOM     28  H   UNL     1      -0.800   1.704  -5.675  0.00  0.00    -0.081 HD
BRANCH  25  29
ATOM     29  C   UNL     1       3.167   1.798  -6.211  0.00  0.00    +0.212 C 
ATOM     30  O   UNL     1       3.634   2.373  -5.250  0.00  0.00    -0.276 OA
ATOM     31  N   UNL     1       3.936   1.560  -7.292  0.00  0.00    -0.329 N 
ATOM     32  H   UNL     1       3.563   1.100  -8.061  0.00  0.00    +0.145 HD
ATOM     33  H   UNL     1       4.862   1.847  -7.302  0.00  0.00    +0.145 HD
ENDBRANCH  25  29
ENDBRANCH  21  27
ENDBRANCH   2  21
TORSDOF 7
