REMARK  Name = ZINC10220686
REMARK  9 active torsions:
REMARK  status: ('A' for Active; 'I' for Inactive)
REMARK    1  A    between atoms: C_1  and  C_2
REMARK    2  A    between atoms: C_9  and  N_14
REMARK    3  A    between atoms: C_10  and  C_11
REMARK    4  A    between atoms: C_15  and  C_17
REMARK    5  A    between atoms: C_20  and  S_23
REMARK    6  A    between atoms: S_23  and  N_26
REMARK    7  A    between atoms: N_26  and  C_27
REMARK    8  A    between atoms: N_26  and  C_28
REMARK    9  A    between atoms: C_28  and  C_29
REMARK                            x       y       z     vdW  Elec       q    Type
REMARK                         _______ _______ _______ _____ _____    ______ ____
ROOT
ATOM      1  N   UNL     1       1.929  -5.845  -1.736  0.00  0.00    -0.275 N 
ATOM      2  C   UNL     1       2.226  -6.106  -3.024  0.00  0.00    +0.249 C 
ATOM      3  O   UNL     1       2.198  -5.213  -3.848  0.00  0.00    -0.270 OA
ATOM      4  H   UNL     1       1.952  -6.558  -1.079  0.00  0.00    +0.156 HD
ENDROOT
BRANCH   1  12
ATOM      5  C   UNL     1      -0.019   1.526   0.010  0.00  0.00    +0.008 C 
ATOM      6  C   UNL     1       0.002  -0.004   0.002  0.00  0.00    -0.009 C 
ATOM      7  C   UNL     1       0.742  -0.514   1.242  0.00  0.00    +0.008 C 
ATOM      8  C   UNL     1       0.557  -2.027   1.373  0.00  0.00    +0.037 C 
ATOM      9  C   UNL     1       0.941  -2.684   0.053  0.00  0.00    -0.023 A 
ATOM     10  C   UNL     1       1.008  -1.966  -1.089  0.00  0.00    -0.004 A 
ATOM     11  S   UNL     1       1.484  -3.133  -2.331  0.00  0.00    -0.077 S 
ATOM     12  C   UNL     1       1.592  -4.557  -1.350  0.00  0.00    +0.085 A 
ATOM     13  C   UNL     1       1.258  -4.096  -0.085  0.00  0.00    +0.068 A 
ATOM     14  C   UNL     1       0.736  -0.502  -1.252  0.00  0.00    +0.046 C 
BRANCH  13  15
ATOM     15  C   UNL     1       1.226  -4.998   1.070  0.00  0.00    +0.244 C 
ATOM     16  O   UNL     1       0.197  -5.582   1.358  0.00  0.00    -0.270 OA
ATOM     17  N   UNL     1       2.335  -5.182   1.813  0.00  0.00    -0.325 N 
ATOM     18  H   UNL     1       3.155  -4.716   1.584  0.00  0.00    +0.145 HD
ATOM     19  H   UNL     1       2.314  -5.779   2.577  0.00  0.00    +0.145 HD
ENDBRANCH  13  15
ENDBRANCH   1  12
BRANCH   2  20
ATOM     20  C   UNL     1       2.586  -7.480  -3.436  0.00  0.00    +0.037 A 
ATOM     21  C   UNL     1       2.625  -8.507  -2.491  0.00  0.00    +0.015 A 
ATOM     22  C   UNL     1       2.956  -9.787  -2.882  0.00  0.00    +0.029 A 
ATOM     23  C   UNL     1       3.261 -10.053  -4.206  0.00  0.00    +0.106 A 
ATOM     24  C   UNL     1       3.229  -9.038  -5.146  0.00  0.00    +0.029 A 
ATOM     25  C   UNL     1       2.894  -7.754  -4.769  0.00  0.00    +0.015 A 
BRANCH  23  26
ATOM     26  S   UNL     1       3.690 -11.690  -4.696  0.00  0.00    +0.061 S 
ATOM     27  O   UNL     1       3.117 -12.565  -3.734  0.00  0.00    -0.153 OA
ATOM     28  O   UNL     1       3.400 -11.787  -6.084  0.00  0.00    -0.153 OA
BRANCH  26  29
ATOM     29  N   UNL     1       5.333 -11.831  -4.545  0.00  0.00    -0.172 NA
ATOM     30  C   UNL     1       5.916 -12.289  -3.281  0.00  0.00    +0.132 C 
BRANCH  29  31
ATOM     31  C   UNL     1       6.204 -11.497  -5.675  0.00  0.00    +0.183 C 
BRANCH  31  32
ATOM     32  C   UNL     1       6.676 -10.072  -5.542  0.00  0.00    +0.120 A 
ATOM     33  C   UNL     1       7.789  -9.668  -4.904  0.00  0.00    +0.046 A 
ATOM     34  C   UNL     1       7.842  -8.260  -5.026  0.00  0.00    +0.041 A 
ATOM     35  C   UNL     1       6.758  -7.888  -5.730  0.00  0.00    +0.195 A 
ATOM     36  O   UNL     1       6.058  -8.990  -6.045  0.00  0.00    -0.466 OA
ENDBRANCH  31  32
ENDBRANCH  29  31
ENDBRANCH  26  29
ENDBRANCH  23  26
ENDBRANCH   2  20
TORSDOF 7
