REMARK  Name = ZINC32436848
REMARK  6 active torsions:
REMARK  status: ('A' for Active; 'I' for Inactive)
REMARK    1  A    between atoms: C_1  and  C_2
REMARK    2  A    between atoms: C_5  and  S_11
REMARK    3  A    between atoms: C_7  and  N_8
REMARK    4  A    between atoms: S_11  and  N_14
REMARK    5  A    between atoms: N_14  and  C_15
REMARK    6  A    between atoms: C_21  and  C_23
REMARK                            x       y       z     vdW  Elec       q    Type
REMARK                         _______ _______ _______ _____ _____    ______ ____
ROOT
ATOM      1  N   UNL     1       3.890   3.369  -0.885  0.00  0.00    -0.187 NA
ATOM      2  H   UNL     1       4.585   2.945  -1.625  0.00  0.00    +0.148 HD
ENDROOT
BRANCH   1   3
ATOM      3  C   UNL     1       3.136   4.584  -1.201  0.00  0.00    +0.079 C 
ATOM      4  C   UNL     1       2.002   4.243  -2.171  0.00  0.00    +0.039 C 
ATOM      5  C   UNL     1       1.194   5.510  -2.472  0.00  0.00    +0.109 C 
ATOM      6  N   UNL     1       2.111   6.551  -2.956  0.00  0.00    -0.301 N 
ATOM      7  C   UNL     1       3.286   6.893  -2.143  0.00  0.00    +0.109 C 
ATOM      8  C   UNL     1       4.070   5.611  -1.846  0.00  0.00    +0.039 C 
ATOM      9  C   UNL     1       1.878   7.181  -4.125  0.00  0.00    +0.219 C 
ATOM     10  O   UNL     1       0.937   6.851  -4.815  0.00  0.00    -0.275 OA
BRANCH   9  11
ATOM     11  C   UNL     1       2.788   8.295  -4.575  0.00  0.00    +0.075 C 
ATOM     12  C   UNL     1       2.598   9.508  -3.662  0.00  0.00    +0.013 C 
ATOM     13  C   UNL     1       3.522  10.639  -4.118  0.00  0.00    +0.001 C 
ATOM     14  C   UNL     1       3.180  11.027  -5.558  0.00  0.00    +0.000 C 
ATOM     15  C   UNL     1       3.370   9.814  -6.471  0.00  0.00    +0.001 C 
ATOM     16  C   UNL     1       2.446   8.683  -6.015  0.00  0.00    +0.013 C 
ENDBRANCH   9  11
ENDBRANCH   1   3
BRANCH   1  17
ATOM     17  S   UNL     1       3.521   2.494   0.472  0.00  0.00    +0.059 S 
ATOM     18  O   UNL     1       3.453   3.422   1.547  0.00  0.00    -0.153 OA
ATOM     19  O   UNL     1       4.397   1.376   0.485  0.00  0.00    -0.153 OA
BRANCH  17  24
ATOM     20  C   UNL     1      -2.054   0.314  -0.284  0.00  0.00    +0.046 C 
ATOM     21  C   UNL     1      -0.661   0.857  -0.092  0.00  0.00    -0.020 A 
ATOM     22  C   UNL     1       0.431   0.122  -0.512  0.00  0.00    +0.007 A 
ATOM     23  C   UNL     1       1.708   0.622  -0.342  0.00  0.00    +0.029 A 
ATOM     24  C   UNL     1       1.893   1.856   0.254  0.00  0.00    +0.107 A 
ATOM     25  C   UNL     1       0.801   2.589   0.678  0.00  0.00    +0.061 A 
ATOM     26  C   UNL     1      -0.477   2.089   0.507  0.00  0.00    +0.131 A 
BRANCH  26  27
ATOM     27  N   UNL     1      -1.646   2.874   0.960  0.00  0.00    +0.057 N 
ATOM     28  O   UNL     1      -1.494   4.009   1.376  0.00  0.00    -0.126 OA
ATOM     29  O   UNL     1      -2.761   2.386   0.918  0.00  0.00    -0.126 OA
ENDBRANCH  26  27
ENDBRANCH  17  24
ENDBRANCH   1  17
TORSDOF 5
