REMARK  Name = ZINC25524294
REMARK  9 active torsions:
REMARK  status: ('A' for Active; 'I' for Inactive)
REMARK    1  A    between atoms: C_1  and  O_2
REMARK    2  A    between atoms: O_2  and  C_3
REMARK    3  A    between atoms: C_5  and  C_11
REMARK    4  A    between atoms: C_7  and  O_9
REMARK    5  A    between atoms: O_9  and  C_10
REMARK    6  A    between atoms: N_13  and  N_14
REMARK    7  A    between atoms: N_14  and  S_15
REMARK    8  A    between atoms: S_15  and  C_18
REMARK    9  A    between atoms: C_21  and  N_24
REMARK                            x       y       z     vdW  Elec       q    Type
REMARK                         _______ _______ _______ _____ _____    ______ ____
ROOT
ATOM      1  S   UNL     1      -2.364   1.343  -1.154  0.00  0.00    +0.074 S 
ATOM      2  O   UNL     1      -3.587   2.064  -1.109  0.00  0.00    -0.152 OA
ATOM      3  O   UNL     1      -1.446   1.465  -2.232  0.00  0.00    -0.152 OA
ENDROOT
BRANCH   1   4
ATOM      4  C   UNL     1      -2.782  -0.365  -1.040  0.00  0.00    +0.107 A 
ATOM      5  C   UNL     1      -1.917  -1.322  -1.540  0.00  0.00    +0.030 A 
ATOM      6  C   UNL     1      -2.240  -2.662  -1.448  0.00  0.00    +0.030 A 
ATOM      7  C   UNL     1      -3.438  -3.047  -0.860  0.00  0.00    +0.069 A 
ATOM      8  C   UNL     1      -4.306  -2.084  -0.363  0.00  0.00    +0.030 A 
ATOM      9  C   UNL     1      -3.975  -0.746  -0.455  0.00  0.00    +0.030 A 
BRANCH   7  10
ATOM     10  N   UNL     1      -3.769  -4.404  -0.769  0.00  0.00    -0.196 N 
ATOM     11  C   UNL     1      -3.659  -5.197  -1.854  0.00  0.00    +0.292 A 
ATOM     12  O   UNL     1      -3.272  -4.736  -2.916  0.00  0.00    -0.264 OA
ATOM     13  C   UNL     1      -3.995  -6.561  -1.751  0.00  0.00    +0.127 A 
ATOM     14  C   UNL     1      -4.426  -7.052  -0.553  0.00  0.00    +0.084 A 
ATOM     15  C   UNL     1      -4.527  -6.196   0.554  0.00  0.00    +0.155 A 
ATOM     16  N   UNL     1      -4.208  -4.934   0.450  0.00  0.00    -0.170 NA
ATOM     17 CL   UNL     1      -4.846  -8.729  -0.399  0.00  0.00    -0.080 Cl
ATOM     18 CL   UNL     1      -3.863  -7.604  -3.132  0.00  0.00    -0.076 Cl
ENDBRANCH   7  10
ENDBRANCH   1   4
BRANCH   1  19
ATOM     19  N   UNL     1      -1.532   1.736   0.223  0.00  0.00    -0.108 NA
ATOM     20  H   UNL     1      -1.875   2.422   0.817  0.00  0.00    +0.172 HD
BRANCH  19  23
ATOM     21  C   UNL     1       0.790   1.793   0.744  0.00  0.00    +0.259 C 
ATOM     22  O   UNL     1       0.762   3.006   0.677  0.00  0.00    -0.269 OA
ATOM     23  N   UNL     1      -0.333   1.080   0.529  0.00  0.00    -0.228 N 
ATOM     24  H   UNL     1      -0.308  -0.018   0.593  0.00  0.00    +0.171 HD
BRANCH  21  27
ATOM     25  C   UNL     1       4.405   1.182   1.581  0.00  0.00    +0.124 A 
ATOM     26  C   UNL     1       3.221   1.835   1.284  0.00  0.00    +0.059 A 
ATOM     27  C   UNL     1       2.057   1.099   1.061  0.00  0.00    +0.045 A 
ATOM     28  C   UNL     1       2.091  -0.293   1.143  0.00  0.00    +0.059 A 
ATOM     29  C   UNL     1       3.281  -0.939   1.435  0.00  0.00    +0.124 A 
ATOM     30  C   UNL     1       4.436  -0.203   1.657  0.00  0.00    +0.091 A 
BRANCH  25  32
ATOM     31  C   UNL     1       6.726   1.160   2.100  0.00  0.00    +0.277 C 
ATOM     32  O   UNL     1       5.540   1.898   1.798  0.00  0.00    -0.495 OA
ENDBRANCH  25  32
BRANCH  29  33
ATOM     33  O   UNL     1       3.316  -2.296   1.511  0.00  0.00    -0.495 OA
ATOM     34  C   UNL     1       4.574  -2.896   1.822  0.00  0.00    +0.277 C 
ENDBRANCH  29  33
ENDBRANCH  21  27
ENDBRANCH  19  23
ENDBRANCH   1  19
TORSDOF 7
