REMARK  Name = ZINC13113445
REMARK  10 active torsions:
REMARK  status: ('A' for Active; 'I' for Inactive)
REMARK    1  A    between atoms: C_10  and  S_22
REMARK    2  A    between atoms: N_11  and  C_15
REMARK    3  A    between atoms: C_15  and  C_16
REMARK    4  A    between atoms: S_22  and  C_23
REMARK    5  A    between atoms: C_23  and  C_24
REMARK    6  A    between atoms: C_24  and  C_25
REMARK    7  A    between atoms: C_25  and  C_26
REMARK    8  A    between atoms: C_26  and  N_27
REMARK    9  A    between atoms: C_28  and  C_30
REMARK   10  A    between atoms: C_35  and  C_36
REMARK                            x       y       z     vdW  Elec       q    Type
REMARK                         _______ _______ _______ _____ _____    ______ ____
ROOT
ATOM      1  C   UNL     1       3.099  -2.564   3.923  0.00  0.00    +0.001 A 
ATOM      2  C   UNL     1       2.761  -1.462   4.685  0.00  0.00    +0.002 A 
ATOM      3  C   UNL     1       1.818  -0.535   4.266  0.00  0.00    +0.023 A 
ATOM      4  C   UNL     1       1.212  -0.751   3.030  0.00  0.00    +0.038 A 
ATOM      5  C   UNL     1       1.574  -1.869   2.239  0.00  0.00    +0.022 A 
ATOM      6  C   UNL     1       2.521  -2.798   2.686  0.00  0.00    +0.012 A 
ATOM      7  C   UNL     1       0.810  -1.819   0.984  0.00  0.00    +0.108 C 
ATOM      8  N   UNL     1       0.969  -2.380  -0.176  0.00  0.00    -0.173 NA
ATOM      9  N   UNL     1       0.365  -1.868  -1.199  0.00  0.00    -0.258 N 
ATOM     10  C   UNL     1      -0.212  -0.683  -1.177  0.00  0.00    +0.152 C 
ATOM     11  N   UNL     1      -0.230   0.070  -0.010  0.00  0.00    -0.284 N 
ATOM     12  C   UNL     1      -0.226  -0.725   1.226  0.00  0.00    +0.213 C 
ATOM     13  N   UNL     1       0.234   0.004   2.402  0.00  0.00    -0.320 N 
ATOM     14  H   UNL     1      -0.202   0.985   2.646  0.00  0.00    +0.148 HD
ATOM     15  H   UNL     1       0.348  -2.471  -2.118  0.00  0.00    +0.191 HD
ENDROOT
BRANCH  11  16
ATOM     16  C   UNL     1      -0.257   1.534  -0.011  0.00  0.00    +0.140 C 
BRANCH  16  17
ATOM     17  C   UNL     1       1.176   2.071   0.001  0.00  0.00    +0.136 C 
ATOM     18  C   UNL     1       1.170   3.619   0.072  0.00  0.00    +0.035 C 
ATOM     19  C   UNL     1       2.561   3.890   0.708  0.00  0.00    +0.031 C 
ATOM     20  C   UNL     1       2.729   2.682   1.655  0.00  0.00    +0.160 C 
ATOM     21  O   UNL     1       1.859   1.643   1.190  0.00  0.00    -0.375 OA
ENDBRANCH  16  17
ENDBRANCH  11  16
BRANCH  10  22
ATOM     22  S   UNL     1      -0.962  -0.046  -2.639  0.00  0.00    -0.091 S 
BRANCH  22  23
ATOM     23  C   UNL     1      -0.637  -1.413  -3.780  0.00  0.00    +0.077 C 
BRANCH  23  24
ATOM     24  C   UNL     1      -1.215  -1.076  -5.157  0.00  0.00    +0.013 C 
BRANCH  24  25
ATOM     25  C   UNL     1      -0.940  -2.231  -6.122  0.00  0.00    +0.019 C 
BRANCH  25  26
ATOM     26  C   UNL     1      -1.517  -1.894  -7.498  0.00  0.00    +0.104 C 
BRANCH  26  27
ATOM     27  N   UNL     1      -1.254  -3.000  -8.422  0.00  0.00    -0.311 N 
ATOM     28  C   UNL     1      -1.675  -2.925  -9.700  0.00  0.00    +0.245 C 
ATOM     29  O   UNL     1      -2.272  -1.939 -10.086  0.00  0.00    -0.270 OA
ATOM     30  H   UNL     1      -0.713  -3.892  -8.072  0.00  0.00    +0.149 HD
BRANCH  28  31
ATOM     31  C   UNL     1      -1.409  -4.042 -10.633  0.00  0.00    +0.051 A 
ATOM     32  C   UNL     1      -1.818  -5.333 -10.314  0.00  0.00    +0.014 A 
ATOM     33  C   UNL     1      -1.572  -6.373 -11.191  0.00  0.00    +0.001 A 
ATOM     34  C   UNL     1      -0.911  -6.141 -12.384  0.00  0.00    +0.001 A 
ATOM     35  C   UNL     1      -0.492  -4.866 -12.716  0.00  0.00    +0.016 A 
ATOM     36  C   UNL     1      -0.736  -3.805 -11.846  0.00  0.00    +0.075 A 
BRANCH  36  37
ATOM     37  C   UNL     1      -0.289  -2.440 -12.196  0.00  0.00    +0.387 C 
ATOM     38  O   UNL     1      -0.403  -1.539 -11.389  0.00  0.00    -0.241 OA
ATOM     39  O   UNL     1       0.243  -2.195 -13.409  0.00  0.00    -0.241 OA
ENDBRANCH  36  37
ENDBRANCH  28  31
ENDBRANCH  26  27
ENDBRANCH  25  26
ENDBRANCH  24  25
ENDBRANCH  23  24
ENDBRANCH  22  23
ENDBRANCH  10  22
TORSDOF 10
