REMARK  Name = ZINC06133693
REMARK  10 active torsions:
REMARK  status: ('A' for Active; 'I' for Inactive)
REMARK    1  A    between atoms: C_1  and  C_2
REMARK    2  A    between atoms: C_5  and  O_28
REMARK    3  A    between atoms: C_7  and  C_25
REMARK    4  A    between atoms: C_7  and  C_26
REMARK    5  A    between atoms: C_12  and  O_24
REMARK    6  A    between atoms: C_14  and  C_16
REMARK    7  A    between atoms: C_16  and  C_17
REMARK    8  A    between atoms: C_26  and  O_27
REMARK    9  A    between atoms: O_28  and  C_29
REMARK   10  A    between atoms: N_31  and  C_32
REMARK                            x       y       z     vdW  Elec       q    Type
REMARK                         _______ _______ _______ _____ _____    ______ ____
ROOT
ATOM      1  C   UNL     1      -2.564  -1.968   1.392  0.00  0.00    +0.012 C 
ATOM      2  C   UNL     1      -1.765  -2.143   0.099  0.00  0.00    -0.023 C 
ATOM      3  C   UNL     1      -1.300  -3.596  -0.020  0.00  0.00    +0.011 C 
ATOM      4  C   UNL     1      -2.518  -4.521  -0.044  0.00  0.00    +0.046 C 
ATOM      5  C   UNL     1      -3.402  -4.170  -1.242  0.00  0.00    +0.186 C 
ATOM      6  C   UNL     1      -3.868  -2.717  -1.123  0.00  0.00    +0.031 C 
ATOM      7  C   UNL     1      -2.649  -1.792  -1.099  0.00  0.00    +0.007 C 
ATOM      8  C   UNL     1      -1.850  -1.967  -2.392  0.00  0.00    +0.007 C 
ATOM      9  C   UNL     1      -0.632  -1.041  -2.368  0.00  0.00    +0.032 C 
ATOM     10  C   UNL     1       0.252  -1.393  -1.170  0.00  0.00    +0.119 C 
ATOM     11  C   UNL     1      -0.547  -1.218   0.123  0.00  0.00    +0.032 C 
ATOM     12  C   UNL     1      -4.752  -2.365  -2.321  0.00  0.00    +0.017 C 
ENDROOT
BRANCH  10  13
ATOM     13  O   UNL     1       1.390  -0.529  -1.148  0.00  0.00    -0.391 OA
ATOM     14  H   UNL     1       2.144  -0.632  -0.353  0.00  0.00    +0.210 HD
ENDBRANCH  10  13
BRANCH  11  15
ATOM     15  C   UNL     1      -1.012   0.235   0.241  0.00  0.00    +0.102 C 
BRANCH  15  16
ATOM     16  C   UNL     1       0.155   1.107   0.625  0.00  0.00    +0.216 C 
ATOM     17  O   UNL     1       1.200   0.601   0.975  0.00  0.00    -0.276 OA
ATOM     18  N   UNL     1       0.038   2.449   0.581  0.00  0.00    -0.301 N 
ATOM     19  C   UNL     1      -1.164   3.191   0.172  0.00  0.00    +0.108 C 
ATOM     20  C   UNL     1      -0.825   4.694   0.254  0.00  0.00    +0.020 C 
ATOM     21  C   UNL     1       0.723   4.705   0.153  0.00  0.00    +0.020 C 
ATOM     22  C   UNL     1       1.095   3.416   0.928  0.00  0.00    +0.108 C 
ENDBRANCH  15  16
ENDBRANCH  11  15
BRANCH   6  23
ATOM     23  C   UNL     1      -4.667  -2.542   0.170  0.00  0.00    +0.166 C 
BRANCH  23  24
ATOM     24  O   UNL     1      -5.901  -3.254   0.067  0.00  0.00    -0.394 OA
ATOM     25  H   UNL     1      -6.613  -3.244   0.905  0.00  0.00    +0.209 HD
ENDBRANCH  23  24
ENDBRANCH   6  23
BRANCH   5  26
ATOM     26  O   UNL     1      -4.558  -5.048  -1.264  0.00  0.00    -0.446 OA
BRANCH  26  27
ATOM     27  C   UNL     1      -4.437  -6.200  -1.952  0.00  0.00    +0.405 C 
ATOM     28  O   UNL     1      -3.394  -6.463  -2.517  0.00  0.00    -0.226 OA
ATOM     29  N   UNL     1      -5.473  -7.060  -2.013  0.00  0.00    -0.251 N 
ATOM     30  H   UNL     1      -6.386  -6.863  -1.432  0.00  0.00    +0.158 HD
BRANCH  29  31
ATOM     31  C   UNL     1      -5.386  -8.204  -2.814  0.00  0.00    +0.036 A 
ATOM     32  C   UNL     1      -4.580  -8.202  -3.944  0.00  0.00    +0.023 A 
ATOM     33  C   UNL     1      -4.491  -9.335  -4.730  0.00  0.00    +0.002 A 
ATOM     34  C   UNL     1      -5.215 -10.466  -4.399  0.00  0.00    +0.000 A 
ATOM     35  C   UNL     1      -6.024 -10.468  -3.277  0.00  0.00    +0.002 A 
ATOM     36  C   UNL     1      -6.112  -9.341  -2.484  0.00  0.00    +0.023 A 
ENDBRANCH  29  31
ENDBRANCH  26  27
ENDBRANCH   5  26
TORSDOF 8
