REMARK  Name = ZINC04125046
REMARK  11 active torsions:
REMARK  status: ('A' for Active; 'I' for Inactive)
REMARK    1  A    between atoms: C_1  and  C_2
REMARK    2  A    between atoms: C_2  and  C_3
REMARK    3  A    between atoms: C_2  and  C_4
REMARK    4  A    between atoms: C_2  and  C_5
REMARK    5  A    between atoms: C_5  and  N_6
REMARK    6  A    between atoms: N_6  and  C_7
REMARK    7  A    between atoms: C_9  and  N_16
REMARK    8  A    between atoms: C_12  and  N_13
REMARK    9  A    between atoms: C_22  and  C_24
REMARK   10  A    between atoms: C_27  and  O_30
REMARK   11  A    between atoms: O_30  and  C_31
REMARK                            x       y       z     vdW  Elec       q    Type
REMARK                         _______ _______ _______ _____ _____    ______ ____
ROOT
ATOM      1  C   UNL     1      -2.101  -2.263  -2.536  0.00  0.00    +0.059 A 
ATOM      2  C   UNL     1      -1.927  -3.478  -1.888  0.00  0.00    +0.048 A 
ATOM      3  C   UNL     1      -0.685  -4.095  -1.898  0.00  0.00    +0.032 A 
ATOM      4  C   UNL     1       0.381  -3.498  -2.562  0.00  0.00    +0.025 A 
ATOM      5  C   UNL     1       0.203  -2.291  -3.211  0.00  0.00    +0.036 A 
ATOM      6  C   UNL     1      -1.033  -1.674  -3.203  0.00  0.00    +0.147 A 
ENDROOT
BRANCH   3   7
ATOM      7  N   UNL     1      -0.504  -5.314  -1.241  0.00  0.00    -0.327 N 
ATOM      8  C   UNL     1      -0.897  -5.215   0.171  0.00  0.00    +0.124 C 
ATOM      9  C   UNL     1      -0.857  -6.608   0.808  0.00  0.00    +0.127 C 
ATOM     10  N   UNL     1       0.472  -7.192   0.571  0.00  0.00    -0.295 N 
ATOM     11  C   UNL     1       0.993  -7.202  -0.804  0.00  0.00    +0.127 C 
ATOM     12  C   UNL     1       0.880  -5.785  -1.377  0.00  0.00    +0.124 C 
ATOM     13  C   UNL     1       1.193  -7.704   1.588  0.00  0.00    +0.247 C 
ATOM     14  O   UNL     1       0.706  -7.785   2.699  0.00  0.00    -0.270 OA
BRANCH  13  15
ATOM     15  C   UNL     1       2.575  -8.167   1.353  0.00  0.00    +0.037 A 
ATOM     16  C   UNL     1       3.385  -7.511   0.423  0.00  0.00    +0.016 A 
ATOM     17  C   UNL     1       4.675  -7.942   0.211  0.00  0.00    +0.046 A 
ATOM     18  C   UNL     1       5.168  -9.037   0.911  0.00  0.00    +0.120 A 
ATOM     19  C   UNL     1       4.364  -9.696   1.833  0.00  0.00    +0.046 A 
ATOM     20  C   UNL     1       3.074  -9.267   2.056  0.00  0.00    +0.016 A 
BRANCH  18  21
ATOM     21  O   UNL     1       6.439  -9.462   0.695  0.00  0.00    -0.495 OA
ATOM     22  C   UNL     1       7.210  -8.739  -0.266  0.00  0.00    +0.277 C 
ENDBRANCH  18  21
ENDBRANCH  13  15
ENDBRANCH   3   7
BRANCH   6  23
ATOM     23  N   UNL     1      -1.219  -0.381  -3.899  0.00  0.00    +0.058 N 
ATOM     24  O   UNL     1      -0.259   0.197  -4.377  0.00  0.00    -0.126 OA
ATOM     25  O   UNL     1      -2.332   0.102  -4.000  0.00  0.00    -0.126 OA
ENDBRANCH   6  23
BRANCH   1  26
ATOM     26  N   UNL     1      -3.349  -1.635  -2.523  0.00  0.00    -0.342 N 
ATOM     27  H   UNL     1      -3.447  -0.744  -2.893  0.00  0.00    +0.146 HD
BRANCH  26  28
ATOM     28  C   UNL     1      -4.508  -2.322  -1.950  0.00  0.00    +0.107 C 
BRANCH  28  30
ATOM     29  C   UNL     1      -6.011  -1.106  -3.533  0.00  0.00    +0.012 C 
ATOM     30  C   UNL     1      -5.741  -1.423  -2.061  0.00  0.00    -0.022 C 
ATOM     31  C   UNL     1      -6.952  -2.141  -1.462  0.00  0.00    +0.012 C 
ATOM     32  C   UNL     1      -5.491  -0.120  -1.297  0.00  0.00    +0.012 C 
ENDBRANCH  28  30
ENDBRANCH  26  28
ENDBRANCH   1  26
TORSDOF 7
