REMARK  Name = ZINC13988406
REMARK  9 active torsions:
REMARK  status: ('A' for Active; 'I' for Inactive)
REMARK    1  A    between atoms: C_4  and  C_7
REMARK    2  A    between atoms: C_7  and  O_8
REMARK    3  A    between atoms: O_8  and  C_9
REMARK    4  A    between atoms: C_9  and  C_11
REMARK    5  A    between atoms: C_11  and  C_12
REMARK    6  A    between atoms: N_19  and  C_20
REMARK    7  A    between atoms: C_20  and  N_22
REMARK    8  A    between atoms: C_23  and  C_25
REMARK    9  A    between atoms: C_30  and  N_31
REMARK                            x       y       z     vdW  Elec       q    Type
REMARK                         _______ _______ _______ _____ _____    ______ ____
ROOT
ATOM      1  C   UNL     1      -5.980   5.729  -2.743  0.00  0.00    +0.171 C 
ATOM      2  C   UNL     1      -6.600   5.761  -4.113  0.00  0.00    +0.234 C 
ATOM      3  O   UNL     1      -6.929   4.711  -4.624  0.00  0.00    -0.274 OA
ATOM      4  N   UNL     1      -6.805   6.890  -4.793  0.00  0.00    -0.312 N 
ATOM      5  C   UNL     1      -6.546   8.226  -4.273  0.00  0.00    +0.123 C 
ATOM      6  C   UNL     1      -5.540   8.175  -3.121  0.00  0.00    +0.126 C 
ATOM      7  N   UNL     1      -5.947   7.097  -2.204  0.00  0.00    -0.299 N 
ATOM      8  H   UNL     1      -7.151   6.817  -5.696  0.00  0.00    +0.149 HD
ENDROOT
BRANCH   7   9
ATOM      9  C   UNL     1      -6.276   7.354  -0.922  0.00  0.00    +0.140 C 
ATOM     10  S   UNL     1      -6.279   8.966  -0.346  0.00  0.00    -0.018 S 
BRANCH   9  11
ATOM     11  N   UNL     1      -6.602   6.341  -0.094  0.00  0.00    -0.264 N 
ATOM     12  C   UNL     1      -6.831   6.585   1.211  0.00  0.00    +0.252 C 
ATOM     13  O   UNL     1      -6.743   7.718   1.642  0.00  0.00    -0.270 OA
ATOM     14  H   UNL     1      -6.672   5.437  -0.438  0.00  0.00    +0.157 HD
BRANCH  12  15
ATOM     15  C   UNL     1      -7.189   5.476   2.119  0.00  0.00    +0.067 A 
ATOM     16  C   UNL     1      -8.290   4.665   1.835  0.00  0.00    +0.015 A 
ATOM     17  C   UNL     1      -8.618   3.631   2.686  0.00  0.00    +0.001 A 
ATOM     18  C   UNL     1      -7.859   3.395   3.819  0.00  0.00    +0.002 A 
ATOM     19  C   UNL     1      -6.767   4.195   4.106  0.00  0.00    +0.033 A 
ATOM     20  C   UNL     1      -6.425   5.229   3.261  0.00  0.00    +0.138 A 
BRANCH  20  21
ATOM     21  N   UNL     1      -5.252   6.080   3.566  0.00  0.00    +0.057 N 
ATOM     22  O   UNL     1      -4.541   5.817   4.519  0.00  0.00    -0.126 OA
ATOM     23  O   UNL     1      -4.999   7.042   2.864  0.00  0.00    -0.126 OA
ENDBRANCH  20  21
ENDBRANCH  12  15
ENDBRANCH   9  11
ENDBRANCH   7   9
BRANCH   1  24
ATOM     24  C   UNL     1      -4.555   5.181  -2.838  0.00  0.00    +0.152 C 
BRANCH  24  25
ATOM     25  C   UNL     1      -3.987   5.017  -1.452  0.00  0.00    +0.310 C 
ATOM     26  O   UNL     1      -4.617   5.393  -0.492  0.00  0.00    -0.251 OA
BRANCH  25  27
ATOM     27  O   UNL     1      -2.780   4.453  -1.283  0.00  0.00    -0.460 OA
BRANCH  27  28
ATOM     28  C   UNL     1      -2.296   4.327   0.080  0.00  0.00    +0.267 C 
BRANCH  28  32
ATOM     29  C   UNL     1       1.557   2.484   0.056  0.00  0.00    +0.000 A 
ATOM     30  C   UNL     1       0.419   1.705   0.144  0.00  0.00    +0.000 A 
ATOM     31  C   UNL     1      -0.828   2.301   0.147  0.00  0.00    +0.007 A 
ATOM     32  C   UNL     1      -0.936   3.677   0.072  0.00  0.00    -0.010 A 
ATOM     33  C   UNL     1       0.202   4.456  -0.016  0.00  0.00    +0.007 A 
ATOM     34  C   UNL     1       1.449   3.859  -0.024  0.00  0.00    +0.000 A 
ENDBRANCH  28  32
ENDBRANCH  27  28
ENDBRANCH  25  27
ENDBRANCH  24  25
ENDBRANCH   1  24
TORSDOF 9
