REMARK  Name = ZINC05966763
REMARK  9 active torsions:
REMARK  status: ('A' for Active; 'I' for Inactive)
REMARK    1  A    between atoms: C_1  and  N_2
REMARK    2  A    between atoms: N_2  and  C_3
REMARK    3  A    between atoms: C_3  and  C_4
REMARK    4  A    between atoms: N_6  and  C_7
REMARK    5  A    between atoms: C_14  and  C_16
REMARK    6  A    between atoms: C_16  and  O_17
REMARK    7  A    between atoms: O_17  and  C_18
REMARK    8  A    between atoms: C_18  and  C_20
REMARK    9  A    between atoms: C_23  and  N_26
REMARK                            x       y       z     vdW  Elec       q    Type
REMARK                         _______ _______ _______ _____ _____    ______ ____
ROOT
ATOM      1  C   UNL     1       2.835  -7.084  -0.051  0.00  0.00    +0.132 C 
ATOM      2  N   UNL     1       3.976  -6.166  -0.067  0.00  0.00    -0.293 N 
ATOM      3  C   UNL     1       3.770  -4.834  -0.066  0.00  0.00    +0.253 C 
ATOM      4  O   UNL     1       4.715  -4.074  -0.079  0.00  0.00    -0.272 OA
ENDROOT
BRANCH   2   5
ATOM      5  C   UNL     1       5.342  -6.695  -0.083  0.00  0.00    +0.203 C 
BRANCH   5   6
ATOM      6  C   UNL     1       5.829  -6.875   1.332  0.00  0.00    +0.235 C 
ATOM      7  O   UNL     1       5.106  -6.589   2.263  0.00  0.00    -0.274 OA
ATOM      8  N   UNL     1       7.067  -7.353   1.563  0.00  0.00    -0.283 N 
ATOM      9  H   UNL     1       7.621  -7.643   0.822  0.00  0.00    +0.155 HD
BRANCH   8  10
ATOM     10  C   UNL     1       7.554  -7.432   2.873  0.00  0.00    +0.052 A 
ATOM     11  C   UNL     1       6.691  -7.730   3.919  0.00  0.00    +0.025 A 
ATOM     12  C   UNL     1       7.175  -7.813   5.210  0.00  0.00    +0.002 A 
ATOM     13  C   UNL     1       8.516  -7.588   5.464  0.00  0.00    +0.002 A 
ATOM     14  C   UNL     1       9.377  -7.285   4.426  0.00  0.00    +0.022 A 
ATOM     15  C   UNL     1       8.900  -7.206   3.131  0.00  0.00    +0.062 A 
ATOM     16 CL   UNL     1       9.983  -6.826   1.828  0.00  0.00    -0.082 Cl
ENDBRANCH   8  10
ENDBRANCH   5   6
ENDBRANCH   2   5
BRANCH   3  17
ATOM     17  C   UNL     1       2.365  -4.289  -0.049  0.00  0.00    +0.328 C 
BRANCH  17  18
ATOM     18  O   UNL     1       2.408  -2.838  -0.051  0.00  0.00    -0.452 OA
BRANCH  18  19
ATOM     19  C   UNL     1       1.227  -2.191  -0.037  0.00  0.00    +0.340 C 
ATOM     20  O   UNL     1       0.189  -2.822  -0.023  0.00  0.00    -0.245 OA
BRANCH  19  21
ATOM     21  C   UNL     1       1.194  -0.714  -0.039  0.00  0.00    +0.059 A 
ATOM     22  C   UNL     1      -0.029  -0.040  -0.024  0.00  0.00    +0.017 A 
ATOM     23  C   UNL     1      -0.053   1.339  -0.025  0.00  0.00    +0.033 A 
ATOM     24  C   UNL     1       1.131   2.055  -0.041  0.00  0.00    +0.126 A 
ATOM     25  C   UNL     1       2.347   1.393  -0.056  0.00  0.00    +0.033 A 
ATOM     26  C   UNL     1       2.385   0.014  -0.054  0.00  0.00    +0.017 A 
BRANCH  24  27
ATOM     27  N   UNL     1       1.098   3.535  -0.043  0.00  0.00    +0.056 N 
ATOM     28  O   UNL     1       0.030   4.120  -0.030  0.00  0.00    -0.126 OA
ATOM     29  O   UNL     1       2.139   4.167  -0.056  0.00  0.00    -0.126 OA
ENDBRANCH  24  27
ENDBRANCH  19  21
ENDBRANCH  18  19
ENDBRANCH  17  18
ENDBRANCH   3  17
TORSDOF 8
