REMARK  Name = ZINC24876621
REMARK  9 active torsions:
REMARK  status: ('A' for Active; 'I' for Inactive)
REMARK    1  A    between atoms: C_1  and  C_2
REMARK    2  A    between atoms: C_2  and  O_3
REMARK    3  A    between atoms: O_3  and  C_4
REMARK    4  A    between atoms: C_9  and  N_10
REMARK    5  A    between atoms: C_11  and  C_13
REMARK    6  A    between atoms: C_13  and  N_14
REMARK    7  A    between atoms: C_17  and  C_21
REMARK    8  A    between atoms: C_17  and  C_22
REMARK    9  A    between atoms: C_22  and  C_23
REMARK                            x       y       z     vdW  Elec       q    Type
REMARK                         _______ _______ _______ _____ _____    ______ ____
ROOT
ATOM      1  N   UNL     1       1.056   2.062   0.002  0.00  0.00    -0.215 N 
ATOM      2  C   UNL     1      -0.011   1.238   0.015  0.00  0.00    +0.247 C 
ATOM      3  O   UNL     1       0.001   0.025   0.017  0.00  0.00    -0.273 OA
ATOM      4  C   UNL     1      -1.227   2.142   0.021  0.00  0.00    +0.114 C 
ATOM      5  N   UNL     1      -0.651   3.498   0.017  0.00  0.00    -0.285 N 
ATOM      6  C   UNL     1       0.686   3.347   0.003  0.00  0.00    +0.310 C 
ATOM      7  O   UNL     1       1.470   4.276  -0.008  0.00  0.00    -0.252 OA
ATOM      8  C   UNL     1      -2.075   1.911  -1.232  0.00  0.00    +0.042 C 
ATOM      9  H   UNL     1      -1.312   4.376   0.026  0.00  0.00    +0.151 HD
ENDROOT
BRANCH   1  10
ATOM     10  C   UNL     1       2.448   1.606  -0.014  0.00  0.00    +0.214 C 
BRANCH  10  12
ATOM     11  N   UNL     1       4.166   1.034  -1.699  0.00  0.00    -0.281 N 
ATOM     12  C   UNL     1       2.909   1.447  -1.440  0.00  0.00    +0.235 C 
ATOM     13  O   UNL     1       2.150   1.691  -2.353  0.00  0.00    -0.274 OA
ATOM     14  H   UNL     1       4.877   0.884  -0.874  0.00  0.00    +0.155 HD
BRANCH  11  20
ATOM     15  C   UNL     1       5.471  -0.223  -3.304  0.00  0.00    +0.142 A 
ATOM     16  C   UNL     1       5.859  -0.456  -4.614  0.00  0.00    +0.047 A 
ATOM     17  C   UNL     1       5.357   0.329  -5.634  0.00  0.00    +0.004 A 
ATOM     18  C   UNL     1       4.462   1.345  -5.353  0.00  0.00    +0.002 A 
ATOM     19  C   UNL     1       4.066   1.581  -4.051  0.00  0.00    +0.027 A 
ATOM     20  C   UNL     1       4.566   0.797  -3.021  0.00  0.00    +0.076 A 
BRANCH  15  21
ATOM     21  O   UNL     1       5.969  -0.991  -2.299  0.00  0.00    -0.490 OA
BRANCH  21  23
ATOM     22  C   UNL     1       7.340  -2.771  -1.408  0.00  0.00    +0.048 C 
ATOM     23  C   UNL     1       6.893  -2.018  -2.663  0.00  0.00    +0.226 C 
ENDBRANCH  21  23
ENDBRANCH  15  21
ENDBRANCH  11  20
ENDBRANCH  10  12
ENDBRANCH   1  10
BRANCH   4  24
ATOM     24  C   UNL     1      -2.059   1.917   1.284  0.00  0.00    +0.070 C 
BRANCH  24  25
ATOM     25  C   UNL     1      -3.260   2.827   1.264  0.00  0.00    -0.041 A 
ATOM     26  C   UNL     1      -3.180   4.087   1.826  0.00  0.00    +0.007 A 
ATOM     27  C   UNL     1      -4.278   4.927   1.806  0.00  0.00    +0.050 A 
ATOM     28  C   UNL     1      -5.465   4.504   1.230  0.00  0.00    +0.166 A 
ATOM     29  C   UNL     1      -5.547   3.232   0.668  0.00  0.00    +0.166 A 
ATOM     30  C   UNL     1      -4.441   2.397   0.688  0.00  0.00    +0.053 A 
ATOM     31  O   UNL     1      -6.806   3.054   0.173  0.00  0.00    -0.453 OA
ATOM     32  C   UNL     1      -7.369   4.376   0.072  0.00  0.00    +0.466 C 
ATOM     33  O   UNL     1      -6.673   5.123   1.086  0.00  0.00    -0.453 OA
ENDBRANCH  24  25
ENDBRANCH   4  24
TORSDOF 7
