REMARK  Name = ZINC39327228
REMARK  10 active torsions:
REMARK  status: ('A' for Active; 'I' for Inactive)
REMARK    1  A    between atoms: C_1  and  C_2
REMARK    2  A    between atoms: C_2  and  O_4
REMARK    3  A    between atoms: O_4  and  C_5
REMARK    4  A    between atoms: C_8  and  C_11
REMARK    5  A    between atoms: C_14  and  C_25
REMARK    6  A    between atoms: C_20  and  N_24
REMARK    7  A    between atoms: C_21  and  C_22
REMARK    8  A    between atoms: C_25  and  C_26
REMARK    9  A    between atoms: C_25  and  C_27
REMARK   10  A    between atoms: C_25  and  C_28
REMARK                            x       y       z     vdW  Elec       q    Type
REMARK                         _______ _______ _______ _____ _____    ______ ____
ROOT
ATOM      1  C   UNL     1       0.370  -6.188  -1.712  0.00  0.00    +0.101 C 
ATOM      2  C   UNL     1       1.733  -6.655  -2.157  0.00  0.00    +0.050 A 
ATOM      3  C   UNL     1       2.895  -6.668  -1.486  0.00  0.00    +0.049 A 
ATOM      4  N   UNL     1       3.838  -7.178  -2.311  0.00  0.00    -0.277 N 
ATOM      5  H   UNL     1       4.775  -7.307  -2.093  0.00  0.00    +0.189 HD
ATOM      6  N   UNL     1       3.226  -7.489  -3.535  0.00  0.00    -0.135 NA
ATOM      7  C   UNL     1       1.966  -7.178  -3.448  0.00  0.00    +0.245 A 
ATOM      8  O   UNL     1       0.971  -7.297  -4.368  0.00  0.00    -0.421 OA
ATOM      9  C   UNL     1      -0.297  -7.154  -3.933  0.00  0.00    +0.201 C 
ATOM     10  C   UNL     1      -0.642  -6.655  -2.727  0.00  0.00    +0.098 C 
ENDROOT
BRANCH   1  14
ATOM     11  C   UNL     1       0.314  -1.921  -1.477  0.00  0.00    +0.132 A 
ATOM     12  C   UNL     1      -0.162  -2.682  -0.418  0.00  0.00    +0.046 A 
ATOM     13  C   UNL     1      -0.142  -4.061  -0.497  0.00  0.00    +0.008 A 
ATOM     14  C   UNL     1       0.350  -4.683  -1.629  0.00  0.00    -0.034 A 
ATOM     15  C   UNL     1       0.825  -3.928  -2.685  0.00  0.00    +0.008 A 
ATOM     16  C   UNL     1       0.803  -2.548  -2.614  0.00  0.00    +0.046 A 
BRANCH  11  17
ATOM     17  O   UNL     1       0.295  -0.564  -1.402  0.00  0.00    -0.426 OA
BRANCH  17  19
ATOM     18  C   UNL     1       1.340   1.544  -0.656  0.00  0.00    +0.136 C 
ATOM     19  C   UNL     1       1.251   0.040  -0.679  0.00  0.00    +0.309 C 
ATOM     20  O   UNL     1       2.040  -0.621  -0.047  0.00  0.00    -0.251 OA
ENDBRANCH  17  19
ENDBRANCH  11  17
ENDBRANCH   1  14
BRANCH   3  21
ATOM     21  C   UNL     1       3.110  -6.200  -0.070  0.00  0.00    +0.004 C 
ATOM     22  C   UNL     1       4.558  -6.468   0.342  0.00  0.00    +0.017 C 
ATOM     23  C   UNL     1       2.823  -4.700   0.020  0.00  0.00    +0.017 C 
ATOM     24  C   UNL     1       2.165  -6.956   0.866  0.00  0.00    +0.017 C 
ENDBRANCH   3  21
BRANCH   9  25
ATOM     25  N   UNL     1      -1.308  -7.543  -4.776  0.00  0.00    -0.328 N 
ATOM     26  H   UNL     1      -1.098  -7.906  -5.651  0.00  0.00    +0.145 HD
ATOM     27  H   UNL     1      -2.233  -7.455  -4.497  0.00  0.00    +0.145 HD
ENDBRANCH   9  25
BRANCH  10  28
ATOM     28  C   UNL     1      -2.032  -6.567  -2.395  0.00  0.00    +0.101 C 
ATOM     29  N   UNL     1      -3.135  -6.496  -2.132  0.00  0.00    -0.191 NA
ENDBRANCH  10  28
TORSDOF 6
