REMARK  Name = ZINC04812690
REMARK  6 active torsions:
REMARK  status: ('A' for Active; 'I' for Inactive)
REMARK    1  A    between atoms: C_1  and  N_2
REMARK    2  A    between atoms: N_7  and  C_10
REMARK    3  A    between atoms: N_11  and  C_24
REMARK    4  A    between atoms: N_14  and  N_15
REMARK    5  A    between atoms: C_16  and  C_17
REMARK    6  A    between atoms: C_24  and  C_25
REMARK                            x       y       z     vdW  Elec       q    Type
REMARK                         _______ _______ _______ _____ _____    ______ ____
ROOT
ATOM      1  C   UNL     1      -1.614  -5.312  -0.012  0.00  0.00    +0.155 C 
ATOM      2  N   UNL     1      -0.149  -5.319  -0.026  0.00  0.00    -0.280 N 
ATOM      3  C   UNL     1       0.549  -4.122  -0.026  0.00  0.00    +0.170 A 
ATOM      4  C   UNL     1       1.940  -4.156  -0.038  0.00  0.00    +0.153 A 
ATOM      5  C   UNL     1       2.595  -5.401  -0.051  0.00  0.00    +0.282 A 
ATOM      6  O   UNL     1       3.812  -5.455  -0.062  0.00  0.00    -0.265 OA
ATOM      7  N   UNL     1       1.862  -6.533  -0.051  0.00  0.00    -0.262 N 
ATOM      8  C   UNL     1       0.518  -6.488  -0.038  0.00  0.00    +0.333 A 
ATOM      9  O   UNL     1      -0.110  -7.529  -0.037  0.00  0.00    -0.246 OA
ATOM     10  C   UNL     1       2.540  -7.832  -0.064  0.00  0.00    +0.157 C 
ATOM     11  N   UNL     1       2.364  -2.835  -0.041  0.00  0.00    -0.301 N 
ATOM     12  C   UNL     1       1.243  -2.064  -0.021  0.00  0.00    +0.218 A 
ATOM     13  N   UNL     1       0.178  -2.841  -0.015  0.00  0.00    -0.195 NA
ATOM     14  N   UNL     1       1.225  -0.688  -0.013  0.00  0.00    -0.206 N 
ATOM     15  H   UNL     1       2.058  -0.192  -0.019  0.00  0.00    +0.177 HD
ENDROOT
BRANCH  14  16
ATOM     16  N   UNL     1       0.002  -0.004   0.002  0.00  0.00    -0.188 NA
ATOM     17  C   UNL     1      -0.015   1.294   0.009  0.00  0.00    +0.138 C 
BRANCH  17  18
ATOM     18  C   UNL     1      -1.302   2.014   0.019  0.00  0.00    -0.005 A 
ATOM     19  C   UNL     1      -2.505   1.302   0.015  0.00  0.00    +0.011 A 
ATOM     20  C   UNL     1      -3.705   1.981   0.030  0.00  0.00    +0.020 A 
ATOM     21  C   UNL     1      -3.720   3.366   0.037  0.00  0.00    +0.041 A 
ATOM     22  C   UNL     1      -2.532   4.078   0.036  0.00  0.00    +0.020 A 
ATOM     23  C   UNL     1      -1.325   3.410   0.027  0.00  0.00    +0.011 A 
ATOM     24 CL   UNL     1      -5.235   4.213   0.048  0.00  0.00    -0.084 Cl
ENDBRANCH  17  18
ENDBRANCH  14  16
BRANCH  11  25
ATOM     25  C   UNL     1       3.750  -2.362  -0.059  0.00  0.00    +0.152 C 
BRANCH  25  26
ATOM     26  C   UNL     1       4.247  -2.208   1.355  0.00  0.00    -0.013 C 
ATOM     27  C   UNL     1       5.340  -2.821   1.737  0.00  0.00    +0.005 C 
ENDBRANCH  25  26
ENDBRANCH  11  25
TORSDOF 4
