REMARK  Name = ZINC22789303
REMARK  8 active torsions:
REMARK  status: ('A' for Active; 'I' for Inactive)
REMARK    1  A    between atoms: C_1  and  C_2
REMARK    2  A    between atoms: C_2  and  C_4
REMARK    3  A    between atoms: C_2  and  N_18
REMARK    4  A    between atoms: N_6  and  C_7
REMARK    5  A    between atoms: C_8  and  C_15
REMARK    6  A    between atoms: N_21  and  C_24
REMARK    7  A    between atoms: C_24  and  C_25
REMARK    8  A    between atoms: N_27  and  C_28
REMARK                            x       y       z     vdW  Elec       q    Type
REMARK                         _______ _______ _______ _____ _____    ______ ____
ROOT
ATOM      1  C   UNL     1      -2.175   0.219  -5.172  0.00  0.00    +0.034 C 
ATOM      2  C   UNL     1      -2.273   1.673  -4.705  0.00  0.00    +0.140 C 
ENDROOT
BRANCH   2   3
ATOM      3  N   UNL     1      -3.191   2.409  -5.585  0.00  0.00    -0.295 NA
ATOM      4  C   UNL     1      -4.589   2.053  -5.303  0.00  0.00    +0.066 C 
ATOM      5  C   UNL     1      -5.515   2.896  -6.183  0.00  0.00    -0.063 C 
ATOM      6  N   UNL     1      -5.190   2.663  -7.597  0.00  0.00    +0.387 N 
ATOM      7  C   UNL     1      -3.792   3.019  -7.879  0.00  0.00    -0.063 C 
ATOM      8  C   UNL     1      -2.866   2.175  -6.999  0.00  0.00    +0.066 C 
ATOM      9  H   UNL     1      -5.315   1.589  -7.802  0.00  0.00    -0.081 HD
BRANCH   6  10
ATOM     10  C   UNL     1      -6.108   3.398  -8.476  0.00  0.00    +0.019 C 
BRANCH  10  11
ATOM     11  C   UNL     1      -5.907   2.949  -9.901  0.00  0.00    +0.201 C 
ATOM     12  O   UNL     1      -5.074   2.107 -10.159  0.00  0.00    -0.278 OA
ATOM     13  N   UNL     1      -6.654   3.483 -10.887  0.00  0.00    -0.287 N 
ATOM     14  H   UNL     1      -7.361   4.295 -10.664  0.00  0.00    +0.155 HD
BRANCH  13  15
ATOM     15  C   UNL     1      -6.529   3.005 -12.197  0.00  0.00    +0.036 A 
ATOM     16  C   UNL     1      -5.287   2.608 -12.677  0.00  0.00    +0.023 A 
ATOM     17  C   UNL     1      -5.167   2.132 -13.967  0.00  0.00    +0.005 A 
ATOM     18  C   UNL     1      -6.278   2.058 -14.786  0.00  0.00    +0.038 A 
ATOM     19  C   UNL     1      -7.517   2.458 -14.313  0.00  0.00    +0.125 A 
ATOM     20  C   UNL     1      -7.644   2.931 -13.019  0.00  0.00    +0.061 A 
ATOM     21  F   UNL     1      -8.602   2.386 -15.116  0.00  0.00    -0.205 F 
ENDBRANCH  13  15
ENDBRANCH  10  11
ENDBRANCH   6  10
ENDBRANCH   2   3
BRANCH   2  22
ATOM     22  C   UNL     1      -0.909   2.311  -4.757  0.00  0.00    +0.235 C 
ATOM     23  O   UNL     1      -0.679   3.186  -5.565  0.00  0.00    -0.274 OA
ATOM     24  N   UNL     1       0.055   1.910  -3.905  0.00  0.00    -0.278 N 
ATOM     25  H   UNL     1      -0.153   1.117  -3.172  0.00  0.00    +0.155 HD
BRANCH  24  26
ATOM     26  C   UNL     1       1.311   2.497  -3.953  0.00  0.00    +0.084 A 
ATOM     27  C   UNL     1       2.419   2.223  -3.169  0.00  0.00    +0.068 A 
ATOM     28  C   UNL     1       3.638   2.989  -3.429  0.00  0.00    -0.023 A 
ATOM     29  C   UNL     1       3.543   3.895  -4.419  0.00  0.00    -0.004 A 
ATOM     30  S   UNL     1       1.873   3.751  -5.005  0.00  0.00    -0.077 S 
ATOM     31  C   UNL     1       4.835   4.637  -4.629  0.00  0.00    +0.043 C 
ATOM     32  C   UNL     1       5.900   3.776  -3.916  0.00  0.00    +0.010 C 
ATOM     33  C   UNL     1       5.054   3.045  -2.854  0.00  0.00    +0.037 C 
BRANCH  27  34
ATOM     34  C   UNL     1       2.374   1.199  -2.121  0.00  0.00    +0.244 C 
ATOM     35  O   UNL     1       2.047   1.501  -0.988  0.00  0.00    -0.270 OA
ATOM     36  N   UNL     1       2.689  -0.078  -2.413  0.00  0.00    -0.325 N 
ATOM     37  H   UNL     1       2.655  -0.847  -1.627  0.00  0.00    +0.145 HD
ATOM     38  H   UNL     1       2.980  -0.352  -3.438  0.00  0.00    +0.145 HD
ENDBRANCH  27  34
ENDBRANCH  24  26
ENDBRANCH   2  22
TORSDOF 7
