REMARK  Name = ZINC14246881
REMARK  11 active torsions:
REMARK  status: ('A' for Active; 'I' for Inactive)
REMARK    1  A    between atoms: C_1  and  C_2
REMARK    2  A    between atoms: C_5  and  S_23
REMARK    3  A    between atoms: C_7  and  C_8
REMARK    4  A    between atoms: N_10  and  C_11
REMARK    5  A    between atoms: C_11  and  C_12
REMARK    6  A    between atoms: C_12  and  N_18
REMARK    7  A    between atoms: N_18  and  S_19
REMARK    8  A    between atoms: S_19  and  C_22
REMARK    9  A    between atoms: S_23  and  N_26
REMARK   10  A    between atoms: N_26  and  C_27
REMARK   11  A    between atoms: C_27  and  C_28
REMARK                            x       y       z     vdW  Elec       q    Type
REMARK                         _______ _______ _______ _____ _____    ______ ____
ROOT
ATOM      1  C   UNL     1      -0.219   0.252   8.188  0.00  0.00    +0.044 C 
ATOM      2  C   UNL     1      -1.690   0.306   7.869  0.00  0.00    -0.038 A 
ATOM      3  C   UNL     1      -2.610  -0.216   8.757  0.00  0.00    +0.006 A 
ATOM      4  C   UNL     1      -3.961  -0.168   8.465  0.00  0.00    +0.029 A 
ATOM      5  C   UNL     1      -4.400   0.402   7.283  0.00  0.00    +0.106 A 
ATOM      6  C   UNL     1      -3.492   0.931   6.389  0.00  0.00    +0.041 A 
ATOM      7  C   UNL     1      -2.127   0.882   6.675  0.00  0.00    +0.041 A 
ENDROOT
BRANCH   7   8
ATOM      8  C   UNL     1      -1.147   1.442   5.720  0.00  0.00    +0.244 C 
ATOM      9  O   UNL     1       0.029   1.500   6.019  0.00  0.00    -0.270 OA
ATOM     10  N   UNL     1      -1.560   1.890   4.518  0.00  0.00    -0.310 N 
ATOM     11  H   UNL     1      -2.498   1.844   4.279  0.00  0.00    +0.149 HD
BRANCH  10  12
ATOM     12  C   UNL     1      -0.589   2.446   3.571  0.00  0.00    +0.128 C 
BRANCH  12  13
ATOM     13  C   UNL     1      -1.327   3.002   2.352  0.00  0.00    +0.055 C 
ATOM     14  C   UNL     1      -0.310   3.453   1.302  0.00  0.00    +0.025 C 
ATOM     15  C   UNL     1      -1.048   4.009   0.082  0.00  0.00    +0.002 C 
ATOM     16  C   UNL     1      -1.906   5.203   0.506  0.00  0.00    +0.000 C 
ATOM     17  C   UNL     1      -2.924   4.752   1.556  0.00  0.00    +0.002 C 
ATOM     18  C   UNL     1      -2.186   4.195   2.776  0.00  0.00    +0.025 C 
BRANCH  13  19
ATOM     19  N   UNL     1      -2.186   1.960   1.783  0.00  0.00    -0.187 NA
ATOM     20  H   UNL     1      -3.137   2.118   1.681  0.00  0.00    +0.148 HD
BRANCH  19  21
ATOM     21  S   UNL     1      -1.532   0.512   1.315  0.00  0.00    +0.027 S 
ATOM     22  O   UNL     1      -2.609  -0.195   0.716  0.00  0.00    -0.158 OA
ATOM     23  O   UNL     1      -0.384   0.862   0.555  0.00  0.00    -0.158 OA
ATOM     24  C   UNL     1      -1.035  -0.297   2.861  0.00  0.00    +0.214 C 
ENDBRANCH  19  21
ENDBRANCH  13  19
ENDBRANCH  12  13
ENDBRANCH  10  12
ENDBRANCH   7   8
BRANCH   5  25
ATOM     25  S   UNL     1      -6.124   0.459   6.922  0.00  0.00    +0.059 S 
ATOM     26  O   UNL     1      -6.240   0.551   5.508  0.00  0.00    -0.153 OA
ATOM     27  O   UNL     1      -6.730  -0.587   7.669  0.00  0.00    -0.153 OA
BRANCH  25  28
ATOM     28  N   UNL     1      -6.707   1.881   7.538  0.00  0.00    -0.186 NA
ATOM     29  H   UNL     1      -7.353   1.867   8.262  0.00  0.00    +0.148 HD
BRANCH  28  30
ATOM     30  C   UNL     1      -6.248   3.160   6.990  0.00  0.00    +0.141 C 
BRANCH  30  31
ATOM     31  C   UNL     1      -7.171   4.261   7.443  0.00  0.00    -0.032 A 
ATOM     32  C   UNL     1      -8.272   4.599   6.679  0.00  0.00    +0.005 A 
ATOM     33  C   UNL     1      -9.122   5.605   7.097  0.00  0.00    +0.000 A 
ATOM     34  C   UNL     1      -8.865   6.282   8.275  0.00  0.00    +0.000 A 
ATOM     35  C   UNL     1      -7.761   5.948   9.037  0.00  0.00    +0.000 A 
ATOM     36  C   UNL     1      -6.914   4.938   8.621  0.00  0.00    +0.005 A 
ENDBRANCH  30  31
ENDBRANCH  28  30
ENDBRANCH  25  28
ENDBRANCH   5  25
TORSDOF 9
