REMARK  Name = ZINC36500326
REMARK  12 active torsions:
REMARK  status: ('A' for Active; 'I' for Inactive)
REMARK    1  A    between atoms: C_1  and  C_2
REMARK    2  A    between atoms: C_2  and  C_3
REMARK    3  A    between atoms: C_3  and  C_4
REMARK    4  A    between atoms: C_4  and  N_5
REMARK    5  A    between atoms: C_6  and  C_8
REMARK    6  A    between atoms: C_8  and  C_10
REMARK    7  A    between atoms: C_8  and  N_20
REMARK    8  A    between atoms: C_12  and  N_17
REMARK    9  A    between atoms: N_20  and  C_21
REMARK   10  A    between atoms: C_21  and  C_22
REMARK   11  A    between atoms: C_27  and  C_29
REMARK   12  A    between atoms: C_32  and  O_35
REMARK                            x       y       z     vdW  Elec       q    Type
REMARK                         _______ _______ _______ _____ _____    ______ ____
ROOT
ATOM      1  C   UNL     1      -3.704  -4.561  -0.186  0.00  0.00    +0.194 C 
ENDROOT
BRANCH   1   2
ATOM      2  C   UNL     1      -3.615  -4.324  -1.672  0.00  0.00    +0.002 A 
ATOM      3  C   UNL     1      -2.384  -4.341  -2.302  0.00  0.00    +0.040 A 
ATOM      4  C   UNL     1      -2.302  -4.123  -3.664  0.00  0.00    +0.127 A 
ATOM      5  C   UNL     1      -3.450  -3.887  -4.398  0.00  0.00    +0.034 A 
ATOM      6  C   UNL     1      -4.680  -3.869  -3.769  0.00  0.00    +0.022 A 
ATOM      7  C   UNL     1      -4.764  -4.093  -2.406  0.00  0.00    +0.047 A 
ATOM      8 CL   UNL     1      -6.310  -4.078  -1.617  0.00  0.00    -0.083 Cl
BRANCH   4   9
ATOM      9  N   UNL     1      -0.984  -4.142  -4.338  0.00  0.00    +0.056 N 
ATOM     10  O   UNL     1       0.020  -4.348  -3.697  0.00  0.00    -0.126 OA
ATOM     11  O   UNL     1      -0.912  -3.952  -5.530  0.00  0.00    -0.126 OA
ENDBRANCH   4   9
ENDBRANCH   1   2
BRANCH   1  13
ATOM     12  N   UNL     1      -1.908  -3.090   0.668  0.00  0.00    -0.313 N 
ATOM     13  C   UNL     1      -2.351  -4.343   0.440  0.00  0.00    +0.238 C 
ATOM     14  O   UNL     1      -1.660  -5.294   0.738  0.00  0.00    -0.273 OA
ATOM     15  H   UNL     1      -2.432  -2.329   0.373  0.00  0.00    +0.149 HD
BRANCH  12  16
ATOM     16  C   UNL     1      -0.636  -2.879   1.363  0.00  0.00    +0.104 C 
BRANCH  16  17
ATOM     17  C   UNL     1      -0.369  -1.378   1.492  0.00  0.00    +0.018 C 
BRANCH  17  19
ATOM     18  C   UNL     1       1.227   0.344   2.347  0.00  0.00    +0.004 C 
ATOM     19  C   UNL     1       0.960  -1.157   2.217  0.00  0.00    -0.002 C 
ENDBRANCH  17  19
ENDBRANCH  16  17
ENDBRANCH  12  16
ENDBRANCH   1  13
BRANCH   1  20
ATOM     20  N   UNL     1      -4.142  -5.937   0.063  0.00  0.00    -0.275 N 
ATOM     21  C   UNL     1      -3.829  -6.543   1.225  0.00  0.00    +0.248 C 
ATOM     22  O   UNL     1      -4.057  -7.728   1.373  0.00  0.00    -0.270 OA
BRANCH  21  23
ATOM     23  C   UNL     1      -3.211  -5.768   2.319  0.00  0.00    +0.037 A 
ATOM     24  C   UNL     1      -3.362  -4.380   2.367  0.00  0.00    +0.016 A 
ATOM     25  C   UNL     1      -2.784  -3.661   3.389  0.00  0.00    +0.046 A 
ATOM     26  C   UNL     1      -2.050  -4.314   4.372  0.00  0.00    +0.117 A 
ATOM     27  C   UNL     1      -1.896  -5.694   4.327  0.00  0.00    +0.046 A 
ATOM     28  C   UNL     1      -2.476  -6.421   3.312  0.00  0.00    +0.016 A 
BRANCH  26  29
ATOM     29  O   UNL     1      -1.481  -3.601   5.377  0.00  0.00    -0.507 OA
ATOM     30  H   UNL     1      -2.049  -3.491   6.152  0.00  0.00    +0.292 HD
ENDBRANCH  26  29
ENDBRANCH  21  23
BRANCH  20  31
ATOM     31  C   UNL     1      -4.918  -6.654  -0.952  0.00  0.00    +0.183 C 
BRANCH  31  32
ATOM     32  C   UNL     1      -3.993  -7.501  -1.787  0.00  0.00    +0.122 A 
ATOM     33  C   UNL     1      -3.715  -8.800  -1.579  0.00  0.00    +0.046 A 
ATOM     34  C   UNL     1      -2.808  -9.191  -2.591  0.00  0.00    +0.041 A 
ATOM     35  C   UNL     1      -2.587  -8.107  -3.357  0.00  0.00    +0.195 A 
ATOM     36  O   UNL     1      -3.312  -7.088  -2.868  0.00  0.00    -0.466 OA
ENDBRANCH  31  32
ENDBRANCH  20  31
ENDBRANCH   1  20
TORSDOF 11
