REMARK  Name = ZINC12566318
REMARK  7 active torsions:
REMARK  status: ('A' for Active; 'I' for Inactive)
REMARK    1  A    between atoms: C_6  and  S_7
REMARK    2  A    between atoms: S_7  and  N_10
REMARK    3  A    between atoms: C_12  and  O_34
REMARK    4  A    between atoms: C_15  and  C_17
REMARK    5  A    between atoms: N_19  and  N_20
REMARK    6  A    between atoms: C_21  and  C_23
REMARK    7  A    between atoms: C_23  and  C_24
REMARK                            x       y       z     vdW  Elec       q    Type
REMARK                         _______ _______ _______ _____ _____    ______ ____
ROOT
ATOM      1  C   UNL     1      -0.661   0.816   2.341  0.00  0.00    +0.248 C 
ATOM      2  O   UNL     1      -0.283   1.608   3.179  0.00  0.00    -0.273 OA
ATOM      3  N   UNL     1      -0.531  -0.508   2.558  0.00  0.00    -0.233 N 
ATOM      4  H   UNL     1      -0.833  -1.141   1.888  0.00  0.00    +0.173 HD
ENDROOT
BRANCH   1   9
ATOM      5  N   UNL     1      -2.081   2.523   1.308  0.00  0.00    -0.162 NA
ATOM      6  C   UNL     1      -1.921   3.440   0.170  0.00  0.00    +0.141 C 
ATOM      7  C   UNL     1      -0.946   2.772  -0.823  0.00  0.00    +0.132 C 
ATOM      8  C   UNL     1      -0.171   1.769   0.072  0.00  0.00    +0.062 C 
ATOM      9  C   UNL     1      -1.276   1.313   1.058  0.00  0.00    +0.169 C 
BRANCH   5  10
ATOM     10  S   UNL     1      -3.012   2.802   2.649  0.00  0.00    +0.062 S 
ATOM     11  O   UNL     1      -2.585   1.877   3.640  0.00  0.00    -0.153 OA
ATOM     12  O   UNL     1      -3.002   4.207   2.865  0.00  0.00    -0.153 OA
BRANCH  10  18
ATOM     13  C   UNL     1      -5.520   3.318   1.704  0.00  0.00    +0.030 A 
ATOM     14  C   UNL     1      -6.817   2.976   1.373  0.00  0.00    +0.022 A 
ATOM     15  C   UNL     1      -7.267   1.685   1.583  0.00  0.00    +0.041 A 
ATOM     16  C   UNL     1      -6.416   0.735   2.118  0.00  0.00    +0.022 A 
ATOM     17  C   UNL     1      -5.117   1.077   2.443  0.00  0.00    +0.030 A 
ATOM     18  C   UNL     1      -4.668   2.367   2.234  0.00  0.00    +0.106 A 
ATOM     19 CL   UNL     1      -8.899   1.257   1.175  0.00  0.00    -0.084 Cl
ENDBRANCH  10  18
ENDBRANCH   5  10
BRANCH   7  20
ATOM     20  O   UNL     1      -0.057   3.738  -1.386  0.00  0.00    -0.390 OA
ATOM     21  H   UNL     1      -0.492   4.389  -1.954  0.00  0.00    +0.210 HD
ENDBRANCH   7  20
ENDBRANCH   1   9
BRANCH   3  22
ATOM     22  N   UNL     1       0.041  -0.969   3.751  0.00  0.00    -0.234 N 
ATOM     23  C   UNL     1       0.171  -2.293   3.968  0.00  0.00    +0.230 C 
ATOM     24  O   UNL     1      -0.207  -3.085   3.130  0.00  0.00    -0.274 OA
ATOM     25  H   UNL     1       0.343  -0.336   4.421  0.00  0.00    +0.173 HD
BRANCH  23  26
ATOM     26  C   UNL     1       0.786  -2.790   5.251  0.00  0.00    +0.104 C 
BRANCH  26  27
ATOM     27  C   UNL     1       0.815  -4.319   5.244  0.00  0.00    -0.020 C 
ATOM     28  C   UNL     1       1.648  -4.808   4.057  0.00  0.00    +0.011 C 
ATOM     29  C   UNL     1       1.677  -6.338   4.050  0.00  0.00    -0.010 C 
ATOM     30  C   UNL     1       2.301  -6.842   5.353  0.00  0.00    +0.007 C 
ATOM     31  C   UNL     1       1.468  -6.353   6.540  0.00  0.00    -0.010 C 
ATOM     32  C   UNL     1       1.439  -4.823   6.547  0.00  0.00    +0.011 C 
ATOM     33  C   UNL     1       0.041  -6.890   6.417  0.00  0.00    +0.007 C 
ATOM     34  C   UNL     1      -0.583  -6.386   5.114  0.00  0.00    -0.010 C 
ATOM     35  C   UNL     1       0.249  -6.875   3.927  0.00  0.00    +0.007 C 
ATOM     36  C   UNL     1      -0.613  -4.856   5.121  0.00  0.00    +0.011 C 
ENDBRANCH  26  27
ENDBRANCH  23  26
ENDBRANCH   3  22
TORSDOF 7
