REMARK  Name = ZINC36577907
REMARK  12 active torsions:
REMARK  status: ('A' for Active; 'I' for Inactive)
REMARK    1  A    between atoms: C_1  and  C_2
REMARK    2  A    between atoms: C_2  and  C_3
REMARK    3  A    between atoms: C_3  and  N_4
REMARK    4  A    between atoms: N_4  and  C_5
REMARK    5  A    between atoms: C_5  and  C_7
REMARK    6  A    between atoms: C_5  and  C_13
REMARK    7  A    between atoms: N_15  and  C_16
REMARK    8  A    between atoms: C_16  and  S_17
REMARK    9  A    between atoms: S_17  and  C_20
REMARK   10  A    between atoms: C_23  and  C_26
REMARK   11  A    between atoms: C_27  and  C_29
REMARK   12  A    between atoms: C_32  and  N_35
REMARK                            x       y       z     vdW  Elec       q    Type
REMARK                         _______ _______ _______ _____ _____    ______ ____
ROOT
ATOM      1  C   UNL     1      -0.674  -3.073  -1.315  0.00  0.00    +0.165 C 
ENDROOT
BRANCH   1   2
ATOM      2  C   UNL     1      -1.705  -2.897  -0.198  0.00  0.00    +0.018 C 
ATOM      3  C   UNL     1      -1.126  -3.423   1.117  0.00  0.00    +0.006 C 
ATOM      4  C   UNL     1      -2.157  -3.247   2.234  0.00  0.00    +0.000 C 
ATOM      5  C   UNL     1      -3.424  -4.031   1.886  0.00  0.00    +0.000 C 
ATOM      6  C   UNL     1      -4.003  -3.506   0.571  0.00  0.00    +0.000 C 
ATOM      7  C   UNL     1      -2.972  -3.681  -0.546  0.00  0.00    +0.006 C 
ENDBRANCH   1   2
BRANCH   1   8
ATOM      8  C   UNL     1      -1.274  -2.633  -2.626  0.00  0.00    +0.235 C 
ATOM      9  O   UNL     1      -0.876  -1.623  -3.166  0.00  0.00    -0.274 OA
ATOM     10  N   UNL     1      -2.252  -3.363  -3.197  0.00  0.00    -0.295 N 
ATOM     11  H   UNL     1      -2.613  -4.136  -2.736  0.00  0.00    +0.150 HD
BRANCH  10  12
ATOM     12  C   UNL     1      -2.771  -2.989  -4.515  0.00  0.00    +0.278 C 
BRANCH  12  13
ATOM     13  S   UNL     1      -1.908  -3.939  -5.797  0.00  0.00    +0.013 S 
ATOM     14  O   UNL     1      -2.443  -3.634  -7.077  0.00  0.00    -0.168 OA
ATOM     15  O   UNL     1      -0.505  -3.905  -5.571  0.00  0.00    -0.168 OA
BRANCH  13  16
ATOM     16  C   UNL     1      -2.369  -5.615  -5.505  0.00  0.00    +0.090 A 
ATOM     17  C   UNL     1      -1.613  -6.402  -4.656  0.00  0.00    +0.027 A 
ATOM     18  C   UNL     1      -1.975  -7.716  -4.427  0.00  0.00    +0.005 A 
ATOM     19  C   UNL     1      -3.092  -8.243  -5.047  0.00  0.00    -0.050 A 
ATOM     20  C   UNL     1      -3.848  -7.456  -5.895  0.00  0.00    +0.005 A 
ATOM     21  C   UNL     1      -3.489  -6.141  -6.121  0.00  0.00    +0.027 A 
ATOM     22  C   UNL     1      -3.486  -9.677  -4.798  0.00  0.00    +0.044 C 
ENDBRANCH  13  16
ENDBRANCH  12  13
ENDBRANCH  10  12
ENDBRANCH   1   8
BRANCH   1  23
ATOM     23  N   UNL     1       0.508  -2.258  -1.021  0.00  0.00    -0.286 N 
ATOM     24  C   UNL     1       1.716  -2.843  -0.895  0.00  0.00    +0.247 C 
ATOM     25  O   UNL     1       2.677  -2.184  -0.550  0.00  0.00    -0.270 OA
BRANCH  24  26
ATOM     26  C   UNL     1       1.871  -4.286  -1.177  0.00  0.00    +0.037 A 
ATOM     27  C   UNL     1       1.312  -4.839  -2.330  0.00  0.00    +0.015 A 
ATOM     28  C   UNL     1       1.461  -6.186  -2.587  0.00  0.00    +0.033 A 
ATOM     29  C   UNL     1       2.162  -6.989  -1.705  0.00  0.00    +0.126 A 
ATOM     30  C   UNL     1       2.719  -6.447  -0.559  0.00  0.00    +0.033 A 
ATOM     31  C   UNL     1       2.582  -5.100  -0.294  0.00  0.00    +0.015 A 
BRANCH  29  32
ATOM     32  N   UNL     1       2.318  -8.433  -1.987  0.00  0.00    +0.056 N 
ATOM     33  O   UNL     1       1.833  -8.910  -2.986  0.00  0.00    -0.126 OA
ATOM     34  O   UNL     1       2.930  -9.137  -1.217  0.00  0.00    -0.126 OA
ENDBRANCH  29  32
ENDBRANCH  24  26
BRANCH  23  35
ATOM     35  C   UNL     1       0.377  -0.807  -0.864  0.00  0.00    +0.108 C 
BRANCH  35  37
ATOM     36  C   UNL     1       0.090   1.048   0.784  0.00  0.00    +0.005 C 
ATOM     37  C   UNL     1       0.228  -0.467   0.620  0.00  0.00    +0.016 C 
ENDBRANCH  35  37
ENDBRANCH  23  35
ENDBRANCH   1  23
TORSDOF 10
