REMARK  Name = ZINC43725586
REMARK  10 active torsions:
REMARK  status: ('A' for Active; 'I' for Inactive)
REMARK    1  A    between atoms: C_1  and  C_2
REMARK    2  A    between atoms: C_5  and  C_30
REMARK    3  A    between atoms: N_6  and  C_7
REMARK    4  A    between atoms: C_10  and  C_13
REMARK    5  A    between atoms: N_15  and  N_16
REMARK    6  A    between atoms: N_19  and  C_20
REMARK    7  A    between atoms: C_20  and  C_22
REMARK    8  A    between atoms: C_20  and  C_23
REMARK    9  A    between atoms: C_23  and  C_24
REMARK   10  A    between atoms: C_24  and  C_25
REMARK                            x       y       z     vdW  Elec       q    Type
REMARK                         _______ _______ _______ _____ _____    ______ ____
ROOT
ATOM      1  C   UNL     1       0.053   0.943   6.470  0.00  0.00    +0.260 C 
ATOM      2  O   UNL     1       1.002   1.571   6.899  0.00  0.00    -0.269 OA
ATOM      3  N   UNL     1      -0.991   0.664   7.276  0.00  0.00    -0.229 N 
ATOM      4  H   UNL     1      -1.748   0.163   6.934  0.00  0.00    +0.173 HD
ENDROOT
BRANCH   1   8
ATOM      5  C   UNL     1       0.031  -0.377   2.433  0.00  0.00    +0.047 A 
ATOM      6  C   UNL     1       1.116   0.343   2.922  0.00  0.00    +0.027 A 
ATOM      7  C   UNL     1       1.127   0.772   4.230  0.00  0.00    +0.015 A 
ATOM      8  C   UNL     1       0.045   0.484   5.067  0.00  0.00    +0.038 A 
ATOM      9  C   UNL     1      -1.044  -0.238   4.572  0.00  0.00    +0.015 A 
ATOM     10  C   UNL     1      -1.050  -0.659   3.261  0.00  0.00    +0.027 A 
BRANCH   5  16
ATOM     11  C   UNL     1      -0.018   1.503   0.010  0.00  0.00    +0.064 C 
ATOM     12  C   UNL     1       0.002  -0.004   0.002  0.00  0.00    +0.021 A 
ATOM     13  C   UNL     1       0.008  -0.789  -1.094  0.00  0.00    +0.023 A 
ATOM     14  C   UNL     1       0.028  -2.128  -0.656  0.00  0.00    +0.023 A 
ATOM     15  C   UNL     1       0.034  -2.114   0.692  0.00  0.00    +0.021 A 
ATOM     16  N   UNL     1       0.024  -0.811   1.104  0.00  0.00    -0.318 N 
ATOM     17  C   UNL     1       0.054  -3.325   1.589  0.00  0.00    +0.064 C 
ENDBRANCH   5  16
ENDBRANCH   1   8
BRANCH   3  18
ATOM     18  N   UNL     1      -0.983   1.099   8.608  0.00  0.00    -0.218 N 
ATOM     19  C   UNL     1      -2.027   0.821   9.413  0.00  0.00    +0.316 C 
ATOM     20  O   UNL     1      -2.021   1.198  10.569  0.00  0.00    -0.251 OA
ATOM     21  N   UNL     1      -3.079   0.125   8.938  0.00  0.00    -0.296 N 
ATOM     22  H   UNL     1      -0.227   1.600   8.950  0.00  0.00    +0.174 HD
ATOM     23  H   UNL     1      -3.084  -0.176   8.016  0.00  0.00    +0.151 HD
BRANCH  21  24
ATOM     24  C   UNL     1      -4.214  -0.177   9.813  0.00  0.00    +0.072 C 
ATOM     25  C   UNL     1      -5.185   1.005   9.816  0.00  0.00    +0.028 C 
BRANCH  24  26
ATOM     26  C   UNL     1      -4.933  -1.428   9.303  0.00  0.00    +0.030 C 
BRANCH  26  27
ATOM     27  C   UNL     1      -4.001  -2.635   9.417  0.00  0.00    +0.076 C 
BRANCH  27  28
ATOM     28  C   UNL     1      -4.709  -3.866   8.915  0.00  0.00    +0.105 A 
ATOM     29  C   UNL     1      -4.699  -4.317   7.647  0.00  0.00    +0.044 A 
ATOM     30  C   UNL     1      -5.488  -5.491   7.624  0.00  0.00    +0.041 A 
ATOM     31  C   UNL     1      -5.933  -5.686   8.878  0.00  0.00    +0.195 A 
ATOM     32  O   UNL     1      -5.453  -4.703   9.657  0.00  0.00    -0.468 OA
ENDBRANCH  27  28
ENDBRANCH  26  27
ENDBRANCH  24  26
ENDBRANCH  21  24
ENDBRANCH   3  18
TORSDOF 7
