REMARK  Name = ZINC00068717
REMARK  5 active torsions:
REMARK  status: ('A' for Active; 'I' for Inactive)
REMARK    1  A    between atoms: C_1  and  C_2
REMARK    2  A    between atoms: C_5  and  N_11
REMARK    3  A    between atoms: C_7  and  N_8
REMARK    4  A    between atoms: C_12  and  C_13
REMARK    5  A    between atoms: C_14  and  C_23
REMARK                            x       y       z     vdW  Elec       q    Type
REMARK                         _______ _______ _______ _____ _____    ______ ____
ROOT
ATOM      1  N   UNL     1       0.550  -4.089  -0.095  0.00  0.00    -0.255 NA
ATOM      2  C   UNL     1      -0.251  -4.891  -0.745  0.00  0.00    +0.121 C 
ENDROOT
BRANCH   2   3
ATOM      3  C   UNL     1       0.031  -6.328  -0.793  0.00  0.00    +0.021 A 
ATOM      4  C   UNL     1       1.081  -6.974  -0.207  0.00  0.00    +0.023 A 
ATOM      5  N   UNL     1       1.005  -8.303  -0.472  0.00  0.00    -0.358 N 
ATOM      6  H   UNL     1       1.641  -8.967  -0.161  0.00  0.00    +0.166 HD
ATOM      7  C   UNL     1      -0.103  -8.578  -1.246  0.00  0.00    +0.047 A 
ATOM      8  C   UNL     1      -0.767  -7.362  -1.478  0.00  0.00    +0.009 A 
ATOM      9  C   UNL     1      -1.935  -7.337  -2.235  0.00  0.00    +0.010 A 
ATOM     10  C   UNL     1      -2.438  -8.512  -2.751  0.00  0.00    +0.001 A 
ATOM     11  C   UNL     1      -1.787  -9.714  -2.519  0.00  0.00    +0.002 A 
ATOM     12  C   UNL     1      -0.625  -9.752  -1.779  0.00  0.00    +0.026 A 
ATOM     13  C   UNL     1       2.160  -6.313   0.610  0.00  0.00    +0.064 C 
ENDBRANCH   2   3
BRANCH   1  18
ATOM     14  C   UNL     1      -0.538   1.447   0.089  0.00  0.00    +0.046 C 
ATOM     15  C   UNL     1      -0.247  -0.031   0.040  0.00  0.00    -0.020 A 
ATOM     16  C   UNL     1      -0.350  -0.713  -1.160  0.00  0.00    +0.007 A 
ATOM     17  C   UNL     1      -0.086  -2.066  -1.212  0.00  0.00    +0.028 A 
ATOM     18  C   UNL     1       0.287  -2.747  -0.051  0.00  0.00    +0.066 A 
ATOM     19  C   UNL     1       0.390  -2.051   1.156  0.00  0.00    +0.060 A 
ATOM     20  C   UNL     1       0.127  -0.698   1.193  0.00  0.00    +0.131 A 
BRANCH  20  21
ATOM     21  N   UNL     1       0.241   0.042   2.470  0.00  0.00    +0.057 N 
ATOM     22  O   UNL     1       0.675   1.171   2.478  0.00  0.00    -0.126 OA
ATOM     23  O   UNL     1      -0.100  -0.482   3.504  0.00  0.00    -0.126 OA
ENDBRANCH  20  21
ENDBRANCH   1  18
TORSDOF 3
