REMARK  Name = ZINC12388965
REMARK  7 active torsions:
REMARK  status: ('A' for Active; 'I' for Inactive)
REMARK    1  A    between atoms: C_8  and  C_11
REMARK    2  A    between atoms: C_17  and  C_20
REMARK    3  A    between atoms: N_22  and  C_23
REMARK    4  A    between atoms: C_23  and  C_24
REMARK    5  A    between atoms: C_24  and  C_25
REMARK    6  A    between atoms: C_28  and  O_32
REMARK    7  A    between atoms: C_29  and  O_31
REMARK                            x       y       z     vdW  Elec       q    Type
REMARK                         _______ _______ _______ _____ _____    ______ ____
ROOT
ATOM      1  C   UNL     1       2.454  10.521   0.949  0.00  0.00    +0.263 C 
ATOM      2  O   UNL     1       3.047  10.031   0.007  0.00  0.00    -0.268 OA
ATOM      3  N   UNL     1       1.873   9.725   1.869  0.00  0.00    -0.296 N 
ATOM      4  C   UNL     1       1.158  10.303   3.014  0.00  0.00    +0.108 C 
ATOM      5  C   UNL     1      -0.254   9.711   3.064  0.00  0.00    +0.020 C 
ATOM      6  C   UNL     1      -0.163   8.183   3.085  0.00  0.00    +0.016 C 
ATOM      7  C   UNL     1       0.523   7.694   1.808  0.00  0.00    +0.092 C 
ATOM      8  C   UNL     1       1.944   8.263   1.744  0.00  0.00    +0.120 C 
ENDROOT
BRANCH   1  16
ATOM      9  C   UNL     1       2.126  16.546   0.856  0.00  0.00    +0.001 A 
ATOM     10  C   UNL     1       2.087  16.401   2.237  0.00  0.00    +0.002 A 
ATOM     11  C   UNL     1       2.136  15.152   2.813  0.00  0.00    +0.026 A 
ATOM     12  C   UNL     1       2.226  14.021   2.006  0.00  0.00    +0.047 A 
ATOM     13  C   UNL     1       2.265  14.171   0.606  0.00  0.00    +0.000 A 
ATOM     14  C   UNL     1       2.213  15.453   0.044  0.00  0.00    +0.010 A 
ATOM     15  C   UNL     1       2.355  12.870   0.054  0.00  0.00    +0.040 A 
ATOM     16  C   UNL     1       2.369  11.983   1.084  0.00  0.00    +0.103 A 
ATOM     17  N   UNL     1       2.284  12.674   2.277  0.00  0.00    -0.351 N 
ATOM     18  H   UNL     1       2.271  12.275   3.161  0.00  0.00    +0.166 HD
ENDBRANCH   1  16
BRANCH   7  19
ATOM     19  C   UNL     1       0.585   6.188   1.815  0.00  0.00    +0.218 C 
ATOM     20  O   UNL     1       0.124   5.567   2.749  0.00  0.00    -0.275 OA
ATOM     21  N   UNL     1       1.151   5.531   0.783  0.00  0.00    -0.315 N 
ATOM     22  H   UNL     1       1.519   6.028   0.036  0.00  0.00    +0.149 HD
BRANCH  21  23
ATOM     23  C   UNL     1       1.211   4.068   0.790  0.00  0.00    +0.109 C 
BRANCH  23  24
ATOM     24  C   UNL     1       1.897   3.579  -0.486  0.00  0.00    +0.054 C 
BRANCH  24  25
ATOM     25  C   UNL     1       1.959   2.073  -0.479  0.00  0.00    -0.042 A 
ATOM     26  C   UNL     1       0.925   1.338  -1.029  0.00  0.00    +0.007 A 
ATOM     27  C   UNL     1       0.977  -0.043  -1.025  0.00  0.00    +0.049 A 
ATOM     28  C   UNL     1       2.067  -0.694  -0.469  0.00  0.00    +0.158 A 
ATOM     29  C   UNL     1       3.107   0.046   0.085  0.00  0.00    +0.158 A 
ATOM     30  C   UNL     1       3.049   1.430   0.078  0.00  0.00    +0.052 A 
BRANCH  29  31
ATOM     31  O   UNL     1       4.179  -0.589   0.632  0.00  0.00    -0.503 OA
ATOM     32  H   UNL     1       4.896  -0.759   0.006  0.00  0.00    +0.292 HD
ENDBRANCH  29  31
BRANCH  28  33
ATOM     33  O   UNL     1       2.119  -2.053  -0.464  0.00  0.00    -0.503 OA
ATOM     34  H   UNL     1       2.542  -2.433  -1.246  0.00  0.00    +0.292 HD
ENDBRANCH  28  33
ENDBRANCH  24  25
ENDBRANCH  23  24
ENDBRANCH  21  23
ENDBRANCH   7  19
TORSDOF 7
