REMARK  Name = ZINC04031606
REMARK  6 active torsions:
REMARK  status: ('A' for Active; 'I' for Inactive)
REMARK    1  A    between atoms: C_1  and  C_2
REMARK    2  A    between atoms: C_2  and  C_3
REMARK    3  A    between atoms: C_2  and  C_4
REMARK    4  A    between atoms: C_2  and  C_5
REMARK    5  A    between atoms: C_10  and  C_13
REMARK    6  A    between atoms: C_16  and  N_19
REMARK                            x       y       z     vdW  Elec       q    Type
REMARK                         _______ _______ _______ _____ _____    ______ ____
ROOT
ATOM      1  C   UNL     1       2.519   3.922  -0.001  0.00  0.00    +0.224 C 
ATOM      2  O   UNL     1       3.485   3.189  -0.014  0.00  0.00    -0.275 OA
ATOM      3  N   UNL     1       1.277   3.400   0.008  0.00  0.00    -0.264 N 
ATOM      4  C   UNL     1       1.103   2.021   0.002  0.00  0.00    +0.165 A 
ATOM      5  N   UNL     1      -0.016   1.320   0.009  0.00  0.00    -0.225 NA
ATOM      6  C   UNL     1       0.002  -0.004   0.002  0.00  0.00    +0.080 A 
ATOM      7  C   UNL     1       1.202  -0.658  -0.013  0.00  0.00    +0.076 A 
ATOM      8  S   UNL     1       2.334   0.726  -0.016  0.00  0.00    -0.060 S 
ATOM      9  H   UNL     1       0.400   4.064   0.020  0.00  0.00    +0.157 HD
ENDROOT
BRANCH   6  10
ATOM     10  C   UNL     1      -1.268  -0.770   0.009  0.00  0.00    +0.001 A 
ATOM     11  C   UNL     1      -1.245  -2.163  -0.004  0.00  0.00    +0.012 A 
ATOM     12  C   UNL     1      -2.429  -2.871   0.009  0.00  0.00    +0.033 A 
ATOM     13  C   UNL     1      -3.639  -2.200   0.024  0.00  0.00    +0.126 A 
ATOM     14  C   UNL     1      -3.668  -0.817   0.032  0.00  0.00    +0.033 A 
ATOM     15  C   UNL     1      -2.490  -0.099   0.025  0.00  0.00    +0.012 A 
BRANCH  13  16
ATOM     16  N   UNL     1      -4.907  -2.964   0.031  0.00  0.00    +0.056 N 
ATOM     17  O   UNL     1      -5.973  -2.375   0.044  0.00  0.00    -0.126 OA
ATOM     18  O   UNL     1      -4.883  -4.182   0.024  0.00  0.00    -0.126 OA
ENDBRANCH  13  16
ENDBRANCH   6  10
BRANCH   1  20
ATOM     19  C   UNL     1       4.202   5.743  -0.007  0.00  0.00    +0.020 C 
ATOM     20  C   UNL     1       2.708   5.417   0.005  0.00  0.00    +0.039 C 
ATOM     21  C   UNL     1       2.044   6.020  -1.234  0.00  0.00    +0.020 C 
ATOM     22  C   UNL     1       2.068   6.007   1.264  0.00  0.00    +0.020 C 
ENDBRANCH   1  20
TORSDOF 3
