REMARK  Name = ZINC09457822
REMARK  8 active torsions:
REMARK  status: ('A' for Active; 'I' for Inactive)
REMARK    1  A    between atoms: C_1  and  C_2
REMARK    2  A    between atoms: C_2  and  O_3
REMARK    3  A    between atoms: O_3  and  C_4
REMARK    4  A    between atoms: C_9  and  C_10
REMARK    5  A    between atoms: C_10  and  N_11
REMARK    6  A    between atoms: C_14  and  C_18
REMARK    7  A    between atoms: C_14  and  C_19
REMARK    8  A    between atoms: C_22  and  N_25
REMARK                            x       y       z     vdW  Elec       q    Type
REMARK                         _______ _______ _______ _____ _____    ______ ____
ROOT
ATOM      1  N   UNL     1      -1.868   2.141   1.383  0.00  0.00    -0.219 N 
ATOM      2  C   UNL     1      -1.608   3.109   2.283  0.00  0.00    +0.251 C 
ATOM      3  O   UNL     1      -0.912   4.089   2.125  0.00  0.00    -0.272 OA
ATOM      4  C   UNL     1      -2.368   2.719   3.536  0.00  0.00    +0.135 C 
ATOM      5  N   UNL     1      -3.029   1.457   3.160  0.00  0.00    -0.281 N 
ATOM      6  C   UNL     1      -2.682   1.205   1.885  0.00  0.00    +0.310 C 
ATOM      7  O   UNL     1      -3.062   0.234   1.261  0.00  0.00    -0.252 OA
ATOM      8  C   UNL     1      -1.403   2.498   4.703  0.00  0.00    +0.047 C 
ATOM      9  H   UNL     1      -3.606   0.916   3.722  0.00  0.00    +0.152 HD
ENDROOT
BRANCH   4  10
ATOM     10  C   UNL     1      -3.389   3.770   3.886  0.00  0.00    -0.015 A 
ATOM     11  C   UNL     1      -3.158   5.094   3.562  0.00  0.00    +0.008 A 
ATOM     12  C   UNL     1      -4.097   6.057   3.879  0.00  0.00    +0.033 A 
ATOM     13  C   UNL     1      -5.263   5.698   4.529  0.00  0.00    +0.126 A 
ATOM     14  C   UNL     1      -5.493   4.375   4.857  0.00  0.00    +0.033 A 
ATOM     15  C   UNL     1      -4.555   3.411   4.536  0.00  0.00    +0.008 A 
BRANCH  13  16
ATOM     16  N   UNL     1      -6.267   6.730   4.873  0.00  0.00    +0.056 N 
ATOM     17  O   UNL     1      -7.295   6.414   5.445  0.00  0.00    -0.126 OA
ATOM     18  O   UNL     1      -6.065   7.896   4.584  0.00  0.00    -0.126 OA
ENDBRANCH  13  16
ENDBRANCH   4  10
BRANCH   1  19
ATOM     19  C   UNL     1      -1.332   2.119   0.020  0.00  0.00    +0.156 C 
BRANCH  19  25
ATOM     20  C   UNL     1       0.002  -0.004   0.002  0.00  0.00    +0.125 A 
ATOM     21  C   UNL     1       1.214  -0.679  -0.013  0.00  0.00    +0.046 A 
ATOM     22  C   UNL     1       2.399   0.031  -0.021  0.00  0.00    +0.004 A 
ATOM     23  C   UNL     1       2.377   1.414  -0.013  0.00  0.00    +0.001 A 
ATOM     24  C   UNL     1       1.171   2.089   0.002  0.00  0.00    +0.009 A 
ATOM     25  C   UNL     1      -0.017   1.383   0.010  0.00  0.00    +0.012 A 
BRANCH  20  26
ATOM     26  O   UNL     1      -1.165  -0.701   0.010  0.00  0.00    -0.492 OA
BRANCH  26  28
ATOM     27  C   UNL     1      -2.474  -2.732   0.012  0.00  0.00    +0.048 C 
ATOM     28  C   UNL     1      -1.069  -2.126   0.001  0.00  0.00    +0.225 C 
ENDBRANCH  26  28
ENDBRANCH  20  26
ENDBRANCH  19  25
ENDBRANCH   1  19
TORSDOF 6
