REMARK  Name = ZINC09835397
REMARK  9 active torsions:
REMARK  status: ('A' for Active; 'I' for Inactive)
REMARK    1  A    between atoms: C_4  and  C_7
REMARK    2  A    between atoms: C_7  and  N_8
REMARK    3  A    between atoms: C_10  and  C_19
REMARK    4  A    between atoms: C_11  and  C_13
REMARK    5  A    between atoms: N_21  and  C_22
REMARK    6  A    between atoms: C_22  and  C_23
REMARK    7  A    between atoms: C_23  and  C_24
REMARK    8  A    between atoms: C_27  and  S_30
REMARK    9  A    between atoms: S_30  and  N_33
REMARK                            x       y       z     vdW  Elec       q    Type
REMARK                         _______ _______ _______ _____ _____    ______ ____
ROOT
ATOM      1  N   UNL     1       2.858   4.194  -1.384  0.00  0.00    -0.266 N 
ATOM      2  C   UNL     1       3.119   5.404  -1.901  0.00  0.00    +0.122 A 
ATOM      3  C   UNL     1       3.470   5.233  -3.224  0.00  0.00    +0.082 A 
ATOM      4  C   UNL     1       3.394   3.793  -3.490  0.00  0.00    +0.105 A 
ATOM      5  N   UNL     1       3.026   3.216  -2.369  0.00  0.00    -0.170 NA
ENDROOT
BRANCH   4   6
ATOM      6  C   UNL     1       3.678   3.118  -4.779  0.00  0.00    +0.003 A 
ATOM      7  C   UNL     1       3.348   3.739  -5.982  0.00  0.00    +0.010 A 
ATOM      8  C   UNL     1       3.618   3.107  -7.179  0.00  0.00    +0.001 A 
ATOM      9  C   UNL     1       4.207   1.855  -7.185  0.00  0.00    +0.000 A 
ATOM     10  C   UNL     1       4.533   1.232  -5.994  0.00  0.00    +0.001 A 
ATOM     11  C   UNL     1       4.271   1.856  -4.792  0.00  0.00    +0.010 A 
ENDBRANCH   4   6
BRANCH   3  12
ATOM     12  C   UNL     1       3.843   6.288  -4.181  0.00  0.00    +0.248 C 
ATOM     13  O   UNL     1       4.128   5.997  -5.327  0.00  0.00    -0.270 OA
ATOM     14  N   UNL     1       3.869   7.577  -3.788  0.00  0.00    -0.311 N 
ATOM     15  H   UNL     1       3.641   7.809  -2.874  0.00  0.00    +0.149 HD
BRANCH  14  16
ATOM     16  C   UNL     1       4.239   8.627  -4.740  0.00  0.00    +0.109 C 
BRANCH  16  17
ATOM     17  C   UNL     1       4.189   9.988  -4.043  0.00  0.00    +0.054 C 
BRANCH  17  18
ATOM     18  C   UNL     1       4.571  11.068  -5.023  0.00  0.00    -0.046 A 
ATOM     19  C   UNL     1       5.893  11.448  -5.152  0.00  0.00    +0.005 A 
ATOM     20  C   UNL     1       6.244  12.435  -6.053  0.00  0.00    +0.029 A 
ATOM     21  C   UNL     1       5.271  13.049  -6.820  0.00  0.00    +0.105 A 
ATOM     22  C   UNL     1       3.947  12.673  -6.687  0.00  0.00    +0.029 A 
ATOM     23  C   UNL     1       3.597  11.682  -5.788  0.00  0.00    +0.005 A 
BRANCH  21  24
ATOM     24  S   UNL     1       5.717  14.311  -7.966  0.00  0.00    +0.056 S 
ATOM     25  O   UNL     1       7.083  14.098  -8.293  0.00  0.00    -0.153 OA
ATOM     26  O   UNL     1       4.694  14.344  -8.952  0.00  0.00    -0.153 OA
BRANCH  24  27
ATOM     27  N   UNL     1       5.643  15.755  -7.158  0.00  0.00    -0.204 NA
ATOM     28  H   UNL     1       6.227  16.485  -7.415  0.00  0.00    +0.144 HD
ATOM     29  H   UNL     1       5.016  15.870  -6.427  0.00  0.00    +0.144 HD
ENDBRANCH  24  27
ENDBRANCH  21  24
ENDBRANCH  17  18
ENDBRANCH  16  17
ENDBRANCH  14  16
ENDBRANCH   3  12
BRANCH   1  30
ATOM     30  C   UNL     1       2.451   3.937  -0.001  0.00  0.00    +0.178 C 
BRANCH  30  34
ATOM     31  C   UNL     1      -1.219   1.751   0.017  0.00  0.00    +0.000 A 
ATOM     32  C   UNL     1      -0.013   1.076   0.008  0.00  0.00    +0.000 A 
ATOM     33  C   UNL     1       1.175   1.783   0.000  0.00  0.00    +0.005 A 
ATOM     34  C   UNL     1       1.156   3.165   0.008  0.00  0.00    -0.026 A 
ATOM     35  C   UNL     1      -0.050   3.840   0.023  0.00  0.00    +0.005 A 
ATOM     36  C   UNL     1      -1.238   3.133   0.030  0.00  0.00    +0.000 A 
ENDBRANCH  30  34
ENDBRANCH   1  30
TORSDOF 9
