REMARK  Name = ZINC49380281
REMARK  4 active torsions:
REMARK  status: ('A' for Active; 'I' for Inactive)
REMARK    1  A    between atoms: C_6  and  N_7
REMARK    2  A    between atoms: N_10  and  C_13
REMARK    3  A    between atoms: C_13  and  C_14
REMARK    4  A    between atoms: N_16  and  C_17
REMARK                            x       y       z     vdW  Elec       q    Type
REMARK                         _______ _______ _______ _____ _____    ______ ____
ROOT
ATOM      1  N   UNL     1      -1.201  -0.722   0.010  0.00  0.00    -0.254 N 
ATOM      2  C   UNL     1      -1.321  -2.183  -0.095  0.00  0.00    +0.134 C 
ATOM      3  C   UNL     1      -2.841  -2.434  -0.035  0.00  0.00    +0.129 C 
ATOM      4  N   UNL     1      -3.415  -1.087   0.098  0.00  0.00    -0.275 N 
ATOM      5  C   UNL     1      -2.423  -0.186   0.121  0.00  0.00    +0.310 C 
ATOM      6  O   UNL     1      -2.616   1.010   0.228  0.00  0.00    -0.252 OA
ENDROOT
BRANCH   1  12
ATOM      7  C   UNL     1      -0.017   1.384  -0.005  0.00  0.00    +0.026 A 
ATOM      8  C   UNL     1       1.170   2.090  -0.013  0.00  0.00    +0.040 A 
ATOM      9  C   UNL     1       2.379   1.414  -0.013  0.00  0.00    +0.124 A 
ATOM     10  C   UNL     1       2.400   0.030  -0.006  0.00  0.00    +0.040 A 
ATOM     11  C   UNL     1       1.215  -0.680   0.001  0.00  0.00    +0.026 A 
ATOM     12  C   UNL     1       0.002  -0.004   0.002  0.00  0.00    +0.038 A 
ATOM     13  F   UNL     1       3.539   2.106  -0.021  0.00  0.00    -0.205 F 
ENDBRANCH   1  12
BRANCH   4  14
ATOM     14  C   UNL     1      -4.844  -0.778   0.196  0.00  0.00    +0.205 C 
BRANCH  14  15
ATOM     15  C   UNL     1      -5.260  -0.781   1.645  0.00  0.00    +0.231 C 
ATOM     16  O   UNL     1      -4.443  -1.017   2.510  0.00  0.00    -0.274 OA
ATOM     17  N   UNL     1      -6.539  -0.521   1.979  0.00  0.00    -0.311 N 
ATOM     18  H   UNL     1      -7.192  -0.333   1.287  0.00  0.00    +0.149 HD
BRANCH  17  19
ATOM     19  C   UNL     1      -6.944  -0.523   3.387  0.00  0.00    +0.073 C 
ATOM     20  C   UNL     1      -7.204  -1.978   3.829  0.00  0.00    +0.022 C 
ATOM     21  C   UNL     1      -7.112  -2.044   5.330  0.00  0.00    +0.002 C 
ATOM     22  C   UNL     1      -8.486  -1.894   6.011  0.00  0.00    +0.000 C 
ATOM     23  C   UNL     1      -9.360  -0.805   5.360  0.00  0.00    +0.000 C 
ATOM     24  C   UNL     1      -8.575   0.431   5.010  0.00  0.00    +0.002 C 
ATOM     25  C   UNL     1      -8.118   0.322   3.541  0.00  0.00    +0.022 C 
ENDBRANCH  17  19
ENDBRANCH  14  15
ENDBRANCH   4  14
TORSDOF 4
