REMARK  Name = ZINC12935636
REMARK  10 active torsions:
REMARK  status: ('A' for Active; 'I' for Inactive)
REMARK    1  A    between atoms: C_1  and  O_2
REMARK    2  A    between atoms: O_2  and  C_3
REMARK    3  A    between atoms: C_3  and  C_4
REMARK    4  A    between atoms: C_4  and  N_5
REMARK    5  A    between atoms: N_5  and  C_6
REMARK    6  A    between atoms: C_7  and  N_22
REMARK    7  A    between atoms: N_8  and  C_15
REMARK    8  A    between atoms: C_15  and  C_16
REMARK    9  A    between atoms: C_23  and  C_25
REMARK   10  A    between atoms: C_28  and  C_30
REMARK                            x       y       z     vdW  Elec       q    Type
REMARK                         _______ _______ _______ _____ _____    ______ ____
ROOT
ATOM      1  C   UNL     1       1.242   2.094   0.004  0.00  0.00    +0.140 A 
ATOM      2  C   UNL     1       0.665   1.389  -1.032  0.00  0.00    +0.128 A 
ATOM      3  N   UNL     1       0.691   0.013  -1.004  0.00  0.00    -0.276 N 
ATOM      4  C   UNL     1       1.272  -0.636   0.021  0.00  0.00    +0.331 A 
ATOM      5  O   UNL     1       1.284  -1.852   0.027  0.00  0.00    -0.246 OA
ATOM      6  N   UNL     1       1.839   0.035   1.040  0.00  0.00    -0.273 N 
ATOM      7  H   UNL     1       2.264  -0.472   1.790  0.00  0.00    +0.173 HD
ATOM      8  C   UNL     1       1.840   1.382   1.061  0.00  0.00    +0.277 A 
ATOM      9  O   UNL     1       2.352   1.981   1.992  0.00  0.00    -0.266 OA
ENDROOT
BRANCH   1  10
ATOM     10  N   UNL     1       1.231   3.505   0.005  0.00  0.00    -0.257 N 
ATOM     11  C   UNL     1       2.389   4.188  -0.085  0.00  0.00    +0.270 C 
ATOM     12  O   UNL     1       3.434   3.592  -0.271  0.00  0.00    -0.268 OA
BRANCH  11  13
ATOM     13  C   UNL     1       2.391   5.655   0.042  0.00  0.00    +0.134 A 
ATOM     14  C   UNL     1       3.545   6.369  -0.159  0.00  0.00    +0.080 A 
ATOM     15  S   UNL     1       2.999   7.996   0.106  0.00  0.00    -0.075 S 
ATOM     16  C   UNL     1       1.291   7.620   0.463  0.00  0.00    +0.110 A 
ATOM     17  N   UNL     1       1.275   6.304   0.347  0.00  0.00    -0.234 NA
BRANCH  16  18
ATOM     18  C   UNL     1       0.183   8.541   0.796  0.00  0.00    +0.014 A 
ATOM     19  C   UNL     1       0.394   9.918   0.868  0.00  0.00    +0.018 A 
ATOM     20  C   UNL     1      -0.664  10.700   1.177  0.00  0.00    +0.046 A 
ATOM     21  S   UNL     1      -1.975   9.508   1.372  0.00  0.00    -0.104 S 
ATOM     22  C   UNL     1      -1.075   8.065   1.036  0.00  0.00    +0.055 A 
ENDBRANCH  16  18
ENDBRANCH  11  13
BRANCH  10  23
ATOM     23  C   UNL     1      -0.040   4.228   0.104  0.00  0.00    +0.142 C 
BRANCH  23  24
ATOM     24  C   UNL     1      -0.430   4.375   1.576  0.00  0.00    +0.179 C 
BRANCH  24  26
ATOM     25  C   UNL     1       0.255   5.402   3.631  0.00  0.00    +0.194 C 
ATOM     26  O   UNL     1       0.527   5.200   2.243  0.00  0.00    -0.381 OA
ENDBRANCH  24  26
ENDBRANCH  23  24
ENDBRANCH  10  23
ENDBRANCH   1  10
BRANCH   2  27
ATOM     27  N   UNL     1       0.071   2.052  -2.079  0.00  0.00    -0.343 N 
ATOM     28  H   UNL     1      -0.268   1.554  -2.839  0.00  0.00    +0.144 HD
ATOM     29  H   UNL     1      -0.008   3.018  -2.058  0.00  0.00    +0.144 HD
ENDBRANCH   2  27
BRANCH   3  30
ATOM     30  C   UNL     1       0.083  -0.748  -2.098  0.00  0.00    +0.163 C 
BRANCH  30  31
ATOM     31  C   UNL     1      -1.365  -1.019  -1.777  0.00  0.00    -0.028 A 
ATOM     32  C   UNL     1      -1.718  -2.168  -1.095  0.00  0.00    +0.005 A 
ATOM     33  C   UNL     1      -3.046  -2.414  -0.796  0.00  0.00    +0.000 A 
ATOM     34  C   UNL     1      -4.020  -1.515  -1.189  0.00  0.00    +0.000 A 
ATOM     35  C   UNL     1      -3.667  -0.368  -1.875  0.00  0.00    +0.000 A 
ATOM     36  C   UNL     1      -2.339  -0.120  -2.169  0.00  0.00    +0.005 A 
ENDBRANCH  30  31
ENDBRANCH   3  30
TORSDOF 9
