REMARK  Name = ZINC12742567
REMARK  13 active torsions:
REMARK  status: ('A' for Active; 'I' for Inactive)
REMARK    1  A    between atoms: C_1  and  C_2
REMARK    2  A    between atoms: C_2  and  C_3
REMARK    3  A    between atoms: C_3  and  C_4
REMARK    4  A    between atoms: C_4  and  N_5
REMARK    5  A    between atoms: C_6  and  N_32
REMARK    6  A    between atoms: C_7  and  N_14
REMARK    7  A    between atoms: N_14  and  C_15
REMARK    8  A    between atoms: C_15  and  C_16
REMARK    9  A    between atoms: C_16  and  C_17
REMARK   10  A    between atoms: C_17  and  C_18
REMARK   11  A    between atoms: C_17  and  C_19
REMARK   12  A    between atoms: C_20  and  C_22
REMARK   13  A    between atoms: C_25  and  C_27
REMARK                            x       y       z     vdW  Elec       q    Type
REMARK                         _______ _______ _______ _____ _____    ______ ____
ROOT
ATOM      1  N   UNL     1       2.509   3.928   0.042  0.00  0.00    -0.259 N 
ATOM      2  C   UNL     1       2.441   5.255  -0.184  0.00  0.00    +0.270 C 
ATOM      3  O   UNL     1       1.362   5.818  -0.178  0.00  0.00    -0.268 OA
ENDROOT
BRANCH   1   6
ATOM      4  N   UNL     1      -0.150   1.831   1.468  0.00  0.00    -0.280 N 
ATOM      5  C   UNL     1       1.012   2.562   1.371  0.00  0.00    +0.127 A 
ATOM      6  C   UNL     1       1.325   3.173   0.174  0.00  0.00    +0.140 A 
ATOM      7  C   UNL     1       0.442   3.030  -0.914  0.00  0.00    +0.277 A 
ATOM      8  O   UNL     1       0.695   3.559  -1.983  0.00  0.00    -0.266 OA
ATOM      9  N   UNL     1      -0.683   2.303  -0.765  0.00  0.00    -0.273 N 
ATOM     10  H   UNL     1      -1.308   2.197  -1.538  0.00  0.00    +0.173 HD
ATOM     11  C   UNL     1      -0.974   1.719   0.411  0.00  0.00    +0.331 A 
ATOM     12  O   UNL     1      -1.999   1.073   0.518  0.00  0.00    -0.246 OA
BRANCH   5  13
ATOM     13  N   UNL     1       1.851   2.680   2.452  0.00  0.00    -0.343 N 
ATOM     14  H   UNL     1       2.622   3.268   2.406  0.00  0.00    +0.144 HD
ATOM     15  H   UNL     1       1.673   2.176   3.262  0.00  0.00    +0.144 HD
ENDBRANCH   5  13
BRANCH   4  16
ATOM     16  C   UNL     1      -0.495   1.177   2.733  0.00  0.00    +0.128 C 
BRANCH  16  17
ATOM     17  C   UNL     1      -1.324   2.134   3.592  0.00  0.00    +0.021 C 
BRANCH  17  19
ATOM     18  C   UNL     1      -2.514   2.408   5.772  0.00  0.00    +0.004 C 
ATOM     19  C   UNL     1      -1.685   1.451   4.913  0.00  0.00    -0.002 C 
ENDBRANCH  17  19
ENDBRANCH  16  17
ENDBRANCH   4  16
ENDBRANCH   1   6
BRANCH   2  20
ATOM     20  C   UNL     1       3.671   6.024  -0.437  0.00  0.00    +0.134 A 
ATOM     21  C   UNL     1       3.626   7.391  -0.552  0.00  0.00    +0.080 A 
ATOM     22  S   UNL     1       5.296   7.772  -0.835  0.00  0.00    -0.072 S 
ATOM     23  C   UNL     1       5.934   6.105  -0.791  0.00  0.00    +0.144 A 
ATOM     24  N   UNL     1       4.835   5.404  -0.563  0.00  0.00    -0.231 NA
BRANCH  23  25
ATOM     25  C   UNL     1       7.317   5.635  -0.963  0.00  0.00    +0.160 A 
ATOM     26  C   UNL     1       8.405   6.420  -1.202  0.00  0.00    +0.052 A 
ATOM     27  C   UNL     1       9.514   5.558  -1.294  0.00  0.00    +0.042 A 
ATOM     28  C   UNL     1       9.056   4.302  -1.117  0.00  0.00    +0.196 A 
ATOM     29  O   UNL     1       7.729   4.352  -0.917  0.00  0.00    -0.461 OA
ENDBRANCH  23  25
ENDBRANCH   2  20
BRANCH   1  30
ATOM     30  C   UNL     1       3.813   3.270   0.150  0.00  0.00    +0.114 C 
BRANCH  30  31
ATOM     31  C   UNL     1       4.278   2.826  -1.239  0.00  0.00    +0.022 C 
BRANCH  31  32
ATOM     32  C   UNL     1       5.640   2.139  -1.125  0.00  0.00    -0.016 C 
ATOM     33  C   UNL     1       5.495   0.849  -0.316  0.00  0.00    +0.007 C 
ATOM     34  C   UNL     1       6.161   1.806  -2.525  0.00  0.00    +0.007 C 
ENDBRANCH  31  32
ENDBRANCH  30  31
ENDBRANCH   1  30
TORSDOF 10
