REMARK  Name = ZINC39660037
REMARK  9 active torsions:
REMARK  status: ('A' for Active; 'I' for Inactive)
REMARK    1  A    between atoms: C_4  and  C_31
REMARK    2  A    between atoms: C_6  and  C_7
REMARK    3  A    between atoms: C_11  and  C_20
REMARK    4  A    between atoms: N_22  and  C_23
REMARK    5  A    between atoms: C_23  and  C_24
REMARK    6  A    between atoms: C_24  and  C_25
REMARK    7  A    between atoms: C_25  and  C_26
REMARK    8  A    between atoms: C_26  and  C_27
REMARK    9  A    between atoms: C_27  and  C_28
REMARK                            x       y       z     vdW  Elec       q    Type
REMARK                         _______ _______ _______ _____ _____    ______ ____
ROOT
ATOM      1  C   UNL     1      -1.264  -0.761   0.010  0.00  0.00    +0.247 C 
ATOM      2  O   UNL     1      -1.248  -1.971  -0.105  0.00  0.00    -0.270 OA
ATOM      3  N   UNL     1      -2.438  -0.110   0.127  0.00  0.00    -0.296 N 
ATOM      4  C   UNL     1      -2.667   1.354   0.148  0.00  0.00    +0.121 C 
ATOM      5  C   UNL     1      -3.960   1.558  -0.674  0.00  0.00    +0.100 C 
ATOM      6  C   UNL     1      -4.694   0.210  -0.592  0.00  0.00    -0.004 C 
ATOM      7  C   UNL     1      -3.793  -0.698   0.259  0.00  0.00    +0.115 C 
ATOM      8  C   UNL     1      -6.052   0.388   0.081  0.00  0.00    -0.010 C 
ATOM      9  C   UNL     1      -6.788  -0.955   0.098  0.00  0.00    -0.082 C 
ATOM     10  N   UNL     1      -6.960  -1.439  -1.277  0.00  0.00    +0.379 N 
ATOM     11  C   UNL     1      -5.649  -1.696  -1.885  0.00  0.00    -0.082 C 
ATOM     12  C   UNL     1      -4.866  -0.385  -1.987  0.00  0.00    -0.010 C 
ATOM     13  H   UNL     1      -7.498  -2.293  -1.266  0.00  0.00    -0.086 HD
ATOM     14  H   UNL     1      -7.450  -0.743  -1.818  0.00  0.00    -0.086 HD
ENDROOT
BRANCH   1  20
ATOM     15  C   UNL     1       0.069   1.246   0.640  0.00  0.00    +0.016 A 
ATOM     16  C   UNL     1       1.255   1.948   0.648  0.00  0.00    +0.039 A 
ATOM     17  C   UNL     1       2.383   1.416   0.041  0.00  0.00    +0.135 A 
ATOM     18  C   UNL     1       2.324   0.176  -0.576  0.00  0.00    +0.091 A 
ATOM     19  C   UNL     1       1.143  -0.535  -0.589  0.00  0.00    +0.028 A 
ATOM     20  C   UNL     1       0.004  -0.004   0.021  0.00  0.00    +0.038 A 
ATOM     21  F   UNL     1       3.543   2.109   0.051  0.00  0.00    -0.205 F 
BRANCH  18  22
ATOM     22  C   UNL     1       3.553  -0.396  -1.234  0.00  0.00    +0.420 C 
ATOM     23  F   UNL     1       3.250  -1.646  -1.783  0.00  0.00    -0.166 F 
ATOM     24  F   UNL     1       3.984   0.467  -2.247  0.00  0.00    -0.166 F 
ATOM     25  F   UNL     1       4.568  -0.539  -0.281  0.00  0.00    -0.166 F 
ENDBRANCH  18  22
ENDBRANCH   1  20
BRANCH   5  26
ATOM     26  C   UNL     1      -4.799   2.653  -0.069  0.00  0.00    +0.218 C 
ATOM     27  O   UNL     1      -4.694   2.917   1.111  0.00  0.00    -0.275 OA
ATOM     28  N   UNL     1      -5.667   3.341  -0.838  0.00  0.00    -0.315 N 
ATOM     29  H   UNL     1      -5.751   3.130  -1.781  0.00  0.00    +0.149 HD
BRANCH  28  30
ATOM     30  C   UNL     1      -6.483   4.405  -0.249  0.00  0.00    +0.104 C 
BRANCH  30  31
ATOM     31  C   UNL     1      -7.375   5.020  -1.329  0.00  0.00    +0.019 C 
BRANCH  31  32
ATOM     32  C   UNL     1      -8.228   6.132  -0.714  0.00  0.00    +0.002 C 
BRANCH  32  33
ATOM     33  C   UNL     1      -9.120   6.747  -1.794  0.00  0.00    +0.011 C 
BRANCH  33  34
ATOM     34  C   UNL     1      -9.973   7.859  -1.179  0.00  0.00    +0.125 C 
BRANCH  34  35
ATOM     35  C   UNL     1     -10.852   8.464  -2.243  0.00  0.00    +0.356 C 
ATOM     36  O   UNL     1     -10.801   8.045  -3.387  0.00  0.00    -0.246 OA
ATOM     37  O   UNL     1     -11.613   9.373  -1.960  0.00  0.00    -0.246 OA
ENDBRANCH  34  35
ENDBRANCH  33  34
ENDBRANCH  32  33
ENDBRANCH  31  32
ENDBRANCH  30  31
ENDBRANCH  28  30
ENDBRANCH   5  26
TORSDOF 9
