REMARK  Name = ZINC30978040
REMARK  13 active torsions:
REMARK  status: ('A' for Active; 'I' for Inactive)
REMARK    1  A    between atoms: C_1  and  C_2
REMARK    2  A    between atoms: C_2  and  C_4
REMARK    3  A    between atoms: C_2  and  N_14
REMARK    4  A    between atoms: C_7  and  S_10
REMARK    5  A    between atoms: S_10  and  C_13
REMARK    6  A    between atoms: C_15  and  C_17
REMARK    7  A    between atoms: N_20  and  C_23
REMARK    8  A    between atoms: C_23  and  C_24
REMARK    9  A    between atoms: C_26  and  C_29
REMARK   10  A    between atoms: C_32  and  C_35
REMARK   11  A    between atoms: C_35  and  C_36
REMARK   12  A    between atoms: C_35  and  C_37
REMARK   13  A    between atoms: C_35  and  C_38
REMARK                            x       y       z     vdW  Elec       q    Type
REMARK                         _______ _______ _______ _____ _____    ______ ____
ROOT
ATOM      1  C   UNL     1       2.783  -1.099   2.395  0.00  0.00    +0.071 C 
ATOM      2  C   UNL     1       2.509  -0.161   3.573  0.00  0.00    -0.006 C 
ATOM      3  C   UNL     1       3.300  -0.638   4.793  0.00  0.00    -0.077 C 
ATOM      4  N   UNL     1       4.733  -0.649   4.476  0.00  0.00    +0.386 N 
ATOM      5  C   UNL     1       5.027  -1.579   3.378  0.00  0.00    -0.077 C 
ATOM      6  C   UNL     1       4.288  -1.129   2.115  0.00  0.00    -0.006 C 
ATOM      7  H   UNL     1       5.010   0.362   4.142  0.00  0.00    -0.081 HD
ENDROOT
BRANCH   1   9
ATOM      8  N   UNL     1       0.711  -0.489   1.189  0.00  0.00    -0.309 N 
ATOM      9  C   UNL     1       2.054  -0.600   1.174  0.00  0.00    +0.216 C 
ATOM     10  O   UNL     1       2.676  -0.297   0.177  0.00  0.00    -0.276 OA
ATOM     11  H   UNL     1       0.146  -0.764   2.092  0.00  0.00    +0.149 HD
BRANCH   8  13
ATOM     12  C   UNL     1      -0.019   1.526   0.010  0.00  0.00    +0.033 C 
ATOM     13  C   UNL     1       0.002  -0.004   0.002  0.00  0.00    +0.100 C 
BRANCH  13  14
ATOM     14  C   UNL     1      -1.412  -0.526   0.013  0.00  0.00    -0.027 A 
ATOM     15  C   UNL     1      -2.119  -0.582   1.199  0.00  0.00    +0.007 A 
ATOM     16  C   UNL     1      -3.417  -1.056   1.208  0.00  0.00    +0.027 A 
ATOM     17  C   UNL     1      -4.005  -1.483   0.033  0.00  0.00    +0.088 A 
ATOM     18  C   UNL     1      -3.296  -1.433  -1.153  0.00  0.00    +0.027 A 
ATOM     19  C   UNL     1      -2.000  -0.954  -1.163  0.00  0.00    +0.007 A 
BRANCH  17  20
ATOM     20  S   UNL     1      -5.658  -2.094   0.045  0.00  0.00    -0.006 S 
ATOM     21  O   UNL     1      -6.267  -1.468   1.166  0.00  0.00    -0.170 OA
ATOM     22  O   UNL     1      -6.142  -1.857  -1.270  0.00  0.00    -0.170 OA
ATOM     23  C   UNL     1      -5.494  -3.877   0.339  0.00  0.00    +0.200 C 
ENDBRANCH  17  20
ENDBRANCH  13  14
ENDBRANCH   8  13
ENDBRANCH   1   9
BRANCH   4  24
ATOM     24  C   UNL     1       5.534  -0.969   5.665  0.00  0.00    +0.022 C 
BRANCH  24  25
ATOM     25  C   UNL     1       5.394   0.138   6.678  0.00  0.00    +0.211 A 
ATOM     26  N   UNL     1       4.493   0.216   7.625  0.00  0.00    -0.193 NA
ATOM     27  C   UNL     1       4.754   1.369   8.281  0.00  0.00    +0.202 A 
ATOM     28  N   UNL     1       5.788   1.919   7.699  0.00  0.00    -0.056 NA
ATOM     29  O   UNL     1       6.169   1.222   6.782  0.00  0.00    -0.340 OA
BRANCH  27  30
ATOM     30  C   UNL     1       4.007   1.911   9.444  0.00  0.00    +0.022 A 
ATOM     31  C   UNL     1       2.914   1.216   9.958  0.00  0.00    +0.012 A 
ATOM     32  C   UNL     1       2.226   1.721  11.042  0.00  0.00    +0.005 A 
ATOM     33  C   UNL     1       2.613   2.921  11.612  0.00  0.00    -0.042 A 
ATOM     34  C   UNL     1       3.694   3.618  11.102  0.00  0.00    +0.005 A 
ATOM     35  C   UNL     1       4.392   3.119  10.021  0.00  0.00    +0.012 A 
BRANCH  33  36
ATOM     36  C   UNL     1       1.854   3.471  12.792  0.00  0.00    -0.013 C 
ATOM     37  C   UNL     1       1.276   4.841  12.432  0.00  0.00    +0.015 C 
ATOM     38  C   UNL     1       0.715   2.517  13.155  0.00  0.00    +0.015 C 
ATOM     39  C   UNL     1       2.800   3.614  13.985  0.00  0.00    +0.015 C 
ENDBRANCH  33  36
ENDBRANCH  27  30
ENDBRANCH  24  25
ENDBRANCH   4  24
TORSDOF 8
