REMARK  Name = ZINC59599246
REMARK  9 active torsions:
REMARK  status: ('A' for Active; 'I' for Inactive)
REMARK    1  A    between atoms: C_1  and  N_2
REMARK    2  A    between atoms: C_3  and  N_33
REMARK    3  A    between atoms: C_4  and  O_11
REMARK    4  A    between atoms: N_7  and  C_10
REMARK    5  A    between atoms: O_11  and  C_12
REMARK    6  A    between atoms: C_15  and  C_18
REMARK    7  A    between atoms: N_19  and  N_20
REMARK    8  A    between atoms: N_20  and  C_21
REMARK    9  A    between atoms: N_20  and  C_27
REMARK                            x       y       z     vdW  Elec       q    Type
REMARK                         _______ _______ _______ _____ _____    ______ ____
ROOT
ATOM      1  C   UNL     1      -3.431  -1.697  -1.556  0.00  0.00    +0.129 A 
ATOM      2  C   UNL     1      -3.534  -0.315  -1.655  0.00  0.00    +0.047 A 
ATOM      3  C   UNL     1      -4.747   0.304  -1.444  0.00  0.00    +0.013 A 
ATOM      4  C   UNL     1      -5.875  -0.460  -1.130  0.00  0.00    -0.005 A 
ATOM      5  C   UNL     1      -5.766  -1.850  -1.032  0.00  0.00    +0.013 A 
ATOM      6  C   UNL     1      -4.550  -2.461  -1.250  0.00  0.00    +0.047 A 
ENDROOT
BRANCH   4   7
ATOM      7  C   UNL     1      -7.174   0.198  -0.904  0.00  0.00    +0.138 C 
ATOM      8  N   UNL     1      -8.220  -0.514  -0.612  0.00  0.00    -0.182 NA
BRANCH   8   9
ATOM      9  N   UNL     1      -9.434   0.116  -0.307  0.00  0.00    -0.193 N 
BRANCH   9  10
ATOM     10  C   UNL     1     -10.525  -0.642   0.124  0.00  0.00    +0.057 A 
ATOM     11  C   UNL     1     -11.771  -0.044   0.277  0.00  0.00    +0.025 A 
ATOM     12  C   UNL     1     -12.847  -0.796   0.703  0.00  0.00    +0.002 A 
ATOM     13  C   UNL     1     -12.688  -2.143   0.978  0.00  0.00    +0.000 A 
ATOM     14  C   UNL     1     -11.450  -2.740   0.827  0.00  0.00    +0.002 A 
ATOM     15  C   UNL     1     -10.369  -1.996   0.396  0.00  0.00    +0.025 A 
ENDBRANCH   9  10
BRANCH   9  16
ATOM     16  C   UNL     1      -9.552   1.502  -0.435  0.00  0.00    +0.057 A 
ATOM     17  C   UNL     1      -9.986   2.266   0.642  0.00  0.00    +0.025 A 
ATOM     18  C   UNL     1     -10.101   3.636   0.512  0.00  0.00    +0.002 A 
ATOM     19  C   UNL     1      -9.786   4.247  -0.688  0.00  0.00    +0.000 A 
ATOM     20  C   UNL     1      -9.354   3.490  -1.762  0.00  0.00    +0.002 A 
ATOM     21  C   UNL     1      -9.232   2.120  -1.638  0.00  0.00    +0.025 A 
ENDBRANCH   9  16
ENDBRANCH   8   9
ENDBRANCH   4   7
BRANCH   1  22
ATOM     22  O   UNL     1      -2.234  -2.303  -1.764  0.00  0.00    -0.447 OA
BRANCH  22  26
ATOM     23  C   UNL     1       1.341  -0.674  -4.573  0.00  0.00    +0.155 C 
ATOM     24  N   UNL     1       0.626  -0.693  -3.295  0.00  0.00    -0.282 N 
ATOM     25  C   UNL     1      -0.477  -1.501  -3.140  0.00  0.00    +0.149 A 
ATOM     26  C   UNL     1      -1.138  -1.512  -1.943  0.00  0.00    +0.230 A 
ATOM     27  C   UNL     1      -0.671  -0.694  -0.898  0.00  0.00    +0.301 A 
ATOM     28  O   UNL     1      -1.244  -0.687   0.178  0.00  0.00    -0.263 OA
ATOM     29  N   UNL     1       0.413   0.081  -1.095  0.00  0.00    -0.261 N 
ATOM     30  C   UNL     1       1.055   0.075  -2.277  0.00  0.00    +0.333 A 
ATOM     31  O   UNL     1       2.034   0.779  -2.430  0.00  0.00    -0.246 OA
ATOM     32  C   UNL     1       0.902   0.934  -0.008  0.00  0.00    +0.157 C 
BRANCH  25  33
ATOM     33  N   UNL     1      -0.911  -2.289  -4.180  0.00  0.00    -0.341 N 
ATOM     34  H   UNL     1      -0.486  -2.223  -5.049  0.00  0.00    +0.144 HD
ATOM     35  H   UNL     1      -1.641  -2.912  -4.044  0.00  0.00    +0.144 HD
ENDBRANCH  25  33
ENDBRANCH  22  26
ENDBRANCH   1  22
TORSDOF 7
