REMARK  Name = ZINC12807381
REMARK  11 active torsions:
REMARK  status: ('A' for Active; 'I' for Inactive)
REMARK    1  A    between atoms: C_1  and  C_2
REMARK    2  A    between atoms: C_2  and  C_3
REMARK    3  A    between atoms: C_4  and  C_32
REMARK    4  A    between atoms: N_10  and  C_25
REMARK    5  A    between atoms: C_11  and  S_13
REMARK    6  A    between atoms: S_13  and  C_14
REMARK    7  A    between atoms: C_14  and  C_16
REMARK    8  A    between atoms: C_14  and  C_19
REMARK    9  A    between atoms: C_16  and  C_17
REMARK   10  A    between atoms: C_16  and  C_18
REMARK   11  A    between atoms: C_29  and  C_31
REMARK                            x       y       z     vdW  Elec       q    Type
REMARK                         _______ _______ _______ _____ _____    ______ ____
ROOT
ATOM      1  C   UNL     1      -0.660   1.005   1.484  0.00  0.00    -0.023 A 
ATOM      2  C   UNL     1      -0.400   2.289   1.769  0.00  0.00    -0.007 A 
ATOM      3  S   UNL     1      -1.889   2.845   2.576  0.00  0.00    -0.073 S 
ATOM      4  C   UNL     1      -2.816   1.333   2.516  0.00  0.00    +0.117 A 
ATOM      5  C   UNL     1      -1.943   0.439   1.866  0.00  0.00    +0.076 A 
ATOM      6  C   UNL     1      -2.439  -0.889   1.676  0.00  0.00    +0.268 A 
ATOM      7  O   UNL     1      -1.753  -1.731   1.123  0.00  0.00    -0.267 OA
ATOM      8  N   UNL     1      -3.673  -1.197   2.116  0.00  0.00    -0.255 N 
ATOM      9  C   UNL     1      -4.456  -0.266   2.740  0.00  0.00    +0.178 A 
ATOM     10  N   UNL     1      -4.023   0.965   2.927  0.00  0.00    -0.215 NA
ATOM     11  C   UNL     1       0.852   3.075   1.475  0.00  0.00    +0.052 C 
ENDROOT
BRANCH   8  12
ATOM     12  C   UNL     1      -4.163  -2.496   1.933  0.00  0.00    +0.052 A 
ATOM     13  C   UNL     1      -3.912  -3.476   2.884  0.00  0.00    +0.026 A 
ATOM     14  C   UNL     1      -4.400  -4.755   2.703  0.00  0.00    +0.002 A 
ATOM     15  C   UNL     1      -5.132  -5.062   1.570  0.00  0.00    +0.003 A 
ATOM     16  C   UNL     1      -5.380  -4.090   0.619  0.00  0.00    -0.048 A 
ATOM     17  C   UNL     1      -4.898  -2.808   0.797  0.00  0.00    +0.029 A 
ATOM     18  C   UNL     1      -6.178  -4.430  -0.614  0.00  0.00    +0.044 C 
ENDBRANCH   8  12
BRANCH   1  20
ATOM     19  C   UNL     1       0.165   0.258  -0.732  0.00  0.00    +0.009 C 
ATOM     20  C   UNL     1       0.368   0.156   0.781  0.00  0.00    +0.033 C 
ENDBRANCH   1  20
BRANCH   9  21
ATOM     21  S   UNL     1      -6.064  -0.717   3.300  0.00  0.00    -0.074 S 
BRANCH  21  22
ATOM     22  C   UNL     1      -6.539   0.808   4.152  0.00  0.00    +0.143 C 
BRANCH  22  23
ATOM     23  C   UNL     1      -5.685   0.983   5.381  0.00  0.00    +0.234 C 
ATOM     24  O   UNL     1      -5.110   0.029   5.861  0.00  0.00    -0.274 OA
ATOM     25  N   UNL     1      -5.560   2.200   5.948  0.00  0.00    -0.239 N 
ATOM     26  C   UNL     1      -4.796   2.356   7.047  0.00  0.00    +0.303 C 
ATOM     27  O   UNL     1      -4.219   1.400   7.527  0.00  0.00    -0.253 OA
ATOM     28  N   UNL     1      -4.671   3.573   7.613  0.00  0.00    -0.313 N 
ATOM     29  H   UNL     1      -6.020   2.962   5.564  0.00  0.00    +0.159 HD
ATOM     30  H   UNL     1      -5.131   4.336   7.230  0.00  0.00    +0.146 HD
ATOM     31  H   UNL     1      -4.121   3.685   8.404  0.00  0.00    +0.146 HD
ENDBRANCH  22  23
BRANCH  22  32
ATOM     32  C   UNL     1      -8.011   0.726   4.562  0.00  0.00    +0.005 C 
ATOM     33  C   UNL     1      -8.408   2.008   5.296  0.00  0.00    +0.009 C 
ATOM     34  C   UNL     1      -8.879   0.564   3.313  0.00  0.00    +0.009 C 
ENDBRANCH  22  32
ENDBRANCH  21  22
ENDBRANCH   9  21
TORSDOF 6
