REMARK  Name = ZINC12554371
REMARK  5 active torsions:
REMARK  status: ('A' for Active; 'I' for Inactive)
REMARK    1  A    between atoms: N_7  and  C_20
REMARK    2  A    between atoms: C_9  and  C_12
REMARK    3  A    between atoms: C_20  and  C_21
REMARK    4  A    between atoms: N_23  and  C_24
REMARK    5  A    between atoms: C_28  and  N_30
REMARK                            x       y       z     vdW  Elec       q    Type
REMARK                         _______ _______ _______ _____ _____    ______ ____
ROOT
ATOM      1  C   UNL     1       2.729  -6.709  -3.572  0.00  0.00    +0.002 A 
ATOM      2  C   UNL     1       1.952  -7.853  -3.574  0.00  0.00    +0.004 A 
ATOM      3  C   UNL     1       1.623  -8.467  -2.380  0.00  0.00    +0.047 A 
ATOM      4  C   UNL     1       2.070  -7.940  -1.177  0.00  0.00    +0.143 A 
ATOM      5  C   UNL     1       2.854  -6.792  -1.173  0.00  0.00    +0.073 A 
ATOM      6  C   UNL     1       3.179  -6.179  -2.379  0.00  0.00    +0.027 A 
ATOM      7  N   UNL     1       3.332  -6.228   0.015  0.00  0.00    -0.314 N 
ATOM      8  C   UNL     1       2.561  -6.667   1.184  0.00  0.00    +0.160 C 
ATOM      9  C   UNL     1       2.456  -8.198   1.155  0.00  0.00    +0.276 C 
ATOM     10  O   UNL     1       1.724  -8.566  -0.019  0.00  0.00    -0.476 OA
ENDROOT
BRANCH   9  11
ATOM     11  C   UNL     1       1.730  -8.684   2.382  0.00  0.00    +0.258 C 
ATOM     12  O   UNL     1       0.603  -9.121   2.287  0.00  0.00    -0.271 OA
ATOM     13  N   UNL     1       2.334  -8.633   3.586  0.00  0.00    -0.298 N 
ATOM     14  C   UNL     1       3.657  -8.012   3.735  0.00  0.00    +0.108 C 
ATOM     15  C   UNL     1       3.576  -6.949   4.841  0.00  0.00    +0.019 C 
ATOM     16  C   UNL     1       3.037  -7.593   6.121  0.00  0.00    +0.003 C 
ATOM     17  C   UNL     1       1.627  -8.132   5.868  0.00  0.00    +0.019 C 
ATOM     18  C   UNL     1       1.683  -9.204   4.774  0.00  0.00    +0.108 C 
ENDBRANCH   9  11
BRANCH   7  19
ATOM     19  C   UNL     1       3.364  -4.763  -0.074  0.00  0.00    +0.201 C 
BRANCH  19  20
ATOM     20  C   UNL     1       1.962  -4.238  -0.242  0.00  0.00    +0.235 C 
ATOM     21  O   UNL     1       1.040  -5.011  -0.398  0.00  0.00    -0.274 OA
ATOM     22  N   UNL     1       1.731  -2.910  -0.219  0.00  0.00    -0.284 N 
ATOM     23  H   UNL     1       2.475  -2.290  -0.164  0.00  0.00    +0.155 HD
BRANCH  22  24
ATOM     24  C   UNL     1       0.419  -2.427  -0.275  0.00  0.00    +0.036 A 
ATOM     25  C   UNL     1      -0.531  -3.080  -1.049  0.00  0.00    +0.023 A 
ATOM     26  C   UNL     1      -1.825  -2.601  -1.101  0.00  0.00    +0.004 A 
ATOM     27  C   UNL     1      -2.176  -1.474  -0.380  0.00  0.00    +0.033 A 
ATOM     28  C   UNL     1      -1.231  -0.818   0.387  0.00  0.00    +0.128 A 
ATOM     29  C   UNL     1       0.065  -1.293   0.444  0.00  0.00    +0.056 A 
BRANCH  28  30
ATOM     30  N   UNL     1      -1.610   0.391   1.152  0.00  0.00    +0.056 N 
ATOM     31  O   UNL     1      -0.779   0.967   1.832  0.00  0.00    -0.126 OA
ATOM     32  O   UNL     1      -2.751   0.813   1.099  0.00  0.00    -0.126 OA
ENDBRANCH  28  30
ENDBRANCH  22  24
ENDBRANCH  19  20
ENDBRANCH   7  19
TORSDOF 5
