REMARK  Name = ZINC12888528
REMARK  15 active torsions:
REMARK  status: ('A' for Active; 'I' for Inactive)
REMARK    1  A    between atoms: C_1  and  C_2
REMARK    2  A    between atoms: C_2  and  C_3
REMARK    3  A    between atoms: C_3  and  C_5
REMARK    4  A    between atoms: C_3  and  N_6
REMARK    5  A    between atoms: C_7  and  C_9
REMARK    6  A    between atoms: C_9  and  C_10
REMARK    7  A    between atoms: C_10  and  C_11
REMARK    8  A    between atoms: C_11  and  O_13
REMARK    9  A    between atoms: O_13  and  C_14
REMARK   10  A    between atoms: C_14  and  C_15
REMARK   11  A    between atoms: C_15  and  C_17
REMARK   12  A    between atoms: C_17  and  O_42
REMARK   13  A    between atoms: C_22  and  C_41
REMARK   14  A    between atoms: C_24  and  O_40
REMARK   15  A    between atoms: C_38  and  C_39
REMARK                            x       y       z     vdW  Elec       q    Type
REMARK                         _______ _______ _______ _____ _____    ______ ____
ROOT
ATOM      1  C   UNL     1       2.887   0.160   1.665  0.00  0.00    +0.133 C 
ATOM      2  C   UNL     1       2.623  -0.251   3.124  0.00  0.00    +0.043 C 
ATOM      3  C   UNL     1       1.916   0.935   3.806  0.00  0.00    +0.008 C 
ATOM      4  C   UNL     1       1.284   1.759   2.652  0.00  0.00    +0.002 C 
ATOM      5  C   UNL     1       2.220   1.525   1.468  0.00  0.00    +0.009 C 
ATOM      6  C   UNL     1       1.599   1.701   0.112  0.00  0.00    +0.041 C 
ATOM      7  C   UNL     1       0.163   1.201  -0.035  0.00  0.00    +0.119 C 
ATOM      8  C   UNL     1      -0.701   1.749   1.095  0.00  0.00    +0.031 C 
ATOM      9  C   UNL     1      -0.132   1.247   2.424  0.00  0.00    -0.001 C 
ATOM     10  C   UNL     1      -0.187  -0.278   2.457  0.00  0.00    +0.008 C 
ATOM     11  C   UNL     1      -1.650  -0.722   2.486  0.00  0.00    +0.032 C 
ATOM     12  C   UNL     1      -2.418  -0.068   1.359  0.00  0.00    -0.060 C 
ATOM     13  C   UNL     1      -3.318  -0.829   0.728  0.00  0.00    +0.046 C 
ATOM     14  C   UNL     1      -4.167  -0.293  -0.337  0.00  0.00    +0.156 C 
ATOM     15  O   UNL     1      -4.825  -1.023  -1.053  0.00  0.00    -0.293 OA
ATOM     16  C   UNL     1      -4.192   1.213  -0.515  0.00  0.00    +0.080 C 
ATOM     17  C   UNL     1      -2.743   1.696  -0.386  0.00  0.00    +0.019 C 
ATOM     18  C   UNL     1      -2.171   1.361   0.984  0.00  0.00    -0.005 C 
ATOM     19  C   UNL     1      -2.942   2.230   1.996  0.00  0.00    +0.016 C 
ATOM     20  C   UNL     1       3.348   2.581   1.572  0.00  0.00    +0.015 C 
ENDROOT
BRANCH   1  21
ATOM     21  C   UNL     1       4.377   0.288   1.441  0.00  0.00    +0.202 C 
ATOM     22  O   UNL     1       5.111   0.509   2.374  0.00  0.00    -0.291 OA
BRANCH  21  23
ATOM     23  C   UNL     1       4.946   0.140   0.053  0.00  0.00    +0.309 C 
BRANCH  23  24
ATOM     24  O   UNL     1       6.388   0.304   0.101  0.00  0.00    -0.457 OA
BRANCH  24  25
ATOM     25  C   UNL     1       7.052   0.200  -1.061  0.00  0.00    +0.308 C 
ATOM     26  O   UNL     1       6.448  -0.020  -2.084  0.00  0.00    -0.251 OA
BRANCH  25  27
ATOM     27  C   UNL     1       8.550   0.358  -1.090  0.00  0.00    +0.130 C 
BRANCH  27  28
ATOM     28  C   UNL     1       9.053   0.196  -2.525  0.00  0.00    +0.107 C 
BRANCH  28  30
ATOM     29  N   UNL     1      11.218   0.250  -3.720  0.00  0.00    -0.313 N 
ATOM     30  C   UNL     1      10.551   0.354  -2.554  0.00  0.00    +0.214 C 
ATOM     31  O   UNL     1      11.157   0.575  -1.527  0.00  0.00    -0.276 OA
ATOM     32  H   UNL     1      10.733   0.073  -4.542  0.00  0.00    +0.149 HD
BRANCH  29  33
ATOM     33  C   UNL     1      12.675   0.404  -3.748  0.00  0.00    +0.070 C 
ATOM     34  C   UNL     1      13.029   1.889  -3.847  0.00  0.00    +0.028 C 
BRANCH  33  36
ATOM     35  C   UNL     1      12.998  -1.840  -4.800  0.00  0.00    +0.005 C 
ATOM     36  C   UNL     1      13.243  -0.338  -4.960  0.00  0.00    +0.018 C 
ENDBRANCH  33  36
ENDBRANCH  29  33
ENDBRANCH  28  30
ENDBRANCH  27  28
ENDBRANCH  25  27
ENDBRANCH  24  25
ENDBRANCH  23  24
ENDBRANCH  21  23
ENDBRANCH   1  21
BRANCH   7  37
ATOM     37  O   UNL     1      -0.291   1.692  -1.308  0.00  0.00    -0.391 OA
ATOM     38  H   UNL     1       0.247   1.401  -2.057  0.00  0.00    +0.210 HD
ENDBRANCH   7  37
BRANCH   1  39
ATOM     39  O   UNL     1       2.354  -0.807   0.762  0.00  0.00    -0.380 OA
ATOM     40  H   UNL     1       2.747  -1.686   0.851  0.00  0.00    +0.211 HD
ENDBRANCH   1  39
TORSDOF 11
