REMARK  Name = ZINC46085352
REMARK  4 active torsions:
REMARK  status: ('A' for Active; 'I' for Inactive)
REMARK    1  A    between atoms: C_1  and  C_2
REMARK    2  A    between atoms: C_5  and  C_7
REMARK    3  A    between atoms: N_8  and  N_9
REMARK    4  A    between atoms: C_18  and  C_20
REMARK                            x       y       z     vdW  Elec       q    Type
REMARK                         _______ _______ _______ _____ _____    ______ ____
ROOT
ATOM      1  N   UNL     1       3.846  -4.104   0.342  0.00  0.00    -0.205 N 
ATOM      2  C   UNL     1       5.200  -3.906   0.139  0.00  0.00    +0.236 A 
ATOM      3  N   UNL     1       5.640  -2.672  -0.029  0.00  0.00    -0.213 NA
ATOM      4  C   UNL     1       6.943  -2.438  -0.228  0.00  0.00    +0.077 A 
ATOM      5  C   UNL     1       7.445  -1.140  -0.409  0.00  0.00    +0.028 A 
ATOM      6  C   UNL     1       8.780  -0.957  -0.608  0.00  0.00    +0.002 A 
ATOM      7  C   UNL     1       9.658  -2.038  -0.634  0.00  0.00    +0.001 A 
ATOM      8  C   UNL     1       9.204  -3.313  -0.462  0.00  0.00    +0.012 A 
ATOM      9  C   UNL     1       7.838  -3.537  -0.255  0.00  0.00    +0.026 A 
ATOM     10  C   UNL     1       7.310  -4.839  -0.069  0.00  0.00    +0.084 A 
ATOM     11  N   UNL     1       6.004  -4.965   0.126  0.00  0.00    -0.213 NA
ATOM     12  H   UNL     1       3.502  -5.002   0.471  0.00  0.00    +0.177 HD
ENDROOT
BRANCH  10  13
ATOM     13  C   UNL     1       8.193  -6.027  -0.087  0.00  0.00    +0.001 A 
ATOM     14  C   UNL     1       9.405  -6.009   0.603  0.00  0.00    +0.010 A 
ATOM     15  C   UNL     1      10.224  -7.119   0.583  0.00  0.00    +0.001 A 
ATOM     16  C   UNL     1       9.844  -8.249  -0.120  0.00  0.00    +0.000 A 
ATOM     17  C   UNL     1       8.643  -8.273  -0.806  0.00  0.00    +0.001 A 
ATOM     18  C   UNL     1       7.813  -7.171  -0.789  0.00  0.00    +0.010 A 
ENDBRANCH  10  13
BRANCH   1  20
ATOM     19  C   UNL     1       1.700  -3.196   0.551  0.00  0.00    +0.176 C 
ATOM     20  N   UNL     1       2.973  -3.009   0.360  0.00  0.00    -0.184 NA
BRANCH  19  25
ATOM     21  C   UNL     1       0.002   1.512   0.349  0.00  0.00    +0.086 C 
ATOM     22  C   UNL     1       0.033   0.012   0.484  0.00  0.00    +0.103 A 
ATOM     23  C   UNL     1      -1.036  -0.780   0.702  0.00  0.00    +0.045 A 
ATOM     24  C   UNL     1      -0.565  -2.105   0.759  0.00  0.00    +0.051 A 
ATOM     25  C   UNL     1       0.785  -2.050   0.570  0.00  0.00    +0.148 A 
ATOM     26  O   UNL     1       1.131  -0.758   0.400  0.00  0.00    -0.459 OA
ENDBRANCH  19  25
ENDBRANCH   1  20
TORSDOF 3
