REMARK  Name = ZINC44318727
REMARK  12 active torsions:
REMARK  status: ('A' for Active; 'I' for Inactive)
REMARK    1  A    between atoms: C_1  and  C_2
REMARK    2  A    between atoms: C_4  and  C_17
REMARK    3  A    between atoms: C_5  and  C_16
REMARK    4  A    between atoms: N_6  and  C_7
REMARK    5  A    between atoms: C_17  and  CA_18
REMARK    6  A    between atoms: CA_18  and  C_20
REMARK    7  A    between atoms: CA_18  and  N_23
REMARK    8  A    between atoms: C_24  and  O_26
REMARK    9  A    between atoms: O_26  and  C_27
REMARK   10  A    between atoms: C_27  and  C_28
REMARK   11  A    between atoms: C_27  and  C_29
REMARK   12  A    between atoms: C_27  and  C_30
REMARK                            x       y       z     vdW  Elec       q    Type
REMARK                         _______ _______ _______ _____ _____    ______ ____
ROOT
ATOM      1  C   UNL     1      -0.228   1.361   0.171  0.00  0.00    +0.064 C 
ATOM      2  C   UNL     1      -0.177  -0.143   0.080  0.00  0.00    +0.021 A 
ATOM      3  C   UNL     1      -0.075  -0.864  -1.056  0.00  0.00    +0.026 A 
ATOM      4  C   UNL     1      -0.061  -2.225  -0.693  0.00  0.00    -0.024 A 
ATOM      5  C   UNL     1      -0.155  -2.287   0.651  0.00  0.00    +0.024 A 
ATOM      6  N   UNL     1      -0.221  -1.011   1.133  0.00  0.00    -0.317 N 
ATOM      7  C   UNL     1      -0.177  -3.546   1.479  0.00  0.00    +0.064 C 
ENDROOT
BRANCH   6   8
ATOM      8  C   UNL     1      -0.320  -0.651   2.486  0.00  0.00    +0.050 A 
ATOM      9  C   UNL     1       0.727  -0.927   3.356  0.00  0.00    +0.030 A 
ATOM     10  C   UNL     1       0.631  -0.573   4.688  0.00  0.00    +0.051 A 
ATOM     11  C   UNL     1      -0.509   0.058   5.159  0.00  0.00    +0.166 A 
ATOM     12  C   UNL     1      -1.561   0.336   4.289  0.00  0.00    +0.168 A 
ATOM     13  C   UNL     1      -1.461  -0.015   2.953  0.00  0.00    +0.075 A 
ATOM     14  O   UNL     1      -2.556   0.953   4.990  0.00  0.00    -0.453 OA
ATOM     15  C   UNL     1      -2.275   0.682   6.376  0.00  0.00    +0.466 C 
ATOM     16  O   UNL     1      -0.847   0.501   6.406  0.00  0.00    -0.453 OA
ENDBRANCH   6   8
BRANCH   4  17
ATOM     17  C   UNL     1       0.040  -3.398  -1.634  0.00  0.00    +0.071 C 
BRANCH  17  18
ATOM     18  CA  UNL     1       1.502  -3.834  -1.750  0.00  0.00    +0.193 C 
BRANCH  18  19
ATOM     19  N   UNL     1       2.281  -2.769  -2.385  0.00  0.00    -0.267 N 
ATOM     20  C   UNL     1       3.600  -2.658  -2.135  0.00  0.00    +0.401 C 
ATOM     21  O   UNL     1       4.144  -3.441  -1.381  0.00  0.00    -0.226 OA
ATOM     22  H   UNL     1       1.847  -2.144  -2.987  0.00  0.00    +0.153 HD
BRANCH  20  23
ATOM     23  O   UNL     1       4.317  -1.679  -2.719  0.00  0.00    -0.445 OA
BRANCH  23  24
ATOM     24  C   UNL     1       5.710  -1.620  -2.407  0.00  0.00    +0.107 C 
ATOM     25  C   UNL     1       6.382  -2.928  -2.829  0.00  0.00    +0.055 C 
ATOM     26  C   UNL     1       6.352  -0.452  -3.159  0.00  0.00    +0.055 C 
ATOM     27  C   UNL     1       5.888  -1.417  -0.901  0.00  0.00    +0.055 C 
ENDBRANCH  23  24
ENDBRANCH  20  23
ENDBRANCH  18  19
BRANCH  18  28
ATOM     28  C   UNL     1       1.587  -5.086  -2.585  0.00  0.00    +0.376 C 
ATOM     29  O   UNL     1       1.729  -5.004  -3.793  0.00  0.00    -0.244 OA
ATOM     30  OXT UNL     1       1.515  -6.180  -2.053  0.00  0.00    -0.244 OA
ENDBRANCH  18  28
ENDBRANCH  17  18
ENDBRANCH   4  17
TORSDOF 7
