REMARK  Name = ZINC06177939
REMARK  13 active torsions:
REMARK  status: ('A' for Active; 'I' for Inactive)
REMARK    1  A    between atoms: C_1  and  C_2
REMARK    2  A    between atoms: C_4  and  C_38
REMARK    3  A    between atoms: C_9  and  C_14
REMARK    4  A    between atoms: C_14  and  C_16
REMARK    5  A    between atoms: C_14  and  N_66
REMARK    6  A    between atoms: N_20  and  C_21
REMARK    7  A    between atoms: C_21  and  C_22
REMARK    8  A    between atoms: C_22  and  O_23
REMARK    9  A    between atoms: O_23  and  C_24
REMARK   10  A    between atoms: C_25  and  C_26
REMARK   11  A    between atoms: C_25  and  N_66
REMARK   12  A    between atoms: C_32  and  C_33
REMARK   13  A    between atoms: C_32  and  N_66
REMARK                            x       y       z     vdW  Elec       q    Type
REMARK                         _______ _______ _______ _____ _____    ______ ____
ROOT
ATOM      1  C   UNL     1      -0.765  -1.124   0.283  0.00  0.00    +0.040 C 
ENDROOT
BRANCH   1  10
ATOM      2  C   UNL     1       4.897   3.039   2.777  0.00  0.00    +0.044 C 
ATOM      3  C   UNL     1       4.337   1.712   2.335  0.00  0.00    -0.050 A 
ATOM      4  C   UNL     1       5.154   0.589   2.325  0.00  0.00    +0.008 A 
ATOM      5  C   UNL     1       4.663  -0.635   1.924  0.00  0.00    -0.026 A 
ATOM      6  C   UNL     1       3.335  -0.748   1.524  0.00  0.00    +0.052 A 
ATOM      7  C   UNL     1       2.510   0.392   1.536  0.00  0.00    -0.001 A 
ATOM      8  C   UNL     1       3.030   1.624   1.947  0.00  0.00    +0.013 A 
ATOM      9  C   UNL     1       1.114   0.263   1.113  0.00  0.00    +0.017 A 
ATOM     10  C   UNL     1       0.666  -0.957   0.725  0.00  0.00    +0.011 A 
ATOM     11  C   UNL     1       1.534  -2.069   0.732  0.00  0.00    +0.251 A 
ATOM     12  O   UNL     1       1.110  -3.156   0.380  0.00  0.00    -0.268 OA
ATOM     13  N   UNL     1       2.817  -1.960   1.119  0.00  0.00    -0.322 N 
ATOM     14  H   UNL     1       3.387  -2.745   1.112  0.00  0.00    +0.169 HD
ATOM     15  C   UNL     1       5.560  -1.845   1.919  0.00  0.00    +0.046 C 
ENDBRANCH   1  10
BRANCH   1  16
ATOM     16  C   UNL     1      -0.800  -1.496  -1.177  0.00  0.00    +0.143 A 
ATOM     17  N   UNL     1      -0.230  -2.536  -1.734  0.00  0.00    -0.115 NA
ATOM     18  N   UNL     1      -0.489  -2.504  -2.995  0.00  0.00    -0.023 NA
ATOM     19  N   UNL     1      -1.211  -1.471  -3.258  0.00  0.00    -0.044 NA
ATOM     20  N   UNL     1      -1.429  -0.827  -2.162  0.00  0.00    -0.228 N 
BRANCH  20  21
ATOM     21  C   UNL     1      -2.210   0.404  -2.016  0.00  0.00    +0.175 C 
BRANCH  21  22
ATOM     22  C   UNL     1      -1.320   1.612  -2.319  0.00  0.00    +0.183 C 
BRANCH  22  23
ATOM     23  O   UNL     1      -2.082   2.812  -2.177  0.00  0.00    -0.381 OA
ATOM     24  C   UNL     1      -1.341   4.006  -2.439  0.00  0.00    +0.194 C 
ENDBRANCH  22  23
ENDBRANCH  21  22
ENDBRANCH  20  21
ENDBRANCH   1  16
BRANCH   1  25
ATOM     25  N   UNL     1      -1.383  -2.210   1.073  0.00  0.00    +0.397 N 
ATOM     26  H   UNL     1      -0.765  -3.029   1.056  0.00  0.00    -0.079 HD
BRANCH  25  27
ATOM     27  C   UNL     1      -2.688  -2.581   0.487  0.00  0.00    -0.039 C 
BRANCH  27  28
ATOM     28  C   UNL     1      -2.513  -3.854  -0.300  0.00  0.00    -0.046 A 
ATOM     29  C   UNL     1      -2.410  -3.816  -1.682  0.00  0.00    +0.005 A 
ATOM     30  C   UNL     1      -2.245  -5.011  -2.364  0.00  0.00    +0.020 A 
ATOM     31  C   UNL     1      -2.199  -6.194  -1.650  0.00  0.00    +0.111 A 
ATOM     32  N   UNL     1      -2.306  -6.193  -0.336  0.00  0.00    -0.263 NA
ATOM     33  C   UNL     1      -2.459  -5.074   0.346  0.00  0.00    +0.112 A 
ENDBRANCH  27  28
ENDBRANCH  25  27
BRANCH  25  34
ATOM     34  C   UNL     1      -1.564  -1.774   2.474  0.00  0.00    -0.001 C 
BRANCH  34  35
ATOM     35  C   UNL     1      -0.252  -1.928   3.200  0.00  0.00    +0.089 A 
ATOM     36  C   UNL     1       0.465  -0.931   3.748  0.00  0.00    +0.042 A 
ATOM     37  C   UNL     1       1.616  -1.520   4.320  0.00  0.00    +0.041 A 
ATOM     38  C   UNL     1       1.533  -2.842   4.087  0.00  0.00    +0.195 A 
ATOM     39  O   UNL     1       0.397  -3.084   3.413  0.00  0.00    -0.470 OA
ENDBRANCH  34  35
ENDBRANCH  25  34
ENDBRANCH   1  25
TORSDOF 10
