REMARK  Name = ZINC13203770
REMARK  8 active torsions:
REMARK  status: ('A' for Active; 'I' for Inactive)
REMARK    1  A    between atoms: C_6  and  C_7
REMARK    2  A    between atoms: C_10  and  S_15
REMARK    3  A    between atoms: N_11  and  C_12
REMARK    4  A    between atoms: C_12  and  C_13
REMARK    5  A    between atoms: S_15  and  C_16
REMARK    6  A    between atoms: C_16  and  C_17
REMARK    7  A    between atoms: N_19  and  C_20
REMARK    8  A    between atoms: C_23  and  N_26
REMARK                            x       y       z     vdW  Elec       q    Type
REMARK                         _______ _______ _______ _____ _____    ______ ____
ROOT
ATOM      1  C   UNL     1      -1.918   0.857   2.566  0.00  0.00    +0.165 A 
ATOM      2  N   UNL     1      -2.317   1.833   3.347  0.00  0.00    -0.128 NA
ATOM      3  N   UNL     1      -1.448   2.780   3.345  0.00  0.00    -0.122 NA
ATOM      4  C   UNL     1      -0.438   2.464   2.566  0.00  0.00    +0.193 A 
ATOM      5  N   UNL     1      -0.704   1.232   2.039  0.00  0.00    -0.291 N 
ENDROOT
BRANCH   1  11
ATOM      6  C   UNL     1      -2.313  -1.178   1.184  0.00  0.00    +0.013 A 
ATOM      7  C   UNL     1      -2.984  -2.360   0.946  0.00  0.00    +0.021 A 
ATOM      8  C   UNL     1      -3.985  -2.776   1.808  0.00  0.00    +0.041 A 
ATOM      9  C   UNL     1      -4.315  -2.013   2.915  0.00  0.00    +0.021 A 
ATOM     10  C   UNL     1      -3.647  -0.833   3.166  0.00  0.00    +0.013 A 
ATOM     11  C   UNL     1      -2.637  -0.408   2.302  0.00  0.00    +0.019 A 
ATOM     12 CL   UNL     1      -4.830  -4.261   1.498  0.00  0.00    -0.084 Cl
ENDBRANCH   1  11
BRANCH   5  13
ATOM     13  C   UNL     1       0.133   0.467   1.111  0.00  0.00    +0.250 C 
BRANCH  13  14
ATOM     14  C   UNL     1      -0.231   0.826  -0.307  0.00  0.00    +0.375 C 
ATOM     15  O   UNL     1      -1.100   1.637  -0.520  0.00  0.00    -0.244 OA
ATOM     16  O   UNL     1       0.410   0.244  -1.332  0.00  0.00    -0.244 OA
ENDBRANCH  13  14
ENDBRANCH   5  13
BRANCH   4  17
ATOM     17  S   UNL     1       0.991   3.447   2.256  0.00  0.00    -0.077 S 
BRANCH  17  18
ATOM     18  C   UNL     1       0.611   4.886   3.286  0.00  0.00    +0.173 C 
BRANCH  18  19
ATOM     19  C   UNL     1       1.729   5.891   3.176  0.00  0.00    +0.227 C 
ATOM     20  O   UNL     1       2.687   5.657   2.471  0.00  0.00    -0.275 OA
ATOM     21  N   UNL     1       1.663   7.050   3.862  0.00  0.00    -0.285 N 
ATOM     22  H   UNL     1       0.936   7.204   4.485  0.00  0.00    +0.155 HD
BRANCH  21  23
ATOM     23  C   UNL     1       2.643   8.031   3.673  0.00  0.00    +0.034 A 
ATOM     24  C   UNL     1       3.021   8.848   4.730  0.00  0.00    +0.025 A 
ATOM     25  C   UNL     1       3.993   9.811   4.543  0.00  0.00    +0.034 A 
ATOM     26  C   UNL     1       4.580   9.970   3.301  0.00  0.00    +0.126 A 
ATOM     27  C   UNL     1       4.202   9.162   2.245  0.00  0.00    +0.034 A 
ATOM     28  C   UNL     1       3.235   8.193   2.428  0.00  0.00    +0.025 A 
BRANCH  26  29
ATOM     29  N   UNL     1       5.617  11.008   3.102  0.00  0.00    +0.056 N 
ATOM     30  O   UNL     1       6.135  11.149   2.009  0.00  0.00    -0.126 OA
ATOM     31  O   UNL     1       5.951  11.721   4.031  0.00  0.00    -0.126 OA
ENDBRANCH  26  29
ENDBRANCH  21  23
ENDBRANCH  18  19
ENDBRANCH  17  18
ENDBRANCH   4  17
TORSDOF 8
