REMARK  Name = ZINC47155156
REMARK  8 active torsions:
REMARK  status: ('A' for Active; 'I' for Inactive)
REMARK    1  A    between atoms: C_1  and  C_2
REMARK    2  A    between atoms: C_5  and  C_31
REMARK    3  A    between atoms: C_6  and  C_8
REMARK    4  A    between atoms: C_8  and  C_10
REMARK    5  A    between atoms: C_10  and  C_11
REMARK    6  A    between atoms: N_17  and  N_18
REMARK    7  A    between atoms: C_19  and  C_20
REMARK    8  A    between atoms: C_22  and  N_27
REMARK                            x       y       z     vdW  Elec       q    Type
REMARK                         _______ _______ _______ _____ _____    ______ ____
ROOT
ATOM      1  C   UNL     1       0.939  -2.769   4.938  0.00  0.00    +0.147 C 
ATOM      2  C   UNL     1       1.126  -1.974   6.223  0.00  0.00    +0.232 C 
ATOM      3  O   UNL     1       2.027  -1.181   6.393  0.00  0.00    -0.274 OA
ATOM      4  N   UNL     1       0.203  -2.240   7.137  0.00  0.00    -0.263 N 
ATOM      5  C   UNL     1      -0.795  -3.130   6.932  0.00  0.00    +0.183 C 
ATOM      6  N   UNL     1      -1.789  -3.469   7.808  0.00  0.00    -0.127 NA
ATOM      7  S   UNL     1      -0.565  -3.732   5.377  0.00  0.00    -0.075 S 
ATOM      8  H   UNL     1       0.246  -1.778   7.989  0.00  0.00    +0.157 HD
ENDROOT
BRANCH   6   9
ATOM      9  N   UNL     1      -2.678  -4.340   7.469  0.00  0.00    -0.155 NA
ATOM     10  C   UNL     1      -3.660  -4.676   8.335  0.00  0.00    +0.146 C 
BRANCH  10  11
ATOM     11  C   UNL     1      -4.621  -5.617   7.968  0.00  0.00    +0.044 A 
ATOM     12  C   UNL     1      -5.662  -5.975   8.864  0.00  0.00    +0.046 A 
ATOM     13  C   UNL     1      -6.589  -6.893   8.489  0.00  0.00    +0.127 A 
ATOM     14  C   UNL     1      -6.543  -7.498   7.233  0.00  0.00    +0.036 A 
ATOM     15  C   UNL     1      -5.555  -7.188   6.322  0.00  0.00    +0.054 A 
ATOM     16  C   UNL     1      -4.581  -6.252   6.644  0.00  0.00    +0.188 A 
ATOM     17  O   UNL     1      -3.611  -5.936   5.758  0.00  0.00    -0.287 OA
BRANCH  13  18
ATOM     18  N   UNL     1      -7.670  -7.260   9.431  0.00  0.00    +0.056 N 
ATOM     19  O   UNL     1      -7.725  -6.697  10.621  0.00  0.00    -0.126 OA
ATOM     20  O   UNL     1      -8.576  -8.149   9.081  0.00  0.00    -0.126 OA
ENDBRANCH  13  18
ENDBRANCH  10  11
ENDBRANCH   6   9
BRANCH   1  21
ATOM     21  C   UNL     1       0.679  -1.845   3.746  0.00  0.00    +0.103 C 
BRANCH  21  22
ATOM     22  C   UNL     1       0.524  -2.672   2.495  0.00  0.00    +0.165 C 
ATOM     23  O   UNL     1       0.612  -3.880   2.552  0.00  0.00    -0.292 OA
BRANCH  22  29
ATOM     24  C   UNL     1       0.057   1.497  -0.200  0.00  0.00    +0.044 C 
ATOM     25  C   UNL     1       0.039  -0.006  -0.099  0.00  0.00    -0.050 A 
ATOM     26  C   UNL     1      -0.222  -0.771  -1.223  0.00  0.00    +0.003 A 
ATOM     27  C   UNL     1      -0.240  -2.152  -1.140  0.00  0.00    +0.004 A 
ATOM     28  C   UNL     1       0.001  -2.778   0.065  0.00  0.00    -0.040 A 
ATOM     29  C   UNL     1       0.266  -2.012   1.205  0.00  0.00    +0.021 A 
ATOM     30  C   UNL     1       0.289  -0.617   1.112  0.00  0.00    +0.015 A 
ATOM     31  C   UNL     1      -0.020  -4.282   0.153  0.00  0.00    +0.044 C 
ENDBRANCH  22  29
ENDBRANCH  21  22
ENDBRANCH   1  21
TORSDOF 6
