REMARK  Name = ZINC09820719
REMARK  9 active torsions:
REMARK  status: ('A' for Active; 'I' for Inactive)
REMARK    1  A    between atoms: C_3  and  S_25
REMARK    2  A    between atoms: C_6  and  C_7
REMARK    3  A    between atoms: C_7  and  C_8
REMARK    4  A    between atoms: C_8  and  N_9
REMARK    5  A    between atoms: C_10  and  C_12
REMARK    6  A    between atoms: C_12  and  O_13
REMARK    7  A    between atoms: O_13  and  C_14
REMARK    8  A    between atoms: C_14  and  C_16
REMARK    9  A    between atoms: S_25  and  N_28
REMARK                            x       y       z     vdW  Elec       q    Type
REMARK                         _______ _______ _______ _____ _____    ______ ____
ROOT
ATOM      1  N   UNL     1      -4.700  -2.853   2.690  0.00  0.00    -0.312 N 
ATOM      2  C   UNL     1      -3.556  -2.164   2.506  0.00  0.00    +0.251 C 
ATOM      3  O   UNL     1      -2.914  -1.790   3.465  0.00  0.00    -0.272 OA
ATOM      4  H   UNL     1      -5.214  -3.152   1.924  0.00  0.00    +0.149 HD
ENDROOT
BRANCH   1   5
ATOM      5  C   UNL     1      -5.168  -3.148   4.046  0.00  0.00    +0.109 C 
BRANCH   5   6
ATOM      6  C   UNL     1      -6.479  -3.933   3.974  0.00  0.00    +0.054 C 
BRANCH   6  12
ATOM      7  C   UNL     1      -6.570  -5.405   5.996  0.00  0.00    +0.005 A 
ATOM      8  C   UNL     1      -7.008  -5.682   7.278  0.00  0.00    +0.029 A 
ATOM      9  C   UNL     1      -7.844  -4.794   7.929  0.00  0.00    +0.105 A 
ATOM     10  C   UNL     1      -8.238  -3.628   7.301  0.00  0.00    +0.029 A 
ATOM     11  C   UNL     1      -7.797  -3.349   6.021  0.00  0.00    +0.005 A 
ATOM     12  C   UNL     1      -6.961  -4.237   5.370  0.00  0.00    -0.046 A 
BRANCH   9  13
ATOM     13  S   UNL     1      -8.405  -5.148   9.562  0.00  0.00    +0.056 S 
ATOM     14  O   UNL     1      -7.457  -6.038  10.133  0.00  0.00    -0.153 OA
ATOM     15  O   UNL     1      -8.736  -3.901  10.157  0.00  0.00    -0.153 OA
BRANCH  13  16
ATOM     16  N   UNL     1      -9.822  -5.995   9.419  0.00  0.00    -0.204 NA
ATOM     17  H   UNL     1     -10.071  -6.641  10.098  0.00  0.00    +0.144 HD
ATOM     18  H   UNL     1     -10.402  -5.844   8.656  0.00  0.00    +0.144 HD
ENDBRANCH  13  16
ENDBRANCH   9  13
ENDBRANCH   6  12
ENDBRANCH   5   6
ENDBRANCH   1   5
BRANCH   2  19
ATOM     19  C   UNL     1      -3.075  -1.861   1.111  0.00  0.00    +0.328 C 
BRANCH  19  20
ATOM     20  O   UNL     1      -1.831  -1.116   1.180  0.00  0.00    -0.452 OA
BRANCH  20  21
ATOM     21  C   UNL     1      -1.264  -0.763   0.009  0.00  0.00    +0.343 C 
ATOM     22  O   UNL     1      -1.794  -1.070  -1.039  0.00  0.00    -0.245 OA
BRANCH  21  23
ATOM     23  C   UNL     1       0.002  -0.004   0.002  0.00  0.00    +0.097 A 
ATOM     24  C   UNL     1       1.226  -0.679  -0.013  0.00  0.00    +0.056 A 
ATOM     25  C   UNL     1       2.406   0.037  -0.021  0.00  0.00    +0.022 A 
ATOM     26  C   UNL     1       2.380   1.420  -0.013  0.00  0.00    +0.023 A 
ATOM     27  C   UNL     1       1.173   2.097   0.002  0.00  0.00    +0.060 A 
ATOM     28  C   UNL     1      -0.017   1.393   0.010  0.00  0.00    +0.075 A 
ATOM     29 CL   UNL     1      -1.530   2.243   0.021  0.00  0.00    -0.081 Cl
ATOM     30 CL   UNL     1       1.153   3.833   0.012  0.00  0.00    -0.082 Cl
ATOM     31 CL   UNL     1       1.262  -2.415  -0.024  0.00  0.00    -0.083 Cl
ENDBRANCH  21  23
ENDBRANCH  20  21
ENDBRANCH  19  20
ENDBRANCH   2  19
TORSDOF 9
