REMARK  Name = ZINC40170773
REMARK  14 active torsions:
REMARK  status: ('A' for Active; 'I' for Inactive)
REMARK    1  A    between atoms: C_1  and  C_2
REMARK    2  A    between atoms: C_2  and  O_3
REMARK    3  A    between atoms: O_3  and  C_4
REMARK    4  A    between atoms: C_4  and  C_6
REMARK    5  A    between atoms: C_7  and  C_37
REMARK    6  A    between atoms: C_9  and  N_14
REMARK    7  A    between atoms: C_10  and  C_11
REMARK    8  A    between atoms: C_15  and  C_17
REMARK    9  A    between atoms: C_17  and  C_19
REMARK   10  A    between atoms: C_17  and  S_20
REMARK   11  A    between atoms: S_20  and  C_21
REMARK   12  A    between atoms: C_27  and  C_36
REMARK   13  A    between atoms: C_29  and  C_35
REMARK   14  A    between atoms: C_32  and  C_34
REMARK                            x       y       z     vdW  Elec       q    Type
REMARK                         _______ _______ _______ _____ _____    ______ ____
ROOT
ATOM      1  N   UNL     1      -5.786  -3.253   0.320  0.00  0.00    -0.255 N 
ATOM      2  C   UNL     1      -6.926  -3.846  -0.086  0.00  0.00    +0.232 C 
ATOM      3  O   UNL     1      -7.096  -4.092  -1.261  0.00  0.00    -0.274 OA
ATOM      4  H   UNL     1      -5.650  -3.057   1.260  0.00  0.00    +0.158 HD
ENDROOT
BRANCH   1   8
ATOM      5  C   UNL     1      -2.920  -2.180  -1.628  0.00  0.00    +0.114 A 
ATOM      6  C   UNL     1      -3.773  -2.710  -2.545  0.00  0.00    +0.119 A 
ATOM      7  O   UNL     1      -4.877  -3.142  -1.923  0.00  0.00    -0.445 OA
ATOM      8  C   UNL     1      -4.811  -2.925  -0.603  0.00  0.00    +0.206 A 
ATOM      9  C   UNL     1      -3.599  -2.323  -0.320  0.00  0.00    +0.111 A 
ATOM     10  C   UNL     1      -3.516  -2.797  -4.027  0.00  0.00    +0.087 C 
BRANCH   9  11
ATOM     11  C   UNL     1      -3.096  -1.910   0.994  0.00  0.00    +0.247 C 
ATOM     12  O   UNL     1      -3.332  -0.791   1.412  0.00  0.00    -0.270 OA
ATOM     13  N   UNL     1      -2.374  -2.769   1.739  0.00  0.00    -0.325 N 
ATOM     14  H   UNL     1      -2.186  -3.661   1.407  0.00  0.00    +0.145 HD
ATOM     15  H   UNL     1      -2.041  -2.496   2.609  0.00  0.00    +0.145 HD
ENDBRANCH   9  11
BRANCH   5  16
ATOM     16  C   UNL     1      -1.595  -1.594  -1.882  0.00  0.00    +0.343 C 
ATOM     17  O   UNL     1      -0.604  -2.298  -1.859  0.00  0.00    -0.245 OA
BRANCH  16  18
ATOM     18  O   UNL     1      -1.479  -0.276  -2.139  0.00  0.00    -0.461 OA
BRANCH  18  20
ATOM     19  C   UNL     1      -0.230   1.729  -2.649  0.00  0.00    +0.048 C 
ATOM     20  C   UNL     1      -0.162   0.225  -2.377  0.00  0.00    +0.229 C 
ENDBRANCH  18  20
ENDBRANCH  16  18
ENDBRANCH   5  16
ENDBRANCH   1   8
BRANCH   2  21
ATOM     21  C   UNL     1      -7.989  -4.204   0.920  0.00  0.00    +0.137 C 
ATOM     22  C   UNL     1      -7.607  -5.508   1.624  0.00  0.00    +0.029 C 
BRANCH  21  23
ATOM     23  S   UNL     1      -9.578  -4.419   0.071  0.00  0.00    -0.073 S 
BRANCH  23  24
ATOM     24  C   UNL     1     -10.728  -4.683   1.380  0.00  0.00    +0.197 A 
ATOM     25  N   UNL     1     -10.408  -4.732   2.660  0.00  0.00    -0.122 NA
ATOM     26  N   UNL     1     -11.467  -4.821   3.374  0.00  0.00    -0.129 NA
ATOM     27  C   UNL     1     -12.527  -4.790   2.590  0.00  0.00    +0.162 A 
ATOM     28  N   UNL     1     -12.069  -4.899   1.288  0.00  0.00    -0.270 N 
ATOM     29  C   UNL     1     -12.967  -5.207   0.282  0.00  0.00    +0.061 A 
ATOM     30  C   UNL     1     -12.617  -5.845  -0.897  0.00  0.00    -0.026 A 
ATOM     31  C   UNL     1     -13.517  -5.917  -1.945  0.00  0.00    +0.008 A 
ATOM     32  C   UNL     1     -14.812  -5.452  -1.799  0.00  0.00    -0.050 A 
ATOM     33  C   UNL     1     -15.236  -4.983  -0.575  0.00  0.00    +0.013 A 
ATOM     34  C   UNL     1     -14.339  -4.935   0.494  0.00  0.00    +0.002 A 
ATOM     35  C   UNL     1     -14.808  -4.686   1.860  0.00  0.00    -0.038 A 
ATOM     36  C   UNL     1     -13.906  -4.666   2.866  0.00  0.00    +0.052 A 
ATOM     37  C   UNL     1     -16.267  -4.457   2.157  0.00  0.00    +0.044 C 
ATOM     38  C   UNL     1     -15.757  -5.458  -2.971  0.00  0.00    +0.044 C 
ATOM     39  C   UNL     1     -11.295  -6.552  -1.056  0.00  0.00    +0.046 C 
ENDBRANCH  23  24
ENDBRANCH  21  23
ENDBRANCH   2  21
TORSDOF 8
