REMARK  Name = ZINC01012027
REMARK  6 active torsions:
REMARK  status: ('A' for Active; 'I' for Inactive)
REMARK    1  A    between atoms: C_1  and  C_2
REMARK    2  A    between atoms: C_3  and  N_23
REMARK    3  A    between atoms: C_4  and  C_22
REMARK    4  A    between atoms: N_5  and  C_7
REMARK    5  A    between atoms: C_7  and  C_8
REMARK    6  A    between atoms: N_13  and  C_14
REMARK                            x       y       z     vdW  Elec       q    Type
REMARK                         _______ _______ _______ _____ _____    ______ ____
ROOT
ATOM      1  C   UNL     1       1.895   3.618   1.430  0.00  0.00    +0.125 A 
ATOM      2  N   UNL     1       2.955   3.601   2.212  0.00  0.00    -0.143 NA
ATOM      3  N   UNL     1       2.927   4.048   3.391  0.00  0.00    -0.126 NA
ATOM      4  C   UNL     1       1.825   4.565   3.917  0.00  0.00    +0.186 A 
ATOM      5  S   UNL     1       0.707   4.382   2.530  0.00  0.00    -0.034 S 
ATOM      6  N   UNL     1       1.603   5.099   5.179  0.00  0.00    -0.292 N 
ATOM      7  H   UNL     1       0.752   5.516   5.386  0.00  0.00    +0.154 HD
ENDROOT
BRANCH   6   8
ATOM      8  C   UNL     1       2.606   5.035   6.152  0.00  0.00    +0.034 A 
ATOM      9  C   UNL     1       2.631   5.962   7.186  0.00  0.00    +0.026 A 
ATOM     10  C   UNL     1       3.622   5.897   8.146  0.00  0.00    +0.041 A 
ATOM     11  C   UNL     1       4.591   4.910   8.078  0.00  0.00    +0.142 A 
ATOM     12  C   UNL     1       4.568   3.985   7.047  0.00  0.00    +0.078 A 
ATOM     13  C   UNL     1       3.574   4.042   6.087  0.00  0.00    +0.046 A 
ATOM     14 CL   UNL     1       5.783   2.748   6.964  0.00  0.00    -0.081 Cl
ATOM     15  F   UNL     1       5.559   4.849   9.018  0.00  0.00    -0.204 F 
ENDBRANCH   6   8
BRANCH   1  16
ATOM     16  C   UNL     1       1.730   3.138   0.011  0.00  0.00    +0.208 C 
BRANCH  16  21
ATOM     17  C   UNL     1      -1.179  -0.953   0.050  0.00  0.00    +0.070 C 
ATOM     18  C   UNL     1       0.022  -0.042   0.033  0.00  0.00    +0.090 A 
ATOM     19  C   UNL     1       1.360  -0.449   0.014  0.00  0.00    +0.169 A 
ATOM     20  C   UNL     1       2.133   0.662   0.003  0.00  0.00    +0.067 A 
ATOM     21  N   UNL     1       1.313   1.734   0.016  0.00  0.00    -0.260 N 
ATOM     22  N   UNL     1      -0.007   1.266   0.035  0.00  0.00    -0.174 NA
ATOM     23  C   UNL     1       3.639   0.696  -0.018  0.00  0.00    +0.068 C 
BRANCH  19  24
ATOM     24  N   UNL     1       1.845  -1.847   0.005  0.00  0.00    +0.060 N 
ATOM     25  O   UNL     1       2.029  -2.422  -1.053  0.00  0.00    -0.126 OA
ATOM     26  O   UNL     1       2.060  -2.424   1.056  0.00  0.00    -0.126 OA
ENDBRANCH  19  24
ENDBRANCH  16  21
ENDBRANCH   1  16
TORSDOF 4
