REMARK  Name = ZINC19924467
REMARK  10 active torsions:
REMARK  status: ('A' for Active; 'I' for Inactive)
REMARK    1  A    between atoms: C_1  and  C_2
REMARK    2  A    between atoms: C_2  and  C_3
REMARK    3  A    between atoms: C_2  and  C_4
REMARK    4  A    between atoms: C_4  and  C_5
REMARK    5  A    between atoms: C_5  and  N_6
REMARK    6  A    between atoms: N_14  and  C_30
REMARK    7  A    between atoms: N_18  and  N_19
REMARK    8  A    between atoms: C_20  and  C_21
REMARK    9  A    between atoms: C_20  and  C_22
REMARK   10  A    between atoms: C_23  and  C_24
REMARK                            x       y       z     vdW  Elec       q    Type
REMARK                         _______ _______ _______ _____ _____    ______ ____
ROOT
ATOM      1  N   UNL     1      -0.149   9.736   0.056  0.00  0.00    -0.305 N 
ATOM      2  C   UNL     1      -1.510  10.000   0.069  0.00  0.00    +0.153 A 
ATOM      3  C   UNL     1      -2.285  11.174   0.083  0.00  0.00    +0.280 A 
ATOM      4  O   UNL     1      -1.747  12.267   0.083  0.00  0.00    -0.265 OA
ATOM      5  N   UNL     1      -3.631  11.076   0.094  0.00  0.00    -0.273 N 
ATOM      6  H   UNL     1      -4.248  11.987   0.105  0.00  0.00    +0.173 HD
ATOM      7  C   UNL     1      -4.239   9.877   0.093  0.00  0.00    +0.331 A 
ATOM      8  O   UNL     1      -5.454   9.828   0.103  0.00  0.00    -0.246 OA
ATOM      9  N   UNL     1      -3.535   8.729   0.080  0.00  0.00    -0.280 N 
ATOM     10  C   UNL     1      -2.150   8.764   0.068  0.00  0.00    +0.170 A 
ATOM     11  N   UNL     1      -1.206   7.823   0.050  0.00  0.00    -0.195 NA
ATOM     12  C   UNL     1      -0.012   8.382   0.047  0.00  0.00    +0.218 A 
ATOM     13  N   UNL     1       1.185   7.703   0.032  0.00  0.00    -0.206 N 
ATOM     14  C   UNL     1      -4.235   7.442   0.079  0.00  0.00    +0.155 C 
ATOM     15  H   UNL     1       2.133   8.260   0.026  0.00  0.00    +0.177 HD
ENDROOT
BRANCH  13  16
ATOM     16  N   UNL     1       1.195   6.302   0.025  0.00  0.00    -0.185 NA
ATOM     17  C   UNL     1       2.328   5.659   0.010  0.00  0.00    +0.056 C 
ATOM     18  C   UNL     1       3.628   6.423   0.002  0.00  0.00    +0.067 C 
BRANCH  17  19
ATOM     19  C   UNL     1       2.339   4.242   0.003  0.00  0.00    +0.025 C 
ATOM     20  C   UNL     1       1.176   3.558   0.010  0.00  0.00    +0.010 C 
BRANCH  20  21
ATOM     21  C   UNL     1       1.187   2.087   0.002  0.00  0.00    -0.025 A 
ATOM     22  C   UNL     1      -0.017   1.375   0.010  0.00  0.00    +0.008 A 
ATOM     23  C   UNL     1       0.002  -0.004   0.002  0.00  0.00    +0.001 A 
ATOM     24  C   UNL     1       1.208  -0.683  -0.013  0.00  0.00    +0.000 A 
ATOM     25  C   UNL     1       2.403   0.014  -0.021  0.00  0.00    +0.001 A 
ATOM     26  C   UNL     1       2.401   1.393  -0.013  0.00  0.00    +0.008 A 
ENDBRANCH  20  21
ENDBRANCH  17  19
ENDBRANCH  13  16
BRANCH   1  27
ATOM     27  C   UNL     1       0.933  10.723   0.051  0.00  0.00    +0.125 C 
BRANCH  27  28
ATOM     28  C   UNL     1       1.297  11.074  -1.393  0.00  0.00    +0.024 C 
BRANCH  28  30
ATOM     29  C   UNL     1       3.690  11.481  -0.804  0.00  0.00    +0.007 C 
ATOM     30  C   UNL     1       2.427  12.106  -1.399  0.00  0.00    -0.016 C 
ATOM     31  C   UNL     1       2.706  12.550  -2.836  0.00  0.00    +0.007 C 
ENDBRANCH  28  30
ENDBRANCH  27  28
ENDBRANCH   1  27
TORSDOF 6
