REMARK  Name = ZINC25151756
REMARK  14 active torsions:
REMARK  status: ('A' for Active; 'I' for Inactive)
REMARK    1  A    between atoms: C_1  and  C_2
REMARK    2  A    between atoms: N_5  and  C_11
REMARK    3  A    between atoms: C_7  and  C_10
REMARK    4  A    between atoms: C_11  and  C_12
REMARK    5  A    between atoms: C_12  and  C_13
REMARK    6  A    between atoms: C_13  and  N_14
REMARK    7  A    between atoms: N_14  and  C_15
REMARK    8  A    between atoms: C_18  and  S_24
REMARK    9  A    between atoms: C_20  and  N_21
REMARK   10  A    between atoms: S_24  and  N_27
REMARK   11  A    between atoms: N_27  and  C_28
REMARK   12  A    between atoms: C_28  and  C_29
REMARK   13  A    between atoms: C_28  and  C_30
REMARK   14  A    between atoms: C_28  and  C_31
REMARK                            x       y       z     vdW  Elec       q    Type
REMARK                         _______ _______ _______ _____ _____    ______ ____
ROOT
ATOM      1  C   UNL     1       1.489   2.371   1.563  0.00  0.00    +0.058 A 
ATOM      2  C   UNL     1       1.179   1.270   0.774  0.00  0.00    +0.027 A 
ATOM      3  C   UNL     1      -0.130   1.039   0.399  0.00  0.00    +0.030 A 
ATOM      4  C   UNL     1      -1.130   1.905   0.803  0.00  0.00    +0.108 A 
ATOM      5  C   UNL     1      -0.825   2.998   1.593  0.00  0.00    +0.063 A 
ATOM      6  C   UNL     1       0.482   3.235   1.971  0.00  0.00    +0.149 A 
ENDROOT
BRANCH   6   7
ATOM      7  N   UNL     1       0.808   4.409   2.812  0.00  0.00    +0.058 N 
ATOM      8  O   UNL     1       0.055   4.745   3.708  0.00  0.00    -0.126 OA
ATOM      9  O   UNL     1       1.831   5.038   2.608  0.00  0.00    -0.126 OA
ENDBRANCH   6   7
BRANCH   4  10
ATOM     10  S   UNL     1      -2.798   1.611   0.315  0.00  0.00    +0.059 S 
ATOM     11  O   UNL     1      -3.389   2.885   0.102  0.00  0.00    -0.153 OA
ATOM     12  O   UNL     1      -2.755   0.612  -0.695  0.00  0.00    -0.153 OA
BRANCH  10  13
ATOM     13  N   UNL     1      -3.576   0.939   1.613  0.00  0.00    -0.185 NA
ATOM     14  H   UNL     1      -4.485   1.419   2.002  0.00  0.00    +0.149 HD
BRANCH  13  15
ATOM     15  C   UNL     1      -3.186  -0.390   2.094  0.00  0.00    +0.032 C 
ATOM     16  C   UNL     1      -1.677  -0.420   2.343  0.00  0.00    +0.029 C 
ATOM     17  C   UNL     1      -3.925  -0.697   3.398  0.00  0.00    +0.029 C 
ATOM     18  C   UNL     1      -3.551  -1.439   1.042  0.00  0.00    +0.029 C 
ENDBRANCH  13  15
ENDBRANCH  10  13
ENDBRANCH   4  10
BRANCH   1  19
ATOM     19  N   UNL     1       2.812   2.607   1.944  0.00  0.00    -0.342 N 
ATOM     20  H   UNL     1       3.062   3.498   2.539  0.00  0.00    +0.146 HD
BRANCH  19  21
ATOM     21  C   UNL     1       3.866   1.669   1.552  0.00  0.00    +0.103 C 
BRANCH  21  22
ATOM     22  C   UNL     1       5.211   2.158   2.094  0.00  0.00    +0.034 C 
BRANCH  22  23
ATOM     23  C   UNL     1       6.313   1.177   1.685  0.00  0.00    +0.086 C 
BRANCH  23  27
ATOM     24  C   UNL     1      11.059   0.096   2.407  0.00  0.00    +0.039 C 
ATOM     25  C   UNL     1       9.954   1.126   2.646  0.00  0.00    +0.130 C 
ATOM     26  C   UNL     1       8.643   0.620   2.039  0.00  0.00    +0.115 C 
ATOM     27  N   UNL     1       7.604   1.647   2.204  0.00  0.00    -0.297 NA
ATOM     28  C   UNL     1       8.006   2.905   1.558  0.00  0.00    +0.115 C 
ATOM     29  C   UNL     1       9.324   3.388   2.170  0.00  0.00    +0.130 C 
ATOM     30  O   UNL     1      10.313   2.365   2.028  0.00  0.00    -0.371 OA
ATOM     31  C   UNL     1       9.116   3.695   3.655  0.00  0.00    +0.039 C 
ENDBRANCH  23  27
ENDBRANCH  22  23
ENDBRANCH  21  22
ENDBRANCH  19  21
ENDBRANCH   1  19
TORSDOF 9
