REMARK  Name = ZINC19352236
REMARK  13 active torsions:
REMARK  status: ('A' for Active; 'I' for Inactive)
REMARK    1  A    between atoms: C_1  and  C_2
REMARK    2  A    between atoms: C_7  and  C_36
REMARK    3  A    between atoms: C_10  and  C_12
REMARK    4  A    between atoms: C_12  and  O_13
REMARK    5  A    between atoms: O_13  and  C_14
REMARK    6  A    between atoms: C_17  and  C_20
REMARK    7  A    between atoms: C_20  and  O_22
REMARK    8  A    between atoms: O_22  and  C_23
REMARK    9  A    between atoms: C_23  and  C_24
REMARK   10  A    between atoms: C_24  and  O_25
REMARK   11  A    between atoms: O_25  and  C_26
REMARK   12  A    between atoms: C_29  and  S_32
REMARK   13  A    between atoms: S_32  and  N_35
REMARK                            x       y       z     vdW  Elec       q    Type
REMARK                         _______ _______ _______ _____ _____    ______ ____
ROOT
ATOM      1  C   UNL     1       2.811   0.780  -5.433  0.00  0.00    +0.121 A 
ATOM      2  C   UNL     1       2.830  -0.534  -5.887  0.00  0.00    +0.046 A 
ATOM      3  C   UNL     1       3.252  -0.816  -7.167  0.00  0.00    +0.018 A 
ATOM      4  C   UNL     1       3.671   0.220  -8.007  0.00  0.00    +0.059 A 
ATOM      5  C   UNL     1       3.655   1.539  -7.545  0.00  0.00    +0.018 A 
ATOM      6  C   UNL     1       3.228   1.813  -6.265  0.00  0.00    +0.046 A 
ENDROOT
BRANCH   4   7
ATOM      7  C   UNL     1       4.128  -0.078  -9.377  0.00  0.00    +0.339 C 
ATOM      8  O   UNL     1       4.491   0.824 -10.106  0.00  0.00    -0.245 OA
BRANCH   7   9
ATOM      9  O   UNL     1       4.142  -1.350  -9.821  0.00  0.00    -0.458 OA
BRANCH   9  10
ATOM     10  C   UNL     1       4.603  -1.569 -11.180  0.00  0.00    +0.273 C 
BRANCH  10  11
ATOM     11  C   UNL     1       4.549  -3.064 -11.502  0.00  0.00    +0.270 C 
BRANCH  11  12
ATOM     12  O   UNL     1       3.190  -3.505 -11.489  0.00  0.00    -0.489 OA
BRANCH  12  13
ATOM     13  C   UNL     1       2.964  -4.818 -11.758  0.00  0.00    +0.121 A 
ATOM     14  C   UNL     1       4.029  -5.663 -12.035  0.00  0.00    +0.047 A 
ATOM     15  C   UNL     1       3.798  -6.999 -12.302  0.00  0.00    +0.032 A 
ATOM     16  C   UNL     1       2.506  -7.491 -12.305  0.00  0.00    +0.105 A 
ATOM     17  C   UNL     1       1.442  -6.649 -12.036  0.00  0.00    +0.032 A 
ATOM     18  C   UNL     1       1.669  -5.314 -11.762  0.00  0.00    +0.047 A 
BRANCH  16  19
ATOM     19  S   UNL     1       2.213  -9.193 -12.654  0.00  0.00    +0.056 S 
ATOM     20  O   UNL     1       3.414  -9.884 -12.336  0.00  0.00    -0.153 OA
ATOM     21  O   UNL     1       0.965  -9.521 -12.059  0.00  0.00    -0.153 OA
BRANCH  19  22
ATOM     22  N   UNL     1       2.008  -9.329 -14.291  0.00  0.00    -0.204 NA
ATOM     23  H   UNL     1       1.822 -10.382 -14.551  0.00  0.00    +0.144 HD
ATOM     24  H   UNL     1       2.916  -8.979 -14.805  0.00  0.00    +0.144 HD
ENDBRANCH  19  22
ENDBRANCH  16  19
ENDBRANCH  12  13
ENDBRANCH  11  12
ENDBRANCH  10  11
ENDBRANCH   9  10
ENDBRANCH   7   9
ENDBRANCH   4   7
BRANCH   1  25
ATOM     25  O   UNL     1       2.391   1.055  -4.173  0.00  0.00    -0.483 OA
BRANCH  25  26
ATOM     26  C   UNL     1       1.977  -0.054  -3.371  0.00  0.00    +0.324 C 
BRANCH  26  34
ATOM     27  C   UNL     1       0.348   1.675   0.051  0.00  0.00    +0.028 C 
ATOM     28  C   UNL     1       0.098   0.170  -0.059  0.00  0.00    +0.073 C 
ATOM     29  C   UNL     1       0.548  -0.520   1.232  0.00  0.00    +0.022 C 
ATOM     30  C   UNL     1       0.425  -2.037   1.065  0.00  0.00    +0.004 C 
ATOM     31  C   UNL     1       1.337  -2.501  -0.073  0.00  0.00    +0.022 C 
ATOM     32  C   UNL     1       0.897  -1.833  -1.380  0.00  0.00    +0.073 C 
ATOM     33  N   UNL     1       0.872  -0.377  -1.182  0.00  0.00    -0.293 N 
ATOM     34  C   UNL     1       1.547   0.441  -2.014  0.00  0.00    +0.254 C 
ATOM     35  O   UNL     1       1.807   1.574  -1.671  0.00  0.00    -0.272 OA
ATOM     36  C   UNL     1       1.886  -2.182  -2.493  0.00  0.00    +0.028 C 
ENDBRANCH  26  34
ENDBRANCH  25  26
ENDBRANCH   1  25
TORSDOF 11
