REMARK  Name = ZINC04647282
REMARK  6 active torsions:
REMARK  status: ('A' for Active; 'I' for Inactive)
REMARK    1  A    between atoms: C_1  and  C_2
REMARK    2  A    between atoms: N_4  and  C_5
REMARK    3  A    between atoms: C_8  and  S_11
REMARK    4  A    between atoms: S_11  and  N_14
REMARK    5  A    between atoms: C_20  and  C_32
REMARK    6  A    between atoms: C_23  and  C_25
REMARK                            x       y       z     vdW  Elec       q    Type
REMARK                         _______ _______ _______ _____ _____    ______ ____
ROOT
ATOM      1  N   UNL     1      -3.005   1.782   3.663  0.00  0.00    -0.182 N 
ATOM      2  C   UNL     1      -1.786   1.879   2.990  0.00  0.00    +0.255 A 
ATOM      3  N   UNL     1      -0.795   2.730   3.292  0.00  0.00    -0.179 NA
ATOM      4  C   UNL     1       0.199   2.552   2.464  0.00  0.00    +0.220 A 
ATOM      5  N   UNL     1      -0.146   1.570   1.595  0.00  0.00    -0.220 N 
ATOM      6  N   UNL     1      -1.426   1.150   1.956  0.00  0.00    -0.130 NA
ATOM      7  C   UNL     1       0.718   1.104   0.514  0.00  0.00    +0.165 C 
ATOM      8  C   UNL     1       2.107   1.649   0.703  0.00  0.00    +0.028 C 
ATOM      9  C   UNL     1       2.402   2.607   1.570  0.00  0.00    +0.039 C 
ATOM     10  N   UNL     1       1.429   3.189   2.392  0.00  0.00    -0.283 N 
ATOM     11  H   UNL     1      -3.746   1.305   3.259  0.00  0.00    +0.177 HD
ATOM     12  H   UNL     1       1.607   4.003   2.890  0.00  0.00    +0.155 HD
ENDROOT
BRANCH   9  13
ATOM     13  C   UNL     1       3.803   3.078   1.671  0.00  0.00    -0.004 A 
ATOM     14  C   UNL     1       4.792   2.511   0.868  0.00  0.00    +0.011 A 
ATOM     15  C   UNL     1       6.094   2.957   0.962  0.00  0.00    +0.020 A 
ATOM     16  C   UNL     1       6.422   3.958   1.861  0.00  0.00    +0.041 A 
ATOM     17  C   UNL     1       5.445   4.520   2.666  0.00  0.00    +0.020 A 
ATOM     18  C   UNL     1       4.139   4.085   2.575  0.00  0.00    +0.011 A 
ATOM     19 CL   UNL     1       8.063   4.510   1.979  0.00  0.00    -0.084 Cl
ENDBRANCH   9  13
BRANCH   7  20
ATOM     20  C   UNL     1       0.168   1.580  -0.806  0.00  0.00    -0.019 A 
ATOM     21  C   UNL     1       0.026   2.934  -1.047  0.00  0.00    +0.009 A 
ATOM     22  C   UNL     1      -0.473   3.373  -2.259  0.00  0.00    +0.039 A 
ATOM     23  C   UNL     1      -0.841   2.455  -3.228  0.00  0.00    +0.123 A 
ATOM     24  C   UNL     1      -0.703   1.099  -2.984  0.00  0.00    +0.039 A 
ATOM     25  C   UNL     1      -0.199   0.663  -1.773  0.00  0.00    +0.009 A 
ATOM     26  F   UNL     1      -1.334   2.882  -4.411  0.00  0.00    -0.205 F 
ENDBRANCH   7  20
BRANCH   1  27
ATOM     27  S   UNL     1      -3.185   2.484   5.153  0.00  0.00    +0.075 S 
ATOM     28  O   UNL     1      -4.524   2.237   5.558  0.00  0.00    -0.150 OA
ATOM     29  O   UNL     1      -2.067   2.079   5.930  0.00  0.00    -0.150 OA
BRANCH  27  33
ATOM     30  C   UNL     1      -2.809   6.960   4.579  0.00  0.00    +0.033 A 
ATOM     31  C   UNL     1      -4.053   6.349   4.487  0.00  0.00    +0.025 A 
ATOM     32  C   UNL     1      -4.164   4.984   4.663  0.00  0.00    +0.030 A 
ATOM     33  C   UNL     1      -3.038   4.226   4.929  0.00  0.00    +0.109 A 
ATOM     34  C   UNL     1      -1.800   4.832   5.027  0.00  0.00    +0.030 A 
ATOM     35  C   UNL     1      -1.681   6.196   4.848  0.00  0.00    +0.025 A 
BRANCH  30  39
ATOM     36  C   UNL     1      -3.618  10.636   4.500  0.00  0.00    +0.109 C 
ATOM     37  C   UNL     1      -3.689   9.160   4.798  0.00  0.00    +0.214 C 
ATOM     38  O   UNL     1      -4.644   8.707   5.394  0.00  0.00    -0.276 OA
ATOM     39  N   UNL     1      -2.693   8.344   4.402  0.00  0.00    -0.286 N 
ATOM     40  H   UNL     1      -1.895   8.715   3.993  0.00  0.00    +0.155 HD
ENDBRANCH  30  39
ENDBRANCH  27  33
ENDBRANCH   1  27
TORSDOF 5
