REMARK  Name = ZINC21283801
REMARK  8 active torsions:
REMARK  status: ('A' for Active; 'I' for Inactive)
REMARK    1  A    between atoms: C_1  and  C_2
REMARK    2  A    between atoms: C_2  and  C_3
REMARK    3  A    between atoms: C_3  and  N_4
REMARK    4  A    between atoms: C_5  and  C_7
REMARK    5  A    between atoms: C_7  and  O_8
REMARK    6  A    between atoms: O_8  and  C_9
REMARK    7  A    between atoms: C_13  and  C_20
REMARK    8  A    between atoms: C_23  and  N_26
REMARK                            x       y       z     vdW  Elec       q    Type
REMARK                         _______ _______ _______ _____ _____    ______ ____
ROOT
ATOM      1  C   UNL     1      -0.017   1.381   0.010  0.00  0.00    +0.125 A 
ATOM      2  C   UNL     1       1.174   2.105   0.002  0.00  0.00    +0.046 A 
ATOM      3  C   UNL     1       2.376   1.457  -0.013  0.00  0.00    +0.016 A 
ATOM      4  C   UNL     1       2.412   0.060  -0.021  0.00  0.00    +0.026 A 
ATOM      5  C   UNL     1       3.693  -0.665  -0.036  0.00  0.00    -0.000 A 
ATOM      6  C   UNL     1       3.654  -2.046  -0.043  0.00  0.00    +0.101 A 
ATOM      7  C   UNL     1       2.412  -2.704  -0.035  0.00  0.00    +0.338 A 
ATOM      8  O   UNL     1       2.387  -3.922  -0.040  0.00  0.00    -0.245 OA
ATOM      9  O   UNL     1       1.253  -2.027  -0.020  0.00  0.00    -0.422 OA
ATOM     10  C   UNL     1       1.215  -0.677  -0.013  0.00  0.00    +0.143 A 
ATOM     11  C   UNL     1       0.002  -0.004   0.002  0.00  0.00    +0.092 A 
ENDROOT
BRANCH   5  12
ATOM     12  C   UNL     1       4.982   0.063  -0.044  0.00  0.00    -0.017 A 
ATOM     13  C   UNL     1       5.205   1.083  -0.969  0.00  0.00    +0.011 A 
ATOM     14  C   UNL     1       6.407   1.760  -0.969  0.00  0.00    +0.033 A 
ATOM     15  C   UNL     1       7.394   1.423  -0.060  0.00  0.00    +0.126 A 
ATOM     16  C   UNL     1       7.181   0.409   0.857  0.00  0.00    +0.033 A 
ATOM     17  C   UNL     1       5.982  -0.273   0.870  0.00  0.00    +0.011 A 
BRANCH  15  18
ATOM     18  N   UNL     1       8.683   2.150  -0.068  0.00  0.00    +0.056 N 
ATOM     19  O   UNL     1       9.554   1.855   0.731  0.00  0.00    -0.126 OA
ATOM     20  O   UNL     1       8.873   3.043  -0.874  0.00  0.00    -0.126 OA
ENDBRANCH  15  18
ENDBRANCH   5  12
BRANCH   1  21
ATOM     21  O   UNL     1      -1.204   2.038   0.019  0.00  0.00    -0.483 OA
BRANCH  21  22
ATOM     22  C   UNL     1      -1.155   3.466   0.026  0.00  0.00    +0.324 C 
BRANCH  22  24
ATOM     23  N   UNL     1      -2.759   5.350   0.044  0.00  0.00    -0.313 N 
ATOM     24  C   UNL     1      -2.558   4.017   0.036  0.00  0.00    +0.251 C 
ATOM     25  O   UNL     1      -3.506   3.261   0.036  0.00  0.00    -0.272 OA
ATOM     26  H   UNL     1      -1.899   6.036   0.044  0.00  0.00    +0.149 HD
BRANCH  23  27
ATOM     27  C   UNL     1      -4.123   5.885   0.053  0.00  0.00    +0.104 C 
BRANCH  27  29
ATOM     28  C   UNL     1      -5.494   7.973   0.071  0.00  0.00    +0.005 C 
ATOM     29  C   UNL     1      -4.070   7.414   0.061  0.00  0.00    +0.015 C 
ENDBRANCH  27  29
ENDBRANCH  23  27
ENDBRANCH  22  24
ENDBRANCH  21  22
ENDBRANCH   1  21
TORSDOF 7
