REMARK  Name = ZINC47544152
REMARK  5 active torsions:
REMARK  status: ('A' for Active; 'I' for Inactive)
REMARK    1  A    between atoms: C_1  and  C_2
REMARK    2  A    between atoms: C_2  and  N_3
REMARK    3  A    between atoms: N_3  and  C_4
REMARK    4  A    between atoms: N_12  and  C_13
REMARK    5  A    between atoms: C_13  and  C_14
REMARK                            x       y       z     vdW  Elec       q    Type
REMARK                         _______ _______ _______ _____ _____    ______ ____
ROOT
ATOM      1  N   UNL     1       0.711  -0.489   1.189  0.00  0.00    -0.283 N 
ATOM      2  C   UNL     1       2.042  -0.696   1.142  0.00  0.00    +0.303 C 
ATOM      3  O   UNL     1       2.630  -1.099   2.127  0.00  0.00    -0.253 OA
ATOM      4  N   UNL     1       2.721  -0.456   0.003  0.00  0.00    -0.296 N 
ATOM      5  H   UNL     1       2.252  -0.134  -0.783  0.00  0.00    +0.150 HD
ENDROOT
BRANCH   1   6
ATOM      6  C   UNL     1      -0.028  -0.750   2.427  0.00  0.00    +0.078 C 
ATOM      7  C   UNL     1       0.524   0.136   3.546  0.00  0.00    +0.022 C 
ATOM      8  C   UNL     1      -0.247  -0.137   4.839  0.00  0.00    +0.002 C 
ATOM      9  C   UNL     1      -0.087  -1.608   5.228  0.00  0.00    +0.000 C 
ATOM     10  C   UNL     1      -0.639  -2.494   4.109  0.00  0.00    +0.002 C 
ATOM     11  C   UNL     1       0.132  -2.221   2.816  0.00  0.00    +0.022 C 
ENDBRANCH   1   6
BRANCH   1  13
ATOM     12  C   UNL     1      -0.019   1.526   0.010  0.00  0.00    +0.024 C 
ATOM     13  C   UNL     1       0.002  -0.004   0.002  0.00  0.00    +0.106 C 
ENDBRANCH   1  13
BRANCH   4  14
ATOM     14  C   UNL     1       4.168  -0.680  -0.049  0.00  0.00    +0.153 C 
BRANCH  14  15
ATOM     15  C   UNL     1       4.688  -0.334  -1.445  0.00  0.00    +0.228 C 
ATOM     16  C   UNL     1       6.183  -0.671  -1.539  0.00  0.00    +0.275 C 
ATOM     17  O   UNL     1       6.639  -0.322  -2.850  0.00  0.00    -0.485 OA
ATOM     18  C   UNL     1       6.261   0.895  -3.326  0.00  0.00    +0.162 A 
ATOM     19  C   UNL     1       6.941   1.447  -4.401  0.00  0.00    +0.049 A 
ATOM     20  C   UNL     1       6.566   2.682  -4.898  0.00  0.00    +0.004 A 
ATOM     21  C   UNL     1       5.512   3.369  -4.325  0.00  0.00    +0.004 A 
ATOM     22  C   UNL     1       4.831   2.825  -3.252  0.00  0.00    +0.049 A 
ATOM     23  C   UNL     1       5.204   1.588  -2.748  0.00  0.00    +0.163 A 
ATOM     24  O   UNL     1       4.528   1.069  -1.686  0.00  0.00    -0.480 OA
ENDBRANCH  14  15
ENDBRANCH   4  14
TORSDOF 4
