REMARK  Name = ZINC56230057
REMARK  9 active torsions:
REMARK  status: ('A' for Active; 'I' for Inactive)
REMARK    1  A    between atoms: C_1  and  C_2
REMARK    2  A    between atoms: C_5  and  C_9
REMARK    3  A    between atoms: C_11  and  C_14
REMARK    4  A    between atoms: C_14  and  C_16
REMARK    5  A    between atoms: C_14  and  S_17
REMARK    6  A    between atoms: S_17  and  C_18
REMARK    7  A    between atoms: C_18  and  C_19
REMARK    8  A    between atoms: N_25  and  C_26
REMARK    9  A    between atoms: N_25  and  C_27
REMARK                            x       y       z     vdW  Elec       q    Type
REMARK                         _______ _______ _______ _____ _____    ______ ____
ROOT
ATOM      1  C   UNL     1       0.105  -7.486   1.635  0.00  0.00    +0.132 C 
ATOM      2  C   UNL     1       1.507  -8.098   1.655  0.00  0.00    +0.029 C 
ENDROOT
BRANCH   1   5
ATOM      3  C   UNL     1       0.061  -4.258  -0.024  0.00  0.00    +0.202 A 
ATOM      4  N   UNL     1       0.071  -5.050   1.063  0.00  0.00    -0.190 NA
ATOM      5  C   UNL     1       0.088  -6.301   0.703  0.00  0.00    +0.240 A 
ATOM      6  O   UNL     1       0.089  -6.358  -0.635  0.00  0.00    -0.337 OA
ATOM      7  N   UNL     1       0.065  -5.015  -1.093  0.00  0.00    -0.056 NA
BRANCH   3  12
ATOM      8  C   UNL     1      -0.018   1.503   0.010  0.00  0.00    +0.047 C 
ATOM      9  C   UNL     1       0.002  -0.004   0.002  0.00  0.00    -0.015 A 
ATOM     10  C   UNL     1       0.006  -0.687  -1.201  0.00  0.00    +0.007 A 
ATOM     11  C   UNL     1       0.025  -2.067  -1.215  0.00  0.00    +0.012 A 
ATOM     12  C   UNL     1       0.041  -2.774  -0.014  0.00  0.00    +0.025 A 
ATOM     13  C   UNL     1       0.037  -2.083   1.196  0.00  0.00    +0.050 A 
ATOM     14  C   UNL     1       0.023  -0.701   1.199  0.00  0.00    +0.127 A 
ATOM     15  F   UNL     1       0.025  -0.029   2.371  0.00  0.00    -0.205 F 
ENDBRANCH   3  12
ENDBRANCH   1   5
BRANCH   1  16
ATOM     16  S   UNL     1      -1.087  -8.725   1.059  0.00  0.00    -0.140 S 
BRANCH  16  17
ATOM     17  C   UNL     1      -1.057  -9.997   2.352  0.00  0.00    +0.146 C 
BRANCH  17  18
ATOM     18  C   UNL     1      -2.017 -11.102   1.992  0.00  0.00    +0.146 A 
ATOM     19  N   UNL     1      -3.276 -11.035   2.389  0.00  0.00    -0.199 NA
ATOM     20  C   UNL     1      -4.128 -12.008   2.073  0.00  0.00    +0.217 A 
ATOM     21  N   UNL     1      -3.710 -13.048   1.358  0.00  0.00    -0.181 NA
ATOM     22  C   UNL     1      -2.444 -13.111   0.962  0.00  0.00    +0.222 A 
ATOM     23  N   UNL     1      -1.599 -12.132   1.277  0.00  0.00    -0.198 NA
ATOM     24  N   UNL     1      -2.005 -14.189   0.220  0.00  0.00    -0.306 N 
ATOM     25  C   UNL     1      -2.937 -15.264  -0.131  0.00  0.00    +0.132 C 
ATOM     26  C   UNL     1      -0.609 -14.258  -0.217  0.00  0.00    +0.132 C 
ATOM     27  N   UNL     1      -5.442 -11.938   2.488  0.00  0.00    -0.327 N 
ATOM     28  H   UNL     1      -5.746 -11.179   3.010  0.00  0.00    +0.145 HD
ATOM     29  H   UNL     1      -6.062 -12.648   2.257  0.00  0.00    +0.145 HD
ENDBRANCH  17  18
ENDBRANCH  16  17
ENDBRANCH   1  16
TORSDOF 5
