REMARK  Name = ZINC32704083
REMARK  8 active torsions:
REMARK  status: ('A' for Active; 'I' for Inactive)
REMARK    1  A    between atoms: C_1  and  C_2
REMARK    2  A    between atoms: C_2  and  C_3
REMARK    3  A    between atoms: C_2  and  C_4
REMARK    4  A    between atoms: C_2  and  C_5
REMARK    5  A    between atoms: C_12  and  C_14
REMARK    6  A    between atoms: C_12  and  N_18
REMARK    7  A    between atoms: C_19  and  O_21
REMARK    8  A    between atoms: O_21  and  C_22
REMARK                            x       y       z     vdW  Elec       q    Type
REMARK                         _______ _______ _______ _____ _____    ______ ____
ROOT
ATOM      1  C   UNL     1      -5.001  -0.775  -1.378  0.00  0.00    -0.038 A 
ATOM      2  C   UNL     1      -4.581  -1.901  -0.695  0.00  0.00    +0.008 A 
ATOM      3  C   UNL     1      -4.278  -1.823   0.651  0.00  0.00    +0.050 A 
ATOM      4  C   UNL     1      -4.395  -0.616   1.320  0.00  0.00    +0.169 A 
ATOM      5  C   UNL     1      -4.819   0.519   0.632  0.00  0.00    +0.169 A 
ATOM      6  C   UNL     1      -5.121   0.433  -0.717  0.00  0.00    +0.053 A 
ATOM      7  O   UNL     1      -4.854   1.573   1.504  0.00  0.00    -0.426 OA
ATOM      8  C   UNL     1      -4.056   1.161   2.630  0.00  0.00    +0.437 C 
ATOM      9  O   UNL     1      -4.163  -0.275   2.622  0.00  0.00    -0.426 OA
ENDROOT
BRANCH   1  11
ATOM     10  C   UNL     1      -4.418   0.079  -3.632  0.00  0.00    +0.015 C 
ATOM     11  C   UNL     1      -5.330  -0.865  -2.846  0.00  0.00    -0.013 C 
ATOM     12  C   UNL     1      -5.116  -2.301  -3.329  0.00  0.00    +0.015 C 
ATOM     13  C   UNL     1      -6.790  -0.464  -3.067  0.00  0.00    +0.015 C 
ENDBRANCH   1  11
BRANCH   8  14
ATOM     14  C   UNL     1      -4.624   1.734   3.930  0.00  0.00    +0.491 C 
ATOM     15  F   UNL     1      -4.567   3.131   3.888  0.00  0.00    -0.162 F 
ATOM     16  F   UNL     1      -5.955   1.326   4.077  0.00  0.00    -0.162 F 
ATOM     17  F   UNL     1      -3.871   1.269   5.013  0.00  0.00    -0.162 F 
ENDBRANCH   8  14
BRANCH   8  18
ATOM     18  N   UNL     1      -2.662   1.574   2.453  0.00  0.00    -0.201 N 
ATOM     19  C   UNL     1      -1.974   1.174   1.366  0.00  0.00    +0.406 C 
ATOM     20  O   UNL     1      -2.509   0.470   0.532  0.00  0.00    -0.226 OA
ATOM     21  H   UNL     1      -2.177   2.211   3.207  0.00  0.00    +0.160 HD
BRANCH  19  22
ATOM     22  O   UNL     1      -0.692   1.554   1.203  0.00  0.00    -0.454 OA
ATOM     23  C   UNL     1      -0.013   1.086   0.008  0.00  0.00    +0.282 C 
ENDBRANCH  19  22
ENDBRANCH   8  18
TORSDOF 4
