REMARK  Name = ZINC12006386
REMARK  9 active torsions:
REMARK  status: ('A' for Active; 'I' for Inactive)
REMARK    1  A    between atoms: C_1  and  C_2
REMARK    2  A    between atoms: C_11  and  N_20
REMARK    3  A    between atoms: C_13  and  C_15
REMARK    4  A    between atoms: C_21  and  C_23
REMARK    5  A    between atoms: C_23  and  O_24
REMARK    6  A    between atoms: O_24  and  C_25
REMARK    7  A    between atoms: C_28  and  C_31
REMARK    8  A    between atoms: C_31  and  C_32
REMARK    9  A    between atoms: C_31  and  C_33
REMARK                            x       y       z     vdW  Elec       q    Type
REMARK                         _______ _______ _______ _____ _____    ______ ____
ROOT
ATOM      1  C   UNL     1      -5.148   4.939   0.078  0.00  0.00    +0.066 C 
ATOM      2  C   UNL     1      -3.657   5.159   0.065  0.00  0.00    +0.047 A 
ATOM      3  C   UNL     1      -3.156   6.428   0.068  0.00  0.00    +0.093 A 
ATOM      4  C   UNL     1      -1.760   6.607   0.056  0.00  0.00    +0.253 A 
ATOM      5  O   UNL     1      -1.276   7.727   0.058  0.00  0.00    -0.268 OA
ATOM      6  N   UNL     1      -0.967   5.514   0.047  0.00  0.00    -0.291 N 
ATOM      7  H   UNL     1      -0.002   5.613   0.042  0.00  0.00    +0.172 HD
ATOM      8  C   UNL     1      -1.525   4.274   0.040  0.00  0.00    +0.234 A 
ATOM      9  N   UNL     1      -2.831   4.115   0.051  0.00  0.00    -0.217 NA
ATOM     10  N   UNL     1      -0.706   3.162   0.026  0.00  0.00    -0.184 N 
ATOM     11  C   UNL     1      -1.120   1.860   0.017  0.00  0.00    +0.132 A 
ATOM     12  C   UNL     1      -0.013   1.076   0.008  0.00  0.00    +0.077 A 
ATOM     13  C   UNL     1       1.116   1.923   0.002  0.00  0.00    +0.130 A 
ATOM     14  N   UNL     1       0.695   3.171   0.013  0.00  0.00    -0.159 NA
ENDROOT
BRANCH  13  15
ATOM     15  C   UNL     1       2.528   1.485  -0.013  0.00  0.00    +0.155 A 
ATOM     16  C   UNL     1       3.616   2.300  -0.025  0.00  0.00    +0.051 A 
ATOM     17  C   UNL     1       4.750   1.463  -0.034  0.00  0.00    +0.042 A 
ATOM     18  C   UNL     1       4.303   0.192  -0.036  0.00  0.00    +0.196 A 
ATOM     19  O   UNL     1       2.960   0.209  -0.024  0.00  0.00    -0.461 OA
ENDBRANCH  13  15
BRANCH  11  20
ATOM     20  N   UNL     1      -2.441   1.417   0.020  0.00  0.00    -0.267 N 
ATOM     21  C   UNL     1      -2.709   0.097   0.014  0.00  0.00    +0.256 C 
ATOM     22  O   UNL     1      -1.800  -0.707   0.007  0.00  0.00    -0.272 OA
ATOM     23  H   UNL     1      -3.167   2.060   0.026  0.00  0.00    +0.156 HD
BRANCH  21  24
ATOM     24  C   UNL     1      -4.138  -0.382   0.018  0.00  0.00    +0.324 C 
BRANCH  24  25
ATOM     25  O   UNL     1      -4.161  -1.811   0.011  0.00  0.00    -0.483 OA
BRANCH  25  26
ATOM     26  C   UNL     1      -5.382  -2.408   0.012  0.00  0.00    +0.121 A 
ATOM     27  C   UNL     1      -6.534  -1.635   0.027  0.00  0.00    +0.046 A 
ATOM     28  C   UNL     1      -7.773  -2.244   0.022  0.00  0.00    +0.007 A 
ATOM     29  C   UNL     1      -7.867  -3.623   0.016  0.00  0.00    -0.045 A 
ATOM     30  C   UNL     1      -6.721  -4.396   0.008  0.00  0.00    +0.007 A 
ATOM     31  C   UNL     1      -5.479  -3.792   0.006  0.00  0.00    +0.046 A 
BRANCH  29  32
ATOM     32  C   UNL     1      -9.221  -4.285   0.018  0.00  0.00    +0.013 C 
ATOM     33  C   UNL     1      -9.991  -3.868   1.273  0.00  0.00    +0.012 C 
ATOM     34  C   UNL     1     -10.001  -3.855  -1.226  0.00  0.00    +0.012 C 
ENDBRANCH  29  32
ENDBRANCH  25  26
ENDBRANCH  24  25
ENDBRANCH  21  24
ENDBRANCH  11  20
TORSDOF 6
