REMARK  Name = ZINC21323090
REMARK  8 active torsions:
REMARK  status: ('A' for Active; 'I' for Inactive)
REMARK    1  A    between atoms: C_1  and  C_2
REMARK    2  A    between atoms: C_2  and  C_24
REMARK    3  A    between atoms: N_3  and  N_4
REMARK    4  A    between atoms: C_8  and  S_11
REMARK    5  A    between atoms: N_9  and  N_10
REMARK    6  A    between atoms: S_11  and  C_12
REMARK    7  A    between atoms: C_12  and  C_13
REMARK    8  A    between atoms: N_15  and  C_16
REMARK                            x       y       z     vdW  Elec       q    Type
REMARK                         _______ _______ _______ _____ _____    ______ ____
ROOT
ATOM      1  N   UNL     1       4.935   1.635  -4.641  0.00  0.00    -0.204 N 
ATOM      2  C   UNL     1       4.112   1.472  -3.537  0.00  0.00    +0.254 A 
ATOM      3  N   UNL     1       3.599   0.340  -3.119  0.00  0.00    -0.109 NA
ATOM      4  N   UNL     1       2.835   0.607  -1.975  0.00  0.00    -0.119 NA
ATOM      5  C   UNL     1       2.899   1.896  -1.737  0.00  0.00    +0.210 A 
ATOM      6  N   UNL     1       3.692   2.463  -2.694  0.00  0.00    -0.211 N 
ATOM      7  H   UNL     1       5.311   2.635  -4.904  0.00  0.00    +0.178 HD
ENDROOT
BRANCH   1  10
ATOM      8  C   UNL     1       6.574   2.050  -6.816  0.00  0.00    +0.068 C 
ATOM      9  C   UNL     1       6.059   0.680  -6.456  0.00  0.00    +0.063 C 
ATOM     10  N   UNL     1       5.288   0.527  -5.422  0.00  0.00    -0.184 NA
BRANCH   9  11
ATOM     11  C   UNL     1       6.431  -0.486  -7.277  0.00  0.00    -0.002 A 
ATOM     12  C   UNL     1       7.255  -0.324  -8.394  0.00  0.00    +0.011 A 
ATOM     13  C   UNL     1       7.603  -1.420  -9.155  0.00  0.00    +0.016 A 
ATOM     14  C   UNL     1       7.129  -2.677  -8.822  0.00  0.00    +0.018 A 
ATOM     15  C   UNL     1       6.307  -2.844  -7.720  0.00  0.00    +0.016 A 
ATOM     16  C   UNL     1       5.956  -1.758  -6.947  0.00  0.00    +0.011 A 
ATOM     17 BR   UNL     1       7.605  -4.173  -9.875  0.00  0.00    -0.050 Br
ENDBRANCH   9  11
ENDBRANCH   1  10
BRANCH   6  18
ATOM     18  N   UNL     1       4.010   3.788  -2.791  0.00  0.00    -0.294 N 
ATOM     19  H   UNL     1       3.615   4.504  -2.054  0.00  0.00    +0.163 HD
ATOM     20  H   UNL     1       4.661   4.139  -3.605  0.00  0.00    +0.163 HD
ENDBRANCH   6  18
BRANCH   5  21
ATOM     21  S   UNL     1       2.106   2.744  -0.412  0.00  0.00    -0.075 S 
BRANCH  21  22
ATOM     22  C   UNL     1       1.220   1.436   0.480  0.00  0.00    +0.173 C 
BRANCH  22  23
ATOM     23  C   UNL     1       0.489   2.035   1.654  0.00  0.00    +0.228 C 
ATOM     24  O   UNL     1       0.559   3.227   1.868  0.00  0.00    -0.275 OA
ATOM     25  N   UNL     1      -0.242   1.246   2.466  0.00  0.00    -0.280 N 
ATOM     26  H   UNL     1      -0.373   0.181   2.225  0.00  0.00    +0.155 HD
BRANCH  25  27
ATOM     27  C   UNL     1      -0.834   1.783   3.617  0.00  0.00    +0.105 A 
ATOM     28  C   UNL     1      -0.135   1.798   4.818  0.00  0.00    +0.147 A 
ATOM     29  C   UNL     1      -0.722   2.334   5.951  0.00  0.00    +0.040 A 
ATOM     30  C   UNL     1      -2.006   2.844   5.891  0.00  0.00    +0.006 A 
ATOM     31  C   UNL     1      -2.707   2.825   4.700  0.00  0.00    +0.040 A 
ATOM     32  C   UNL     1      -2.125   2.296   3.562  0.00  0.00    +0.147 A 
ATOM     33  F   UNL     1      -2.811   2.277   2.398  0.00  0.00    -0.203 F 
ATOM     34  F   UNL     1       1.117   1.296   4.878  0.00  0.00    -0.203 F 
ENDBRANCH  25  27
ENDBRANCH  22  23
ENDBRANCH  21  22
ENDBRANCH   5  21
TORSDOF 7
