REMARK  Name = ZINC13051086
REMARK  12 active torsions:
REMARK  status: ('A' for Active; 'I' for Inactive)
REMARK    1  A    between atoms: C_1  and  C_2
REMARK    2  A    between atoms: C_2  and  C_4
REMARK    3  A    between atoms: C_2  and  O_33
REMARK    4  A    between atoms: C_4  and  N_5
REMARK    5  A    between atoms: C_11  and  C_30
REMARK    6  A    between atoms: C_15  and  S_16
REMARK    7  A    between atoms: S_16  and  C_17
REMARK    8  A    between atoms: C_17  and  C_18
REMARK    9  A    between atoms: N_20  and  C_21
REMARK   10  A    between atoms: N_20  and  C_27
REMARK   11  A    between atoms: C_27  and  C_28
REMARK   12  A    between atoms: C_27  and  C_29
REMARK                            x       y       z     vdW  Elec       q    Type
REMARK                         _______ _______ _______ _____ _____    ______ ____
ROOT
ATOM      1  N   UNL     1       0.066  -3.376   0.501  0.00  0.00    -0.285 N 
ATOM      2  C   UNL     1      -0.721  -4.209   1.221  0.00  0.00    +0.262 A 
ATOM      3  O   UNL     1      -1.862  -3.904   1.513  0.00  0.00    -0.267 OA
ATOM      4  C   UNL     1      -0.145  -5.498   1.638  0.00  0.00    +0.065 A 
ATOM      5  C   UNL     1      -0.880  -6.421   2.381  0.00  0.00    +0.016 A 
ATOM      6  C   UNL     1      -0.310  -7.607   2.748  0.00  0.00    +0.016 A 
ATOM      7  C   UNL     1       1.009  -7.907   2.385  0.00  0.00    +0.065 A 
ATOM      8  C   UNL     1       1.760  -7.001   1.644  0.00  0.00    +0.043 A 
ATOM      9  C   UNL     1       1.187  -5.785   1.262  0.00  0.00    +0.080 A 
ATOM     10  N   UNL     1       1.879  -4.873   0.540  0.00  0.00    -0.223 NA
ATOM     11  C   UNL     1       1.343  -3.734   0.177  0.00  0.00    +0.173 A 
ENDROOT
BRANCH   7  12
ATOM     12  C   UNL     1       1.607  -9.196   2.792  0.00  0.00    +0.387 C 
ATOM     13  O   UNL     1       0.952  -9.996   3.443  0.00  0.00    -0.241 OA
ATOM     14  O   UNL     1       2.758  -9.462   2.477  0.00  0.00    -0.241 OA
ENDBRANCH   7  12
BRANCH   1  15
ATOM     15  C   UNL     1      -0.459  -2.080   0.062  0.00  0.00    +0.158 C 
BRANCH  15  17
ATOM     16  C   UNL     1      -1.670  -0.885  -1.768  0.00  0.00    +0.039 C 
ATOM     17  C   UNL     1      -1.122  -2.237  -1.308  0.00  0.00    +0.131 C 
BRANCH  17  18
ATOM     18  O   UNL     1      -0.158  -2.706  -2.253  0.00  0.00    -0.390 OA
ATOM     19  H   UNL     1       0.599  -2.116  -2.368  0.00  0.00    +0.210 HD
ENDBRANCH  17  18
ENDBRANCH  15  17
ENDBRANCH   1  15
BRANCH  11  20
ATOM     20  S   UNL     1       2.316  -2.611  -0.769  0.00  0.00    -0.078 S 
BRANCH  20  21
ATOM     21  C   UNL     1       3.904  -3.466  -0.968  0.00  0.00    +0.173 C 
BRANCH  21  22
ATOM     22  C   UNL     1       4.842  -2.601  -1.770  0.00  0.00    +0.230 C 
ATOM     23  O   UNL     1       4.477  -1.516  -2.168  0.00  0.00    -0.274 OA
ATOM     24  N   UNL     1       6.088  -3.035  -2.045  0.00  0.00    -0.268 N 
BRANCH  24  25
ATOM     25  C   UNL     1       6.926  -2.279  -2.873  0.00  0.00    +0.037 A 
ATOM     26  C   UNL     1       7.742  -1.297  -2.328  0.00  0.00    +0.023 A 
ATOM     27  C   UNL     1       8.566  -0.553  -3.148  0.00  0.00    +0.002 A 
ATOM     28  C   UNL     1       8.581  -0.785  -4.511  0.00  0.00    +0.000 A 
ATOM     29  C   UNL     1       7.769  -1.762  -5.057  0.00  0.00    +0.002 A 
ATOM     30  C   UNL     1       6.946  -2.514  -4.242  0.00  0.00    +0.023 A 
ENDBRANCH  24  25
BRANCH  24  31
ATOM     31  C   UNL     1       6.567  -4.298  -1.476  0.00  0.00    +0.075 C 
ATOM     32  C   UNL     1       7.025  -5.224  -2.605  0.00  0.00    +0.028 C 
ATOM     33  C   UNL     1       7.740  -4.021  -0.535  0.00  0.00    +0.028 C 
ENDBRANCH  24  31
ENDBRANCH  21  22
ENDBRANCH  20  21
ENDBRANCH  11  20
TORSDOF 9
