REMARK  Name = ZINC40024990
REMARK  8 active torsions:
REMARK  status: ('A' for Active; 'I' for Inactive)
REMARK    1  A    between atoms: C_1  and  C_2
REMARK    2  A    between atoms: C_2  and  C_26
REMARK    3  A    between atoms: N_5  and  C_9
REMARK    4  A    between atoms: C_9  and  C_10
REMARK    5  A    between atoms: C_10  and  C_11
REMARK    6  A    between atoms: N_13  and  C_14
REMARK    7  A    between atoms: C_19  and  C_20
REMARK    8  A    between atoms: C_29  and  N_32
REMARK                            x       y       z     vdW  Elec       q    Type
REMARK                         _______ _______ _______ _____ _____    ______ ____
ROOT
ATOM      1  C   UNL     1       0.015   1.513   0.041  0.00  0.00    +0.047 C 
ATOM      2  C   UNL     1       0.030  -0.017   0.033  0.00  0.00    +0.135 C 
ATOM      3  C   UNL     1      -1.377  -0.566   0.160  0.00  0.00    +0.251 C 
ATOM      4  O   UNL     1      -2.301  -0.397  -0.608  0.00  0.00    -0.272 OA
ATOM      5  N   UNL     1      -1.388  -1.280   1.302  0.00  0.00    -0.224 N 
ATOM      6  C   UNL     1      -0.196  -1.260   1.908  0.00  0.00    +0.310 C 
ATOM      7  O   UNL     1       0.041  -1.833   2.954  0.00  0.00    -0.252 OA
ATOM      8  N   UNL     1       0.713  -0.535   1.231  0.00  0.00    -0.281 N 
ATOM      9  H   UNL     1       1.638  -0.383   1.482  0.00  0.00    +0.152 HD
ENDROOT
BRANCH   2  10
ATOM     10  C   UNL     1       0.693  -0.532  -1.219  0.00  0.00    -0.015 A 
ATOM     11  C   UNL     1      -0.064  -0.784  -2.348  0.00  0.00    +0.008 A 
ATOM     12  C   UNL     1       0.543  -1.256  -3.496  0.00  0.00    +0.033 A 
ATOM     13  C   UNL     1       1.908  -1.476  -3.516  0.00  0.00    +0.126 A 
ATOM     14  C   UNL     1       2.665  -1.223  -2.388  0.00  0.00    +0.033 A 
ATOM     15  C   UNL     1       2.058  -0.746  -1.240  0.00  0.00    +0.008 A 
BRANCH  13  16
ATOM     16  N   UNL     1       2.558  -1.982  -4.745  0.00  0.00    +0.056 N 
ATOM     17  O   UNL     1       1.896  -2.204  -5.732  0.00  0.00    -0.126 OA
ATOM     18  O   UNL     1       3.752  -2.174  -4.763  0.00  0.00    -0.126 OA
ENDBRANCH  13  16
ENDBRANCH   2  10
BRANCH   5  19
ATOM     19  C   UNL     1      -2.561  -1.991   1.817  0.00  0.00    +0.127 C 
BRANCH  19  20
ATOM     20  C   UNL     1      -2.577  -3.417   1.262  0.00  0.00    +0.115 C 
BRANCH  20  21
ATOM     21  C   UNL     1      -3.783  -4.149   1.792  0.00  0.00    +0.219 C 
ATOM     22  O   UNL     1      -4.555  -3.585   2.539  0.00  0.00    -0.275 OA
ATOM     23  N   UNL     1      -4.005  -5.429   1.435  0.00  0.00    -0.285 N 
ATOM     24  H   UNL     1      -3.435  -5.855   0.776  0.00  0.00    +0.155 HD
BRANCH  23  25
ATOM     25  C   UNL     1      -5.058  -6.144   2.014  0.00  0.00    +0.041 A 
ATOM     26  C   UNL     1      -5.540  -5.782   3.264  0.00  0.00    +0.024 A 
ATOM     27  C   UNL     1      -6.580  -6.490   3.835  0.00  0.00    +0.002 A 
ATOM     28  C   UNL     1      -7.147  -7.561   3.166  0.00  0.00    +0.001 A 
ATOM     29  C   UNL     1      -6.678  -7.931   1.922  0.00  0.00    +0.010 A 
ATOM     30  C   UNL     1      -5.633  -7.222   1.334  0.00  0.00    +0.003 A 
BRANCH  30  31
ATOM     31  C   UNL     1      -5.129  -7.612  -0.005  0.00  0.00    -0.016 A 
ATOM     32  C   UNL     1      -4.971  -6.650  -1.001  0.00  0.00    +0.008 A 
ATOM     33  C   UNL     1      -4.502  -7.019  -2.245  0.00  0.00    +0.001 A 
ATOM     34  C   UNL     1      -4.188  -8.341  -2.505  0.00  0.00    +0.000 A 
ATOM     35  C   UNL     1      -4.343  -9.300  -1.520  0.00  0.00    +0.001 A 
ATOM     36  C   UNL     1      -4.806  -8.942  -0.271  0.00  0.00    +0.008 A 
ENDBRANCH  30  31
ENDBRANCH  23  25
ENDBRANCH  20  21
ENDBRANCH  19  20
ENDBRANCH   5  19
TORSDOF 7
