REMARK  Name = ZINC09254763
REMARK  12 active torsions:
REMARK  status: ('A' for Active; 'I' for Inactive)
REMARK    1  A    between atoms: C_1  and  C_2
REMARK    2  A    between atoms: C_3  and  C_31
REMARK    3  A    between atoms: C_4  and  C_30
REMARK    4  A    between atoms: C_7  and  C_8
REMARK    5  A    between atoms: C_8  and  C_10
REMARK    6  A    between atoms: C_10  and  C_12
REMARK    7  A    between atoms: C_10  and  O_13
REMARK    8  A    between atoms: O_13  and  C_14
REMARK    9  A    between atoms: C_14  and  C_16
REMARK   10  A    between atoms: C_19  and  C_21
REMARK   11  A    between atoms: C_26  and  N_27
REMARK   12  A    between atoms: C_31  and  C_33
REMARK                            x       y       z     vdW  Elec       q    Type
REMARK                         _______ _______ _______ _____ _____    ______ ____
ROOT
ATOM      1  O   UNL     1       2.480   7.167   2.769  0.00  0.00    -0.448 OA
ENDROOT
BRANCH   1   2
ATOM      2  C   UNL     1       3.247   8.268   3.258  0.00  0.00    +0.246 C 
ATOM      3  C   UNL     1       2.532   8.897   4.455  0.00  0.00    +0.061 C 
BRANCH   2   4
ATOM      4  C   UNL     1       4.609   7.783   3.684  0.00  0.00    +0.219 C 
ATOM      5  O   UNL     1       4.808   6.595   3.840  0.00  0.00    -0.287 OA
BRANCH   4  12
ATOM      6  C   UNL     1       7.491   7.028   4.565  0.00  0.00    +0.047 C 
ATOM      7  C   UNL     1       6.939   8.404   4.294  0.00  0.00    -0.012 A 
ATOM      8  C   UNL     1       7.641   9.627   4.390  0.00  0.00    +0.041 A 
ATOM      9  C   UNL     1       6.750  10.636   4.053  0.00  0.00    +0.024 A 
ATOM     10  N   UNL     1       5.566  10.081   3.758  0.00  0.00    -0.355 N 
ATOM     11  H   UNL     1       4.772  10.566   3.486  0.00  0.00    +0.166 HD
ATOM     12  C   UNL     1       5.655   8.711   3.904  0.00  0.00    +0.090 A 
ATOM     13  C   UNL     1       7.063  12.110   4.018  0.00  0.00    +0.064 C 
BRANCH   8  14
ATOM     14  C   UNL     1       9.046   9.798   4.774  0.00  0.00    +0.162 C 
ATOM     15  O   UNL     1       9.348   9.889   5.946  0.00  0.00    -0.292 OA
ATOM     16  C   UNL     1      10.114   9.861   3.713  0.00  0.00    +0.091 C 
ENDBRANCH   8  14
ENDBRANCH   4  12
ENDBRANCH   2   4
ENDBRANCH   1   2
BRANCH   1  17
ATOM     17  C   UNL     1       1.561   7.435   1.818  0.00  0.00    +0.376 C 
ATOM     18  O   UNL     1       1.415   8.573   1.416  0.00  0.00    -0.241 OA
BRANCH  17  19
ATOM     19  C   UNL     1       0.738   6.355   1.270  0.00  0.00    +0.212 A 
ATOM     20  C   UNL     1      -0.232   6.489   0.301  0.00  0.00    +0.057 A 
ATOM     21  C   UNL     1      -0.762   5.213   0.082  0.00  0.00    +0.051 A 
ATOM     22  C   UNL     1      -0.103   4.356   0.916  0.00  0.00    +0.138 A 
ATOM     23  O   UNL     1       0.794   5.055   1.631  0.00  0.00    -0.448 OA
BRANCH  22  24
ATOM     24  C   UNL     1      -0.341   2.902   1.019  0.00  0.00    +0.047 A 
ATOM     25  C   UNL     1      -1.640   2.414   1.180  0.00  0.00    +0.014 A 
ATOM     26  C   UNL     1      -1.855   1.055   1.275  0.00  0.00    +0.001 A 
ATOM     27  C   UNL     1      -0.788   0.176   1.211  0.00  0.00    +0.002 A 
ATOM     28  C   UNL     1       0.500   0.653   1.052  0.00  0.00    +0.033 A 
ATOM     29  C   UNL     1       0.731   2.010   0.957  0.00  0.00    +0.137 A 
BRANCH  29  30
ATOM     30  N   UNL     1       2.110   2.518   0.788  0.00  0.00    +0.057 N 
ATOM     31  O   UNL     1       3.044   1.738   0.733  0.00  0.00    -0.126 OA
ATOM     32  O   UNL     1       2.312   3.716   0.703  0.00  0.00    -0.126 OA
ENDBRANCH  29  30
ENDBRANCH  22  24
ENDBRANCH  17  19
ENDBRANCH   1  17
TORSDOF 8
