REMARK  Name = ZINC08899037
REMARK  8 active torsions:
REMARK  status: ('A' for Active; 'I' for Inactive)
REMARK    1  A    between atoms: C_1  and  N_2
REMARK    2  A    between atoms: C_3  and  C_24
REMARK    3  A    between atoms: C_6  and  S_7
REMARK    4  A    between atoms: S_7  and  C_8
REMARK    5  A    between atoms: C_8  and  C_9
REMARK    6  A    between atoms: N_11  and  C_12
REMARK    7  A    between atoms: C_13  and  C_21
REMARK    8  A    between atoms: C_24  and  C_25
REMARK                            x       y       z     vdW  Elec       q    Type
REMARK                         _______ _______ _______ _____ _____    ______ ____
ROOT
ATOM      1  C   UNL     1       0.233   5.726   0.030  0.00  0.00    +0.228 C 
ATOM      2  O   UNL     1       1.344   6.212   0.021  0.00  0.00    -0.275 OA
ATOM      3  N   UNL     1      -0.852   6.525   0.045  0.00  0.00    -0.279 N 
ATOM      4  H   UNL     1      -1.741   6.136   0.051  0.00  0.00    +0.155 HD
ENDROOT
BRANCH   3   5
ATOM      5  C   UNL     1      -0.698   7.903   0.050  0.00  0.00    +0.084 A 
ATOM      6  C   UNL     1      -1.683   8.880   0.059  0.00  0.00    +0.068 A 
ATOM      7  C   UNL     1      -1.252  10.268   0.067  0.00  0.00    -0.023 A 
ATOM      8  C   UNL     1       0.086  10.455   0.054  0.00  0.00    -0.004 A 
ATOM      9  S   UNL     1       0.771   8.822   0.040  0.00  0.00    -0.077 S 
ATOM     10  C   UNL     1       0.816  11.763   0.052  0.00  0.00    +0.043 C 
ATOM     11  C   UNL     1      -0.182  12.872  -0.311  0.00  0.00    +0.005 C 
ATOM     12  C   UNL     1      -1.445  12.698   0.537  0.00  0.00    +0.005 C 
ATOM     13  C   UNL     1      -2.209  11.453   0.083  0.00  0.00    +0.037 C 
BRANCH   6  14
ATOM     14  C   UNL     1      -3.106   8.527   0.065  0.00  0.00    +0.244 C 
ATOM     15  O   UNL     1      -3.691   8.376   1.121  0.00  0.00    -0.270 OA
ATOM     16  N   UNL     1      -3.765   8.368  -1.099  0.00  0.00    -0.325 N 
ATOM     17  H   UNL     1      -3.299   8.488  -1.941  0.00  0.00    +0.145 HD
ATOM     18  H   UNL     1      -4.707   8.134  -1.096  0.00  0.00    +0.145 HD
ENDBRANCH   6  14
ENDBRANCH   3   5
BRANCH   1  19
ATOM     19  C   UNL     1       0.066   4.228   0.024  0.00  0.00    +0.173 C 
BRANCH  19  20
ATOM     20  S   UNL     1       1.694   3.439   0.004  0.00  0.00    -0.077 S 
BRANCH  20  26
ATOM     21  C   UNL     1       3.512   0.676  -0.027  0.00  0.00    +0.152 C 
ATOM     22  N   UNL     1       2.047   0.663  -0.014  0.00  0.00    -0.309 N 
ATOM     23  C   UNL     1       1.232  -0.435  -0.012  0.00  0.00    +0.139 A 
ATOM     24  N   UNL     1       0.002  -0.004   0.002  0.00  0.00    -0.133 NA
ATOM     25  N   UNL     1      -0.015   1.281   0.009  0.00  0.00    -0.122 NA
ATOM     26  C   UNL     1       1.213   1.744  -0.000  0.00  0.00    +0.192 A 
BRANCH  23  27
ATOM     27  C   UNL     1       1.673  -1.875  -0.024  0.00  0.00    +0.118 C 
BRANCH  27  28
ATOM     28  C   UNL     1       1.806  -2.348  -1.449  0.00  0.00    -0.003 A 
ATOM     29  C   UNL     1       2.889  -2.307  -2.264  0.00  0.00    +0.011 A 
ATOM     30  C   UNL     1       2.779  -2.805  -3.549  0.00  0.00    +0.008 A 
ATOM     31  C   UNL     1       1.593  -3.319  -3.956  0.00  0.00    +0.045 A 
ATOM     32  S   UNL     1       0.582  -3.114  -2.499  0.00  0.00    -0.101 S 
ENDBRANCH  27  28
ENDBRANCH  23  27
ENDBRANCH  20  26
ENDBRANCH  19  20
ENDBRANCH   1  19
TORSDOF 7
