REMARK  Name = ZINC23639774
REMARK  10 active torsions:
REMARK  status: ('A' for Active; 'I' for Inactive)
REMARK    1  A    between atoms: C_2  and  C_3
REMARK    2  A    between atoms: C_3  and  N_4
REMARK    3  A    between atoms: C_5  and  C_25
REMARK    4  A    between atoms: C_8  and  S_9
REMARK    5  A    between atoms: S_9  and  C_10
REMARK    6  A    between atoms: C_10  and  C_11
REMARK    7  A    between atoms: N_13  and  C_14
REMARK    8  A    between atoms: C_14  and  C_15
REMARK    9  A    between atoms: C_18  and  S_21
REMARK   10  A    between atoms: S_21  and  N_24
REMARK                            x       y       z     vdW  Elec       q    Type
REMARK                         _______ _______ _______ _____ _____    ______ ____
ROOT
ATOM      1  C   UNL     1      -1.361   1.380  -3.764  0.00  0.00    +0.173 C 
ENDROOT
BRANCH   1   2
ATOM      2  C   UNL     1      -0.654   0.905  -2.521  0.00  0.00    +0.224 C 
ATOM      3  O   UNL     1       0.520   0.605  -2.568  0.00  0.00    -0.275 OA
ATOM      4  N   UNL     1      -1.327   0.812  -1.357  0.00  0.00    -0.311 N 
ATOM      5  H   UNL     1      -2.392   1.083  -1.314  0.00  0.00    +0.149 HD
BRANCH   4   6
ATOM      6  C   UNL     1      -0.640   0.349  -0.148  0.00  0.00    +0.139 C 
BRANCH   6   7
ATOM      7  C   UNL     1      -1.608   0.337   1.006  0.00  0.00    -0.030 A 
ATOM      8  C   UNL     1      -1.750   1.458   1.802  0.00  0.00    +0.007 A 
ATOM      9  C   UNL     1      -2.641   1.448   2.859  0.00  0.00    +0.029 A 
ATOM     10  C   UNL     1      -3.385   0.313   3.125  0.00  0.00    +0.105 A 
ATOM     11  C   UNL     1      -3.239  -0.810   2.333  0.00  0.00    +0.029 A 
ATOM     12  C   UNL     1      -2.351  -0.799   1.274  0.00  0.00    +0.007 A 
BRANCH  10  13
ATOM     13  S   UNL     1      -4.518   0.299   4.475  0.00  0.00    +0.056 S 
ATOM     14  O   UNL     1      -4.866   1.653   4.726  0.00  0.00    -0.153 OA
ATOM     15  O   UNL     1      -5.488  -0.696   4.179  0.00  0.00    -0.153 OA
BRANCH  13  16
ATOM     16  N   UNL     1      -3.687  -0.232   5.806  0.00  0.00    -0.204 NA
ATOM     17  H   UNL     1      -4.362  -0.255   6.674  0.00  0.00    +0.144 HD
ATOM     18  H   UNL     1      -2.849   0.451   6.011  0.00  0.00    +0.144 HD
ENDBRANCH  13  16
ENDBRANCH  10  13
ENDBRANCH   6   7
ENDBRANCH   4   6
ENDBRANCH   1   2
BRANCH   1  19
ATOM     19  S   UNL     1      -0.198   1.396  -5.151  0.00  0.00    -0.077 S 
BRANCH  19  24
ATOM     20  N   UNL     1      -0.911   2.191  -7.736  0.00  0.00    -0.298 N 
ATOM     21  C   UNL     1      -2.057   2.633  -8.357  0.00  0.00    +0.165 A 
ATOM     22  N   UNL     1      -3.000   2.670  -7.445  0.00  0.00    -0.128 NA
ATOM     23  N   UNL     1      -2.531   2.283  -6.313  0.00  0.00    -0.122 NA
ATOM     24  C   UNL     1      -1.259   1.974  -6.433  0.00  0.00    +0.193 A 
BRANCH  21  25
ATOM     25  C   UNL     1      -2.197   3.002  -9.782  0.00  0.00    +0.019 A 
ATOM     26  C   UNL     1      -3.071   4.022 -10.159  0.00  0.00    +0.013 A 
ATOM     27  C   UNL     1      -3.195   4.364 -11.489  0.00  0.00    +0.021 A 
ATOM     28  C   UNL     1      -2.462   3.691 -12.451  0.00  0.00    +0.041 A 
ATOM     29  C   UNL     1      -1.597   2.674 -12.084  0.00  0.00    +0.021 A 
ATOM     30  C   UNL     1      -1.461   2.326 -10.756  0.00  0.00    +0.013 A 
ATOM     31 CL   UNL     1      -2.628   4.123 -14.124  0.00  0.00    -0.084 Cl
ENDBRANCH  21  25
BRANCH  20  32
ATOM     32  C   UNL     1       0.406   1.992  -8.345  0.00  0.00    +0.152 C 
BRANCH  32  34
ATOM     33  C   UNL     1       0.913   0.224  -9.951  0.00  0.00    +0.005 C 
ATOM     34  C   UNL     1       0.568   0.543  -8.729  0.00  0.00    -0.013 C 
ENDBRANCH  32  34
ENDBRANCH  20  32
ENDBRANCH  19  24
ENDBRANCH   1  19
TORSDOF 10
