REMARK  Name = ZINC26925850
REMARK  10 active torsions:
REMARK  status: ('A' for Active; 'I' for Inactive)
REMARK    1  A    between atoms: C_1  and  N_2
REMARK    2  A    between atoms: C_3  and  C_5
REMARK    3  A    between atoms: C_8  and  C_11
REMARK    4  A    between atoms: C_11  and  N_12
REMARK    5  A    between atoms: N_12  and  C_13
REMARK    6  A    between atoms: N_12  and  C_19
REMARK    7  A    between atoms: C_13  and  C_14
REMARK    8  A    between atoms: C_19  and  C_20
REMARK    9  A    between atoms: N_25  and  C_26
REMARK   10  A    between atoms: C_26  and  C_27
REMARK                            x       y       z     vdW  Elec       q    Type
REMARK                         _______ _______ _______ _____ _____    ______ ____
ROOT
ATOM      1  N   UNL     1       1.169   3.962   1.434  0.00  0.00    +0.393 N 
ATOM      2  H   UNL     1       2.045   3.472   1.883  0.00  0.00    -0.080 HD
ENDROOT
BRANCH   1   3
ATOM      3  C   UNL     1       1.137   3.611   0.008  0.00  0.00    -0.042 C 
BRANCH   3   7
ATOM      4  C   UNL     1       5.093   3.818  -1.601  0.00  0.00    +0.037 A 
ATOM      5  C   UNL     1       4.660   2.661  -0.952  0.00  0.00    +0.013 A 
ATOM      6  C   UNL     1       3.382   2.601  -0.435  0.00  0.00    +0.002 A 
ATOM      7  C   UNL     1       2.531   3.684  -0.559  0.00  0.00    -0.064 A 
ATOM      8  C   UNL     1       2.954   4.835  -1.201  0.00  0.00    +0.002 A 
ATOM      9  C   UNL     1       4.229   4.908  -1.723  0.00  0.00    +0.013 A 
BRANCH   4  12
ATOM     10  C   UNL     1       8.232   5.080  -3.335  0.00  0.00    +0.128 C 
ATOM     11  N   UNL     1       6.876   5.009  -2.784  0.00  0.00    -0.314 N 
ATOM     12  C   UNL     1       6.461   3.890  -2.158  0.00  0.00    +0.244 C 
ATOM     13  O   UNL     1       7.211   2.940  -2.050  0.00  0.00    -0.270 OA
ATOM     14  H   UNL     1       6.197   5.869  -2.882  0.00  0.00    +0.149 HD
ENDBRANCH   4  12
ENDBRANCH   3   7
ENDBRANCH   1   3
BRANCH   1  15
ATOM     15  C   UNL     1      -0.029   3.467   2.125  0.00  0.00    -0.002 C 
BRANCH  15  16
ATOM     16  C   UNL     1       0.093   1.981   2.340  0.00  0.00    +0.089 A 
ATOM     17  C   UNL     1       0.723   1.383   3.367  0.00  0.00    +0.042 A 
ATOM     18  C   UNL     1       0.593  -0.011   3.173  0.00  0.00    +0.041 A 
ATOM     19  C   UNL     1      -0.109  -0.182   2.038  0.00  0.00    +0.195 A 
ATOM     20  O   UNL     1      -0.414   1.028   1.541  0.00  0.00    -0.470 OA
ENDBRANCH  15  16
ENDBRANCH   1  15
BRANCH   1  21
ATOM     21  C   UNL     1       1.321   5.412   1.616  0.00  0.00    +0.020 C 
BRANCH  21  22
ATOM     22  C   UNL     1       1.595   5.710   3.068  0.00  0.00    +0.204 C 
ATOM     23  O   UNL     1       1.658   4.804   3.871  0.00  0.00    -0.277 OA
ATOM     24  N   UNL     1       1.771   6.983   3.473  0.00  0.00    -0.242 N 
ATOM     25  C   UNL     1       2.016   7.250   4.771  0.00  0.00    +0.306 C 
ATOM     26  O   UNL     1       2.080   6.342   5.576  0.00  0.00    -0.252 OA
ATOM     27  N   UNL     1       2.192   8.523   5.176  0.00  0.00    -0.294 N 
ATOM     28  H   UNL     1       1.713   7.805   2.744  0.00  0.00    +0.159 HD
ATOM     29  H   UNL     1       2.134   9.345   4.447  0.00  0.00    +0.151 HD
BRANCH  27  30
ATOM     30  C   UNL     1       2.459   8.813   6.587  0.00  0.00    +0.148 C 
BRANCH  30  31
ATOM     31  C   UNL     1       2.614  10.300   6.774  0.00  0.00    +0.007 A 
ATOM     32  C   UNL     1       1.667  11.229   7.053  0.00  0.00    +0.013 A 
ATOM     33  C   UNL     1       2.045  12.552   7.186  0.00  0.00    +0.008 A 
ATOM     34  C   UNL     1       3.349  12.883   7.023  0.00  0.00    +0.045 A 
ATOM     35  S   UNL     1       4.092  11.297   6.678  0.00  0.00    -0.100 S 
ENDBRANCH  30  31
ENDBRANCH  27  30
ENDBRANCH  21  22
ENDBRANCH   1  21
TORSDOF 9
