REMARK  Name = ZINC23339638
REMARK  8 active torsions:
REMARK  status: ('A' for Active; 'I' for Inactive)
REMARK    1  A    between atoms: C_1  and  C_2
REMARK    2  A    between atoms: C_3  and  N_11
REMARK    3  A    between atoms: C_7  and  N_8
REMARK    4  A    between atoms: C_12  and  C_14
REMARK    5  A    between atoms: C_14  and  C_16
REMARK    6  A    between atoms: C_14  and  S_17
REMARK    7  A    between atoms: S_17  and  C_18
REMARK    8  A    between atoms: C_21  and  C_24
REMARK                            x       y       z     vdW  Elec       q    Type
REMARK                         _______ _______ _______ _____ _____    ______ ____
ROOT
ATOM      1  N   UNL     1       5.898  -2.717  -0.685  0.00  0.00    -0.284 N 
ATOM      2  C   UNL     1       5.558  -1.522  -0.165  0.00  0.00    +0.230 C 
ATOM      3  O   UNL     1       6.421  -0.749   0.194  0.00  0.00    -0.274 OA
ATOM      4  H   UNL     1       5.118  -3.455  -0.924  0.00  0.00    +0.155 HD
ENDROOT
BRANCH   1   7
ATOM      5  C   UNL     1       6.673  -5.455  -0.726  0.00  0.00    +0.048 C 
ATOM      6  C   UNL     1       7.665  -4.343  -0.951  0.00  0.00    +0.001 A 
ATOM      7  C   UNL     1       7.243  -3.020  -0.923  0.00  0.00    +0.039 A 
ATOM      8  C   UNL     1       8.161  -1.998  -1.126  0.00  0.00    +0.024 A 
ATOM      9  C   UNL     1       9.488  -2.300  -1.361  0.00  0.00    +0.004 A 
ATOM     10  C   UNL     1       9.903  -3.618  -1.394  0.00  0.00    +0.033 A 
ATOM     11  C   UNL     1       8.992  -4.638  -1.192  0.00  0.00    +0.131 A 
BRANCH  11  12
ATOM     12  N   UNL     1       9.441  -6.048  -1.227  0.00  0.00    +0.057 N 
ATOM     13  O   UNL     1      10.540  -6.348  -0.797  0.00  0.00    -0.126 OA
ATOM     14  O   UNL     1       8.711  -6.908  -1.686  0.00  0.00    -0.126 OA
ENDBRANCH  11  12
ENDBRANCH   1   7
BRANCH   2  15
ATOM     15  C   UNL     1       4.105  -1.145  -0.027  0.00  0.00    +0.137 C 
ATOM     16  C   UNL     1       3.554  -1.708   1.284  0.00  0.00    +0.029 C 
BRANCH  15  17
ATOM     17  S   UNL     1       3.947   0.658  -0.023  0.00  0.00    -0.074 S 
BRANCH  17  18
ATOM     18  C   UNL     1       2.192   0.811  -0.007  0.00  0.00    +0.185 A 
ATOM     19  N   UNL     1       1.480   1.978   0.001  0.00  0.00    -0.200 NA
ATOM     20  H   UNL     1       1.492  -1.262  -0.004  0.00  0.00    +0.191 HD
ATOM     21  C   UNL     1       0.154   1.604   0.013  0.00  0.00    +0.189 A 
ATOM     22  N   UNL     1       0.126   0.290   0.010  0.00  0.00    -0.151 NA
ATOM     23  N   UNL     1       1.324  -0.175  -0.001  0.00  0.00    -0.253 N 
BRANCH  21  24
ATOM     24  C   UNL     1      -1.009   2.505   0.025  0.00  0.00    +0.058 A 
ATOM     25  C   UNL     1      -2.345   2.192   0.032  0.00  0.00    +0.019 A 
ATOM     26  C   UNL     1      -3.264   3.217   0.048  0.00  0.00    +0.008 A 
ATOM     27  C   UNL     1      -2.823   4.502   0.045  0.00  0.00    +0.046 A 
ATOM     28  S   UNL     1      -1.051   4.290   0.027  0.00  0.00    -0.093 S 
ENDBRANCH  21  24
ENDBRANCH  17  18
ENDBRANCH  15  17
ENDBRANCH   2  15
TORSDOF 6
