REMARK  Name = ZINC04870798
REMARK  6 active torsions:
REMARK  status: ('A' for Active; 'I' for Inactive)
REMARK    1  A    between atoms: C_8  and  C_10
REMARK    2  A    between atoms: C_10  and  O_12
REMARK    3  A    between atoms: O_12  and  C_13
REMARK    4  A    between atoms: C_13  and  C_14
REMARK    5  A    between atoms: N_16  and  C_17
REMARK    6  A    between atoms: C_22  and  N_23
REMARK                            x       y       z     vdW  Elec       q    Type
REMARK                         _______ _______ _______ _____ _____    ______ ____
ROOT
ATOM      1  C   UNL     1       3.825   8.723  -0.002  0.00  0.00    +0.328 C 
ENDROOT
BRANCH   1   2
ATOM      2  C   UNL     1       3.221  10.104   0.026  0.00  0.00    +0.255 C 
ATOM      3  O   UNL     1       2.016  10.238   0.054  0.00  0.00    -0.272 OA
ATOM      4  N   UNL     1       4.020  11.189   0.019  0.00  0.00    -0.281 N 
ATOM      5  H   UNL     1       4.982  11.084   0.078  0.00  0.00    +0.155 HD
BRANCH   4   6
ATOM      6  C   UNL     1       3.461  12.470  -0.073  0.00  0.00    +0.064 A 
ATOM      7  C   UNL     1       2.217  12.644  -0.665  0.00  0.00    +0.028 A 
ATOM      8  C   UNL     1       1.667  13.907  -0.755  0.00  0.00    +0.040 A 
ATOM      9  C   UNL     1       2.354  15.000  -0.254  0.00  0.00    +0.126 A 
ATOM     10  C   UNL     1       3.595  14.829   0.336  0.00  0.00    +0.073 A 
ATOM     11  C   UNL     1       4.146  13.566   0.433  0.00  0.00    +0.150 A 
ATOM     12  F   UNL     1       1.815  16.235  -0.343  0.00  0.00    -0.205 F 
BRANCH  11  13
ATOM     13  N   UNL     1       5.469  13.382   1.071  0.00  0.00    +0.058 N 
ATOM     14  O   UNL     1       6.029  14.328   1.595  0.00  0.00    -0.126 OA
ATOM     15  O   UNL     1       5.997  12.284   1.073  0.00  0.00    -0.126 OA
ENDBRANCH  11  13
ENDBRANCH   4   6
ENDBRANCH   1   2
BRANCH   1  16
ATOM     16  O   UNL     1       2.766   7.731   0.012  0.00  0.00    -0.451 OA
BRANCH  16  17
ATOM     17  C   UNL     1       3.140   6.435  -0.009  0.00  0.00    +0.348 C 
ATOM     18  O   UNL     1       4.320   6.144  -0.038  0.00  0.00    -0.244 OA
BRANCH  17  26
ATOM     19  C   UNL     1      -0.010   1.076   0.004  0.00  0.00    +0.001 A 
ATOM     20  C   UNL     1      -1.232   1.737   0.032  0.00  0.00    +0.001 A 
ATOM     21  C   UNL     1      -1.259   3.116   0.051  0.00  0.00    +0.016 A 
ATOM     22  C   UNL     1      -0.072   3.819   0.033  0.00  0.00    +0.022 A 
ATOM     23  C   UNL     1       1.186   3.173  -0.000  0.00  0.00    +0.008 A 
ATOM     24  C   UNL     1       1.166   1.754  -0.014  0.00  0.00    +0.010 A 
ATOM     25  C   UNL     1       2.303   4.028  -0.015  0.00  0.00    +0.070 A 
ATOM     26  C   UNL     1       2.124   5.378   0.002  0.00  0.00    +0.116 A 
ATOM     27  S   UNL     1       0.347   5.544   0.042  0.00  0.00    -0.080 S 
ATOM     28 CL   UNL     1       3.907   3.364  -0.057  0.00  0.00    -0.082 Cl
ENDBRANCH  17  26
ENDBRANCH  16  17
ENDBRANCH   1  16
TORSDOF 6
