REMARK  Name = ZINC36245901
REMARK  15 active torsions:
REMARK  status: ('A' for Active; 'I' for Inactive)
REMARK    1  A    between atoms: C_1  and  C_2
REMARK    2  A    between atoms: C_2  and  N_3
REMARK    3  A    between atoms: N_3  and  C_4
REMARK    4  A    between atoms: N_3  and  C_6
REMARK    5  A    between atoms: C_4  and  C_5
REMARK    6  A    between atoms: C_7  and  C_17
REMARK    7  A    between atoms: C_8  and  C_11
REMARK    8  A    between atoms: C_17  and  N_18
REMARK    9  A    between atoms: N_18  and  C_19
REMARK   10  A    between atoms: N_18  and  C_26
REMARK   11  A    between atoms: C_19  and  C_20
REMARK   12  A    between atoms: C_26  and  C_27
REMARK   13  A    between atoms: C_27  and  C_29
REMARK   14  A    between atoms: C_27  and  O_36
REMARK   15  A    between atoms: C_29  and  N_30
REMARK                            x       y       z     vdW  Elec       q    Type
REMARK                         _______ _______ _______ _____ _____    ______ ____
ROOT
ATOM      1  N   UNL     1      -4.425  -2.953  -2.177  0.00  0.00    +0.386 N 
ATOM      2  H   UNL     1      -4.675  -3.900  -1.935  0.00  0.00    -0.081 HD
ENDROOT
BRANCH   1   3
ATOM      3  C   UNL     1      -3.938  -2.254  -0.980  0.00  0.00    -0.035 C 
BRANCH   3   5
ATOM      4  C   UNL     1      -5.241  -3.166   1.017  0.00  0.00    +0.222 A 
ATOM      5  C   UNL     1      -5.026  -2.226   0.062  0.00  0.00    +0.025 A 
ATOM      6  C   UNL     1      -6.001  -1.218   0.217  0.00  0.00    +0.117 A 
ATOM      7  N   UNL     1      -6.768  -1.548   1.230  0.00  0.00    -0.076 NA
ATOM      8  O   UNL     1      -6.304  -2.783   1.746  0.00  0.00    -0.339 OA
BRANCH   6   9
ATOM      9  C   UNL     1      -6.135   0.003  -0.618  0.00  0.00    +0.004 A 
ATOM     10  C   UNL     1      -5.005   0.741  -0.963  0.00  0.00    +0.010 A 
ATOM     11  C   UNL     1      -5.135   1.875  -1.739  0.00  0.00    +0.001 A 
ATOM     12  C   UNL     1      -6.385   2.278  -2.175  0.00  0.00    +0.000 A 
ATOM     13  C   UNL     1      -7.510   1.548  -1.836  0.00  0.00    +0.001 A 
ATOM     14  C   UNL     1      -7.390   0.410  -1.064  0.00  0.00    +0.010 A 
ENDBRANCH   6   9
BRANCH   4  15
ATOM     15  N   UNL     1      -4.500  -4.318   1.204  0.00  0.00    -0.300 N 
BRANCH  15  17
ATOM     16  C   UNL     1      -2.154  -3.810   1.669  0.00  0.00    +0.024 C 
ATOM     17  C   UNL     1      -3.462  -4.362   2.237  0.00  0.00    +0.104 C 
ENDBRANCH  15  17
BRANCH  15  18
ATOM     18  C   UNL     1      -4.754  -5.495   0.370  0.00  0.00    +0.104 C 
ATOM     19  C   UNL     1      -5.896  -6.314   0.975  0.00  0.00    +0.024 C 
ENDBRANCH  15  18
ENDBRANCH   4  15
ENDBRANCH   3   5
ENDBRANCH   1   3
BRANCH   1  20
ATOM     20  C   UNL     1      -3.368  -2.971  -3.197  0.00  0.00    -0.046 C 
BRANCH  20  21
ATOM     21  C   UNL     1      -2.178  -3.784  -2.684  0.00  0.00    +0.102 C 
ATOM     22  C   UNL     1      -1.093  -3.902  -3.784  0.00  0.00    +0.032 C 
ATOM     23  C   UNL     1       0.177  -4.137  -2.922  0.00  0.00    +0.030 C 
ATOM     24  C   UNL     1      -0.118  -3.289  -1.666  0.00  0.00    +0.160 C 
ATOM     25  O   UNL     1      -1.537  -3.097  -1.596  0.00  0.00    -0.378 OA
ENDBRANCH  20  21
ENDBRANCH   1  20
BRANCH   1  26
ATOM     26  C   UNL     1      -5.604  -2.255  -2.706  0.00  0.00    -0.045 C 
BRANCH  26  27
ATOM     27  C   UNL     1      -6.223  -3.083  -3.835  0.00  0.00    +0.112 C 
BRANCH  27  28
ATOM     28  O   UNL     1      -5.336  -3.098  -4.955  0.00  0.00    -0.392 OA
ATOM     29  H   UNL     1      -5.143  -2.221  -5.316  0.00  0.00    +0.210 HD
ENDBRANCH  27  28
BRANCH  27  30
ATOM     30  C   UNL     1      -7.558  -2.462  -4.250  0.00  0.00    +0.114 C 
BRANCH  30  31
ATOM     31  N   UNL     1      -8.180  -3.290  -5.292  0.00  0.00    -0.296 NA
ATOM     32  C   UNL     1      -9.322  -2.595  -5.904  0.00  0.00    +0.112 C 
ATOM     33  C   UNL     1      -9.902  -3.466  -7.022  0.00  0.00    +0.175 C 
ATOM     34  O   UNL     1     -10.268  -4.740  -6.485  0.00  0.00    -0.377 OA
ATOM     35  C   UNL     1      -9.180  -5.445  -5.880  0.00  0.00    +0.175 C 
ATOM     36  C   UNL     1      -8.592  -4.593  -4.752  0.00  0.00    +0.112 C 
ENDBRANCH  30  31
ENDBRANCH  27  30
ENDBRANCH  26  27
ENDBRANCH   1  26
TORSDOF 13
