REMARK  Name = ZINC56798494
REMARK  5 active torsions:
REMARK  status: ('A' for Active; 'I' for Inactive)
REMARK    1  A    between atoms: C_9  and  C_10
REMARK    2  A    between atoms: C_10  and  N_11
REMARK    3  A    between atoms: C_20  and  C_22
REMARK    4  A    between atoms: C_22  and  C_23
REMARK    5  A    between atoms: C_23  and  C_24
REMARK                            x       y       z     vdW  Elec       q    Type
REMARK                         _______ _______ _______ _____ _____    ______ ____
ROOT
ATOM      1  N   UNL     1       5.382  -0.471   1.327  0.00  0.00    -0.292 N 
ATOM      2  C   UNL     1       6.684  -0.213   1.562  0.00  0.00    +0.303 C 
ATOM      3  O   UNL     1       7.467  -0.144   0.634  0.00  0.00    -0.253 OA
ATOM      4  N   UNL     1       7.117  -0.030   2.825  0.00  0.00    -0.283 N 
ATOM      5  C   UNL     1       6.209  -0.229   3.963  0.00  0.00    +0.128 C 
ATOM      6  C   UNL     1       6.839  -1.248   4.921  0.00  0.00    +0.127 C 
ATOM      7  N   UNL     1       8.229  -0.848   5.184  0.00  0.00    -0.298 N 
ATOM      8  C   UNL     1       9.137  -0.650   4.046  0.00  0.00    +0.127 C 
ATOM      9  C   UNL     1       8.508   0.364   3.088  0.00  0.00    +0.128 C 
ATOM     10  C   UNL     1       8.662  -0.666   6.447  0.00  0.00    +0.216 C 
ATOM     11  O   UNL     1       7.904  -0.832   7.379  0.00  0.00    -0.276 OA
ATOM     12  H   UNL     1       4.771  -0.597   2.069  0.00  0.00    +0.151 HD
ENDROOT
BRANCH   1  13
ATOM     13  C   UNL     1       4.890  -0.560  -0.050  0.00  0.00    +0.182 C 
BRANCH  13  22
ATOM     14  C   UNL     1      -0.010   1.379   0.003  0.00  0.00    +0.005 A 
ATOM     15  C   UNL     1       1.204   2.088  -0.005  0.00  0.00    +0.018 A 
ATOM     16  C   UNL     1       2.380   1.427  -0.018  0.00  0.00    +0.094 A 
ATOM     17  N   UNL     1       2.409   0.064  -0.024  0.00  0.00    -0.285 N 
ATOM     18  C   UNL     1       1.239  -0.657  -0.016  0.00  0.00    +0.161 A 
ATOM     19  C   UNL     1       0.004   0.018  -0.002  0.00  0.00    +0.048 A 
ATOM     20  N   UNL     1       1.577  -1.936  -0.025  0.00  0.00    -0.129 NA
ATOM     21  N   UNL     1       2.860  -2.041  -0.038  0.00  0.00    -0.132 NA
ATOM     22  C   UNL     1       3.412  -0.855  -0.037  0.00  0.00    +0.155 A 
ENDBRANCH  13  22
ENDBRANCH   1  13
BRANCH  10  23
ATOM     23  C   UNL     1      10.090  -0.256   6.702  0.00  0.00    +0.096 C 
BRANCH  23  24
ATOM     24  C   UNL     1      10.320  -0.118   8.208  0.00  0.00    +0.013 C 
BRANCH  24  25
ATOM     25  C   UNL     1      11.769   0.298   8.467  0.00  0.00    -0.011 C 
ATOM     26  C   UNL     1      12.710  -0.821   8.014  0.00  0.00    +0.003 C 
ATOM     27  C   UNL     1      14.159  -0.404   8.273  0.00  0.00    +0.000 C 
ATOM     28  C   UNL     1      14.357  -0.146   9.768  0.00  0.00    +0.000 C 
ATOM     29  C   UNL     1      13.416   0.972  10.221  0.00  0.00    +0.000 C 
ATOM     30  C   UNL     1      11.967   0.556   9.962  0.00  0.00    +0.003 C 
ENDBRANCH  24  25
ENDBRANCH  23  24
ENDBRANCH  10  23
TORSDOF 5
