REMARK  Name = ZINC20598922
REMARK  7 active torsions:
REMARK  status: ('A' for Active; 'I' for Inactive)
REMARK    1  A    between atoms: C_1  and  N_2
REMARK    2  A    between atoms: N_2  and  C_3
REMARK    3  A    between atoms: N_2  and  C_18
REMARK    4  A    between atoms: C_3  and  C_4
REMARK    5  A    between atoms: C_6  and  C_9
REMARK    6  A    between atoms: C_18  and  C_19
REMARK    7  A    between atoms: C_19  and  N_25
REMARK                            x       y       z     vdW  Elec       q    Type
REMARK                         _______ _______ _______ _____ _____    ______ ____
ROOT
ATOM      1  C   UNL     1      -0.232  -2.475   0.474  0.00  0.00    -0.096 C 
ATOM      2  N   UNL     1       0.958  -1.706   0.861  0.00  0.00    +0.383 N 
ATOM      3  H   UNL     1       1.291  -2.029   1.757  0.00  0.00    -0.082 HD
ENDROOT
BRANCH   2   4
ATOM      4  C   UNL     1       2.010  -1.889  -0.147  0.00  0.00    +0.021 C 
BRANCH   4   5
ATOM      5  C   UNL     1       2.452  -3.330  -0.155  0.00  0.00    +0.211 A 
ATOM      6  N   UNL     1       1.944  -4.278  -0.889  0.00  0.00    -0.193 NA
ATOM      7  C   UNL     1       2.576  -5.440  -0.644  0.00  0.00    +0.202 A 
ATOM      8  N   UNL     1       3.502  -5.229   0.260  0.00  0.00    -0.056 NA
ATOM      9  O   UNL     1       3.438  -3.849   0.587  0.00  0.00    -0.340 OA
BRANCH   7  10
ATOM     10  C   UNL     1       2.276  -6.741  -1.289  0.00  0.00    +0.026 A 
ATOM     11  C   UNL     1       1.265  -6.831  -2.244  0.00  0.00    +0.015 A 
ATOM     12  C   UNL     1       0.986  -8.042  -2.843  0.00  0.00    +0.050 A 
ATOM     13  C   UNL     1       1.710  -9.174  -2.498  0.00  0.00    +0.166 A 
ATOM     14  C   UNL     1       2.723  -9.090  -1.543  0.00  0.00    +0.167 A 
ATOM     15  C   UNL     1       3.009  -7.876  -0.945  0.00  0.00    +0.061 A 
ATOM     16  O   UNL     1       3.276 -10.328  -1.385  0.00  0.00    -0.453 OA
ATOM     17  C   UNL     1       2.323 -11.249  -1.948  0.00  0.00    +0.466 C 
ATOM     18  O   UNL     1       1.630 -10.464  -2.936  0.00  0.00    -0.453 OA
ENDBRANCH   7  10
ENDBRANCH   4   5
ENDBRANCH   2   4
BRANCH   2  19
ATOM     19  C   UNL     1       0.610  -0.281   0.953  0.00  0.00    -0.091 C 
BRANCH  19  20
ATOM     20  C   UNL     1       0.024   0.013   2.335  0.00  0.00    -0.081 C 
ATOM     21  C   UNL     1      -0.174   1.521   2.495  0.00  0.00    -0.014 C 
ATOM     22  C   UNL     1       1.173   2.231   2.352  0.00  0.00    -0.001 C 
ATOM     23  C   UNL     1       2.133   1.725   3.431  0.00  0.00    -0.000 C 
ATOM     24  C   UNL     1       2.331   0.217   3.272  0.00  0.00    -0.001 C 
ATOM     25  C   UNL     1       0.983  -0.493   3.415  0.00  0.00    -0.014 C 
BRANCH  20  26
ATOM     26  N   UNL     1      -1.270  -0.668   2.473  0.00  0.00    +0.382 N 
ATOM     27  C   UNL     1      -2.143  -0.289   1.355  0.00  0.00    -0.078 C 
ATOM     28  C   UNL     1      -3.462  -1.058   1.449  0.00  0.00    -0.019 C 
ATOM     29  C   UNL     1      -4.151  -0.718   2.774  0.00  0.00    -0.004 C 
ATOM     30  C   UNL     1      -3.204  -1.049   3.930  0.00  0.00    -0.019 C 
ATOM     31  C   UNL     1      -1.893  -0.281   3.744  0.00  0.00    -0.078 C 
ATOM     32  H   UNL     1      -1.127  -1.667   2.461  0.00  0.00    -0.081 HD
ENDBRANCH  20  26
ENDBRANCH  19  20
ENDBRANCH   2  19
TORSDOF 6
