REMARK  Name = ZINC17850666
REMARK  9 active torsions:
REMARK  status: ('A' for Active; 'I' for Inactive)
REMARK    1  A    between atoms: C_1  and  C_2
REMARK    2  A    between atoms: C_2  and  C_3
REMARK    3  A    between atoms: C_3  and  C_5
REMARK    4  A    between atoms: C_3  and  C_6
REMARK    5  A    between atoms: C_9  and  S_12
REMARK    6  A    between atoms: S_12  and  N_15
REMARK    7  A    between atoms: C_21  and  C_23
REMARK    8  A    between atoms: C_26  and  N_32
REMARK    9  A    between atoms: C_27  and  N_29
REMARK                            x       y       z     vdW  Elec       q    Type
REMARK                         _______ _______ _______ _____ _____    ______ ____
ROOT
ATOM      1  N   UNL     1       1.701   3.267   3.000  0.00  0.00    -0.174 NA
ATOM      2  C   UNL     1       1.582   1.807   3.123  0.00  0.00    +0.128 C 
ATOM      3  C   UNL     1       1.744   1.183   1.731  0.00  0.00    +0.125 C 
ATOM      4  N   UNL     1       0.860   1.890   0.794  0.00  0.00    -0.295 N 
ATOM      5  C   UNL     1       0.983   3.349   0.667  0.00  0.00    +0.125 C 
ATOM      6  C   UNL     1       0.817   3.973   2.062  0.00  0.00    +0.128 C 
ATOM      7  C   UNL     1      -0.044   1.211   0.059  0.00  0.00    +0.247 C 
ATOM      8  O   UNL     1      -0.840   1.815  -0.635  0.00  0.00    -0.270 OA
ENDROOT
BRANCH   7   9
ATOM      9  C   UNL     1      -0.072  -0.263   0.103  0.00  0.00    +0.039 A 
ATOM     10  C   UNL     1       1.124  -0.985   0.163  0.00  0.00    +0.015 A 
ATOM     11  C   UNL     1       1.094  -2.360   0.209  0.00  0.00    +0.026 A 
ATOM     12  C   UNL     1      -0.125  -3.032   0.184  0.00  0.00    +0.055 A 
ATOM     13  C   UNL     1      -1.317  -2.317   0.118  0.00  0.00    +0.147 A 
ATOM     14  C   UNL     1      -1.294  -0.941   0.078  0.00  0.00    +0.047 A 
BRANCH  13  15
ATOM     15  N   UNL     1      -2.611  -3.035   0.091  0.00  0.00    +0.058 N 
ATOM     16  O   UNL     1      -3.647  -2.419  -0.079  0.00  0.00    -0.126 OA
ATOM     17  O   UNL     1      -2.639  -4.244   0.241  0.00  0.00    -0.126 OA
ENDBRANCH  13  15
BRANCH  12  18
ATOM     18  N   UNL     1      -0.152  -4.422   0.224  0.00  0.00    -0.356 N 
ATOM     19  H   UNL     1      -0.908  -4.904  -0.145  0.00  0.00    +0.142 HD
ATOM     20  H   UNL     1       0.587  -4.910   0.622  0.00  0.00    +0.142 HD
ENDBRANCH  12  18
ENDBRANCH   7   9
BRANCH   1  21
ATOM     21  S   UNL     1       2.813   4.101   3.901  0.00  0.00    +0.061 S 
ATOM     22  O   UNL     1       2.336   5.435   4.001  0.00  0.00    -0.153 OA
ATOM     23  O   UNL     1       3.089   3.303   5.044  0.00  0.00    -0.153 OA
BRANCH  21  27
ATOM     24  C   UNL     1       6.638   4.271   1.486  0.00  0.00    -0.044 A 
ATOM     25  C   UNL     1       5.691   5.270   1.353  0.00  0.00    +0.006 A 
ATOM     26  C   UNL     1       4.523   5.218   2.091  0.00  0.00    +0.029 A 
ATOM     27  C   UNL     1       4.301   4.167   2.961  0.00  0.00    +0.105 A 
ATOM     28  C   UNL     1       5.250   3.171   3.098  0.00  0.00    +0.029 A 
ATOM     29  C   UNL     1       6.416   3.221   2.357  0.00  0.00    +0.006 A 
BRANCH  24  30
ATOM     30  C   UNL     1       7.911   4.328   0.682  0.00  0.00    +0.016 C 
ATOM     31  C   UNL     1       8.009   3.086  -0.206  0.00  0.00    +0.012 C 
BRANCH  30  33
ATOM     32  C   UNL     1      10.395   4.557   0.818  0.00  0.00    +0.004 C 
ATOM     33  C   UNL     1       9.111   4.374   1.630  0.00  0.00    +0.004 C 
ENDBRANCH  30  33
ENDBRANCH  24  30
ENDBRANCH  21  27
ENDBRANCH   1  21
TORSDOF 7
