REMARK  Name = ZINC01777516
REMARK  7 active torsions:
REMARK  status: ('A' for Active; 'I' for Inactive)
REMARK    1  A    between atoms: C_1  and  C_2
REMARK    2  A    between atoms: C_5  and  O_8
REMARK    3  A    between atoms: O_8  and  C_9
REMARK    4  A    between atoms: C_9  and  C_10
REMARK    5  A    between atoms: C_10  and  C_11
REMARK    6  A    between atoms: C_11  and  C_12
REMARK    7  A    between atoms: C_20  and  N_24
REMARK                            x       y       z     vdW  Elec       q    Type
REMARK                         _______ _______ _______ _____ _____    ______ ____
ROOT
ATOM      1  C   UNL     1       0.124  -8.495   2.194  0.00  0.00    +0.219 C 
ATOM      2  O   UNL     1       0.125  -8.952   1.071  0.00  0.00    -0.275 OA
ATOM      3  N   UNL     1       0.141  -9.322   3.258  0.00  0.00    -0.265 N 
ATOM      4  C   UNL     1       0.157 -10.694   3.069  0.00  0.00    +0.165 A 
ATOM      5  N   UNL     1       0.166 -11.370   1.944  0.00  0.00    -0.225 NA
ATOM      6  C   UNL     1       0.182 -12.720   1.908  0.00  0.00    +0.080 A 
ATOM      7  C   UNL     1       0.193 -13.563   0.773  0.00  0.00    +0.031 A 
ATOM      8  C   UNL     1       0.209 -14.926   0.914  0.00  0.00    +0.035 A 
ATOM      9  C   UNL     1       0.215 -15.526   2.165  0.00  0.00    +0.127 A 
ATOM     10  C   UNL     1       0.205 -14.732   3.297  0.00  0.00    +0.050 A 
ATOM     11  C   UNL     1       0.190 -13.366   3.166  0.00  0.00    +0.043 A 
ATOM     12  S   UNL     1       0.180 -11.994   4.295  0.00  0.00    -0.052 S 
ATOM     13  H   UNL     1       0.140  -8.956   4.157  0.00  0.00    +0.157 HD
ENDROOT
BRANCH   9  14
ATOM     14  N   UNL     1       0.232 -17.001   2.287  0.00  0.00    +0.056 N 
ATOM     15  O   UNL     1       0.240 -17.690   1.293  0.00  0.00    -0.126 OA
ATOM     16  O   UNL     1       0.237 -17.518   3.380  0.00  0.00    -0.126 OA
ENDBRANCH   9  14
BRANCH   1  17
ATOM     17  C   UNL     1       0.106  -7.002   2.400  0.00  0.00    +0.099 C 
BRANCH  17  18
ATOM     18  C   UNL     1       0.090  -6.300   1.040  0.00  0.00    +0.050 C 
BRANCH  18  19
ATOM     19  C   UNL     1       0.072  -4.785   1.249  0.00  0.00    +0.229 C 
BRANCH  19  20
ATOM     20  O   UNL     1       0.057  -4.129  -0.021  0.00  0.00    -0.492 OA
BRANCH  20  25
ATOM     21  C   UNL     1      -0.018   1.503   0.010  0.00  0.00    +0.044 C 
ATOM     22  C   UNL     1       0.002  -0.004   0.002  0.00  0.00    -0.050 A 
ATOM     23  C   UNL     1       0.006  -0.688  -1.200  0.00  0.00    +0.007 A 
ATOM     24  C   UNL     1       0.024  -2.069  -1.210  0.00  0.00    +0.046 A 
ATOM     25  C   UNL     1       0.039  -2.770  -0.013  0.00  0.00    +0.121 A 
ATOM     26  C   UNL     1       0.036  -2.082   1.191  0.00  0.00    +0.046 A 
ATOM     27  C   UNL     1       0.023  -0.701   1.196  0.00  0.00    +0.007 A 
ENDBRANCH  20  25
ENDBRANCH  19  20
ENDBRANCH  18  19
ENDBRANCH  17  18
ENDBRANCH   1  17
TORSDOF 6
