REMARK  Name = ZINC04597352
REMARK  10 active torsions:
REMARK  status: ('A' for Active; 'I' for Inactive)
REMARK    1  A    between atoms: C_1  and  C_2
REMARK    2  A    between atoms: C_3  and  C_25
REMARK    3  A    between atoms: C_4  and  C_16
REMARK    4  A    between atoms: C_10  and  S_14
REMARK    5  A    between atoms: S_14  and  C_15
REMARK    6  A    between atoms: C_19  and  N_22
REMARK    7  A    between atoms: C_25  and  O_27
REMARK    8  A    between atoms: O_27  and  C_28
REMARK    9  A    between atoms: C_28  and  C_29
REMARK   10  A    between atoms: C_28  and  C_30
REMARK                            x       y       z     vdW  Elec       q    Type
REMARK                         _______ _______ _______ _____ _____    ______ ____
ROOT
ATOM      1  C   UNL     1      -0.018   1.503   0.010  0.00  0.00    +0.061 C 
ATOM      2  C   UNL     1       0.002  -0.004   0.002  0.00  0.00    +0.017 C 
ATOM      3  C   UNL     1      -1.160  -0.677   0.004  0.00  0.00    +0.065 C 
ATOM      4  C   UNL     1      -1.216  -2.177  -0.014  0.00  0.00    +0.096 C 
ATOM      5  C   UNL     1       0.113  -2.769   0.356  0.00  0.00    +0.071 A 
ATOM      6  C   UNL     1       0.212  -4.107   0.720  0.00  0.00    +0.280 A 
ATOM      7  O   UNL     1      -0.890  -4.896   0.748  0.00  0.00    -0.265 OA
ATOM      8  N   UNL     1       1.404  -4.600   1.040  0.00  0.00    -0.183 NA
ATOM      9  C   UNL     1       2.486  -3.835   1.014  0.00  0.00    +0.193 A 
ATOM     10  N   UNL     1       2.427  -2.555   0.673  0.00  0.00    -0.206 NA
ATOM     11  C   UNL     1       1.267  -1.997   0.343  0.00  0.00    +0.135 A 
ATOM     12  N   UNL     1       1.203  -0.656  -0.013  0.00  0.00    -0.302 N 
ATOM     13  H   UNL     1       2.009  -0.182  -0.268  0.00  0.00    +0.153 HD
ENDROOT
BRANCH   4  14
ATOM     14  C   UNL     1      -1.596  -2.641  -1.397  0.00  0.00    -0.035 A 
ATOM     15  C   UNL     1      -0.794  -2.325  -2.477  0.00  0.00    +0.007 A 
ATOM     16  C   UNL     1      -1.143  -2.751  -3.745  0.00  0.00    +0.033 A 
ATOM     17  C   UNL     1      -2.293  -3.494  -3.933  0.00  0.00    +0.126 A 
ATOM     18  C   UNL     1      -3.095  -3.811  -2.852  0.00  0.00    +0.033 A 
ATOM     19  C   UNL     1      -2.744  -3.389  -1.584  0.00  0.00    +0.007 A 
BRANCH  17  20
ATOM     20  N   UNL     1      -2.667  -3.949  -5.291  0.00  0.00    +0.056 N 
ATOM     21  O   UNL     1      -1.966  -3.671  -6.236  0.00  0.00    -0.126 OA
ATOM     22  O   UNL     1      -3.673  -4.599  -5.455  0.00  0.00    -0.126 OA
ENDBRANCH  17  20
ENDBRANCH   4  14
BRANCH   9  23
ATOM     23  S   UNL     1       4.043  -4.537   1.446  0.00  0.00    -0.089 S 
ATOM     24  C   UNL     1       3.654  -6.265   1.833  0.00  0.00    +0.093 C 
ENDBRANCH   9  23
BRANCH   3  25
ATOM     25  C   UNL     1      -2.370   0.051   0.024  0.00  0.00    +0.338 C 
ATOM     26  O   UNL     1      -2.348   1.268   0.040  0.00  0.00    -0.245 OA
BRANCH  25  27
ATOM     27  O   UNL     1      -3.551  -0.602   0.027  0.00  0.00    -0.459 OA
BRANCH  27  28
ATOM     28  C   UNL     1      -4.735   0.198   0.048  0.00  0.00    +0.171 C 
ATOM     29  C   UNL     1      -5.864  -0.543  -0.673  0.00  0.00    +0.052 C 
ATOM     30  C   UNL     1      -5.145   0.465   1.498  0.00  0.00    +0.052 C 
ENDBRANCH  27  28
ENDBRANCH  25  27
ENDBRANCH   3  25
TORSDOF 6
