REMARK  Name = ZINC57005510
REMARK  5 active torsions:
REMARK  status: ('A' for Active; 'I' for Inactive)
REMARK    1  A    between atoms: C_1  and  N_2
REMARK    2  A    between atoms: N_2  and  C_3
REMARK    3  A    between atoms: N_15  and  C_16
REMARK    4  A    between atoms: C_16  and  C_17
REMARK    5  A    between atoms: C_20  and  N_23
REMARK                            x       y       z     vdW  Elec       q    Type
REMARK                         _______ _______ _______ _____ _____    ______ ____
ROOT
ATOM      1  C   UNL     1      -0.006   1.461   0.009  0.00  0.00    +0.134 C 
ATOM      2  N   UNL     1       0.002  -0.004   0.002  0.00  0.00    -0.282 N 
ATOM      3  C   UNL     1      -0.113  -0.673  -1.162  0.00  0.00    +0.303 C 
ATOM      4  O   UNL     1      -0.106  -1.889  -1.168  0.00  0.00    -0.253 OA
ATOM      5  N   UNL     1      -0.235   0.005  -2.320  0.00  0.00    -0.295 N 
ATOM      6  H   UNL     1      -0.240   0.976  -2.316  0.00  0.00    +0.151 HD
ENDROOT
BRANCH   2   7
ATOM      7  C   UNL     1       0.135  -0.742   1.261  0.00  0.00    +0.108 C 
ATOM      8  C   UNL     1      -1.049  -0.420   2.197  0.00  0.00    +0.032 C 
ATOM      9  C   UNL     1      -0.500   0.754   3.035  0.00  0.00    +0.037 C 
ATOM     10  C   UNL     1       1.003   0.575   3.030  0.00  0.00    -0.042 A 
ATOM     11  C   UNL     1       1.369  -0.286   2.009  0.00  0.00    -0.024 A 
ATOM     12  C   UNL     1       2.704  -0.600   1.813  0.00  0.00    +0.006 A 
ATOM     13  C   UNL     1       3.673  -0.056   2.633  0.00  0.00    +0.000 A 
ATOM     14  C   UNL     1       3.311   0.804   3.653  0.00  0.00    +0.000 A 
ATOM     15  C   UNL     1       1.975   1.120   3.852  0.00  0.00    +0.004 A 
ENDBRANCH   2   7
BRANCH   5  16
ATOM     16  C   UNL     1      -0.359  -0.722  -3.586  0.00  0.00    +0.141 C 
BRANCH  16  17
ATOM     17  C   UNL     1      -0.481   0.262  -4.721  0.00  0.00    -0.030 A 
ATOM     18  C   UNL     1      -1.727   0.711  -5.116  0.00  0.00    +0.007 A 
ATOM     19  C   UNL     1      -1.839   1.614  -6.157  0.00  0.00    +0.033 A 
ATOM     20  C   UNL     1      -0.704   2.068  -6.803  0.00  0.00    +0.126 A 
ATOM     21  C   UNL     1       0.543   1.620  -6.407  0.00  0.00    +0.033 A 
ATOM     22  C   UNL     1       0.654   0.720  -5.363  0.00  0.00    +0.007 A 
BRANCH  20  23
ATOM     23  N   UNL     1      -0.823   3.034  -7.918  0.00  0.00    +0.056 N 
ATOM     24  O   UNL     1      -1.913   3.425  -8.265  0.00  0.00    -0.126 OA
ATOM     25  O   UNL     1       0.170   3.431  -8.482  0.00  0.00    -0.126 OA
ENDBRANCH  20  23
ENDBRANCH  16  17
ENDBRANCH   5  16
TORSDOF 4
