REMARK  Name = ZINC02256411
REMARK  5 active torsions:
REMARK  status: ('A' for Active; 'I' for Inactive)
REMARK    1  A    between atoms: C_1  and  O_2
REMARK    2  A    between atoms: O_2  and  C_3
REMARK    3  A    between atoms: C_6  and  C_9
REMARK    4  A    between atoms: C_12  and  C_27
REMARK    5  A    between atoms: C_20  and  C_22
REMARK                            x       y       z     vdW  Elec       q    Type
REMARK                         _______ _______ _______ _____ _____    ______ ____
ROOT
ATOM      1  C   UNL     1       2.587  -2.550   4.310  0.00  0.00    +0.147 C 
ATOM      2  C   UNL     1       1.597  -3.465   5.041  0.00  0.00    +0.087 C 
ATOM      3  C   UNL     1       2.318  -4.466   5.899  0.00  0.00    +0.055 C 
ATOM      4  N   UNL     1       3.474  -4.975   5.565  0.00  0.00    -0.215 NA
ATOM      5  C   UNL     1       4.083  -4.529   4.434  0.00  0.00    +0.251 A 
ATOM      6  N   UNL     1       3.683  -3.378   3.809  0.00  0.00    -0.220 N 
ATOM      7  N   UNL     1       4.504  -3.220   2.697  0.00  0.00    -0.131 NA
ATOM      8  C   UNL     1       5.349  -4.230   2.703  0.00  0.00    +0.243 A 
ATOM      9  N   UNL     1       5.096  -5.013   3.759  0.00  0.00    -0.176 NA
ATOM     10  N   UNL     1       6.351  -4.450   1.754  0.00  0.00    -0.247 N 
ATOM     11  C   UNL     1       7.159  -5.524   1.864  0.00  0.00    +0.286 C 
ATOM     12  O   UNL     1       7.016  -6.300   2.790  0.00  0.00    -0.266 OA
ATOM     13  H   UNL     1       6.465  -3.831   1.016  0.00  0.00    +0.158 HD
ENDROOT
BRANCH   3  14
ATOM     14  C   UNL     1       1.699  -4.889   7.164  0.00  0.00    -0.003 A 
ATOM     15  C   UNL     1       0.459  -4.368   7.549  0.00  0.00    +0.011 A 
ATOM     16  C   UNL     1      -0.115  -4.769   8.735  0.00  0.00    +0.020 A 
ATOM     17  C   UNL     1       0.532  -5.687   9.547  0.00  0.00    +0.041 A 
ATOM     18  C   UNL     1       1.760  -6.207   9.172  0.00  0.00    +0.020 A 
ATOM     19  C   UNL     1       2.344  -5.820   7.985  0.00  0.00    +0.011 A 
ATOM     20 CL   UNL     1      -0.199  -6.186  11.040  0.00  0.00    -0.084 Cl
ENDBRANCH   3  14
BRANCH   1  24
ATOM     21  C   UNL     1       0.626  -0.618   1.042  0.00  0.00    +0.120 A 
ATOM     22  C   UNL     1       1.202   0.138   2.051  0.00  0.00    +0.046 A 
ATOM     23  C   UNL     1       1.835  -0.488   3.107  0.00  0.00    +0.009 A 
ATOM     24  C   UNL     1       1.895  -1.869   3.158  0.00  0.00    -0.022 A 
ATOM     25  C   UNL     1       1.322  -2.625   2.152  0.00  0.00    +0.009 A 
ATOM     26  C   UNL     1       0.682  -2.003   1.098  0.00  0.00    +0.046 A 
BRANCH  21  28
ATOM     27  C   UNL     1      -0.017   1.425   0.010  0.00  0.00    +0.277 C 
ATOM     28  O   UNL     1       0.002  -0.004   0.002  0.00  0.00    -0.495 OA
ENDBRANCH  21  28
ENDBRANCH   1  24
BRANCH  11  29
ATOM     29  C   UNL     1       8.210  -5.755   0.869  0.00  0.00    +0.189 A 
ATOM     30  C   UNL     1       9.090  -6.800   0.858  0.00  0.00    +0.054 A 
ATOM     31  C   UNL     1       9.912  -6.624  -0.266  0.00  0.00    +0.042 A 
ATOM     32  C   UNL     1       9.503  -5.495  -0.885  0.00  0.00    +0.196 A 
ATOM     33  O   UNL     1       8.475  -4.976  -0.201  0.00  0.00    -0.458 OA
ENDBRANCH  11  29
TORSDOF 4
