REMARK  Name = ZINC35777336
REMARK  17 active torsions:
REMARK  status: ('A' for Active; 'I' for Inactive)
REMARK    1  A    between atoms: C_1  and  C_2
REMARK    2  A    between atoms: C_3  and  C_22
REMARK    3  A    between atoms: C_4  and  O_13
REMARK    4  A    between atoms: N_5  and  C_7
REMARK    5  A    between atoms: O_13  and  C_14
REMARK    6  A    between atoms: C_19  and  O_20
REMARK    7  A    between atoms: O_20  and  C_21
REMARK    8  A    between atoms: C_22  and  N_23
REMARK    9  A    between atoms: N_23  and  C_24
REMARK   10  A    between atoms: N_23  and  C_28
REMARK   11  A    between atoms: C_24  and  C_25
REMARK   12  A    between atoms: C_28  and  C_29
REMARK   13  A    between atoms: C_29  and  C_31
REMARK   14  A    between atoms: C_29  and  O_39
REMARK   15  A    between atoms: C_31  and  O_32
REMARK   16  A    between atoms: O_32  and  C_33
REMARK   17  A    between atoms: C_33  and  C_34
REMARK                            x       y       z     vdW  Elec       q    Type
REMARK                         _______ _______ _______ _____ _____    ______ ____
ROOT
ATOM      1  C   UNL     1      -0.143   1.945   0.505  0.00  0.00    +0.068 C 
ATOM      2  C   UNL     1       0.178   0.474   0.458  0.00  0.00    +0.065 A 
ATOM      3  C   UNL     1       0.240  -0.312  -0.697  0.00  0.00    +0.021 A 
ATOM      4  C   UNL     1       0.558  -1.581  -0.322  0.00  0.00    +0.225 A 
ATOM      5  N   UNL     1       0.690  -1.586   1.032  0.00  0.00    -0.200 N 
ATOM      6  N   UNL     1       0.451  -0.283   1.490  0.00  0.00    -0.168 NA
ENDROOT
BRANCH   5   7
ATOM      7  C   UNL     1       1.011  -2.695   1.826  0.00  0.00    +0.069 A 
ATOM      8  C   UNL     1       0.399  -3.919   1.593  0.00  0.00    +0.028 A 
ATOM      9  C   UNL     1       0.718  -5.010   2.377  0.00  0.00    +0.002 A 
ATOM     10  C   UNL     1       1.647  -4.884   3.393  0.00  0.00    +0.000 A 
ATOM     11  C   UNL     1       2.259  -3.667   3.628  0.00  0.00    +0.002 A 
ATOM     12  C   UNL     1       1.948  -2.573   2.844  0.00  0.00    +0.028 A 
ENDBRANCH   5   7
BRANCH   4  13
ATOM     13  O   UNL     1       0.714  -2.646  -1.148  0.00  0.00    -0.434 OA
BRANCH  13  14
ATOM     14  C   UNL     1      -0.394  -3.356  -1.491  0.00  0.00    +0.172 A 
ATOM     15  C   UNL     1      -1.648  -2.923  -1.089  0.00  0.00    +0.050 A 
ATOM     16  C   UNL     1      -2.773  -3.646  -1.439  0.00  0.00    +0.004 A 
ATOM     17  C   UNL     1      -2.651  -4.801  -2.189  0.00  0.00    +0.004 A 
ATOM     18  C   UNL     1      -1.404  -5.238  -2.594  0.00  0.00    +0.049 A 
ATOM     19  C   UNL     1      -0.272  -4.516  -2.251  0.00  0.00    +0.162 A 
BRANCH  19  20
ATOM     20  O   UNL     1       0.956  -4.941  -2.652  0.00  0.00    -0.491 OA
ATOM     21  C   UNL     1       1.004  -6.139  -3.430  0.00  0.00    +0.277 C 
ENDBRANCH  19  20
ENDBRANCH  13  14
ENDBRANCH   4  13
BRANCH   3  22
ATOM     22  C   UNL     1      -0.002   0.162  -2.107  0.00  0.00    -0.036 C 
BRANCH  22  23
ATOM     23  N   UNL     1       1.266   0.614  -2.696  0.00  0.00    +0.384 N 
ATOM     24  H   UNL     1       1.666   1.338  -2.117  0.00  0.00    -0.081 HD
BRANCH  23  25
ATOM     25  C   UNL     1       2.199  -0.518  -2.779  0.00  0.00    -0.075 C 
BRANCH  25  26
ATOM     26  C   UNL     1       3.546  -0.030  -3.316  0.00  0.00    -0.028 C 
ATOM     27  C   UNL     1       3.995  -0.556  -4.681  0.00  0.00    +0.002 C 
ATOM     28  C   UNL     1       4.682  -1.051  -3.406  0.00  0.00    +0.002 C 
ENDBRANCH  25  26
ENDBRANCH  23  25
BRANCH  23  29
ATOM     29  C   UNL     1       1.018   1.145  -4.043  0.00  0.00    -0.044 C 
BRANCH  29  30
ATOM     30  C   UNL     1       0.198   2.432  -3.941  0.00  0.00    +0.124 C 
BRANCH  30  31
ATOM     31  O   UNL     1      -1.125   2.121  -3.498  0.00  0.00    -0.391 OA
ATOM     32  H   UNL     1      -1.605   1.522  -4.086  0.00  0.00    +0.210 HD
ENDBRANCH  30  31
BRANCH  30  33
ATOM     33  C   UNL     1       0.131   3.105  -5.313  0.00  0.00    +0.189 C 
BRANCH  33  34
ATOM     34  O   UNL     1      -0.534   4.364  -5.195  0.00  0.00    -0.370 OA
BRANCH  34  35
ATOM     35  C   UNL     1      -0.650   5.078  -6.428  0.00  0.00    +0.234 C 
BRANCH  35  36
ATOM     36  C   UNL     1      -1.364   6.383  -6.187  0.00  0.00    +0.130 A 
ATOM     37  C   UNL     1      -0.779   7.553  -5.874  0.00  0.00    +0.047 A 
ATOM     38  C   UNL     1      -1.815   8.506  -5.739  0.00  0.00    +0.041 A 
ATOM     39  C   UNL     1      -2.971   7.861  -5.978  0.00  0.00    +0.195 A 
ATOM     40  O   UNL     1      -2.691   6.577  -6.254  0.00  0.00    -0.465 OA
ENDBRANCH  35  36
ENDBRANCH  34  35
ENDBRANCH  33  34
ENDBRANCH  30  33
ENDBRANCH  29  30
ENDBRANCH  23  29
ENDBRANCH  22  23
ENDBRANCH   3  22
TORSDOF 15
