REMARK  Name = ZINC63308261
REMARK  12 active torsions:
REMARK  status: ('A' for Active; 'I' for Inactive)
REMARK    1  A    between atoms: C_1  and  C_2
REMARK    2  A    between atoms: C_4  and  C_35
REMARK    3  A    between atoms: C_9  and  N_23
REMARK    4  A    between atoms: N_10  and  C_11
REMARK    5  A    between atoms: C_11  and  C_13
REMARK    6  A    between atoms: C_13  and  O_14
REMARK    7  A    between atoms: O_14  and  C_15
REMARK    8  A    between atoms: C_18  and  O_21
REMARK    9  A    between atoms: O_21  and  C_22
REMARK   10  A    between atoms: N_23  and  C_24
REMARK   11  A    between atoms: C_24  and  C_25
REMARK   12  A    between atoms: C_25  and  C_26
REMARK                            x       y       z     vdW  Elec       q    Type
REMARK                         _______ _______ _______ _____ _____    ______ ____
ROOT
ATOM      1  C   UNL     1      -0.018   1.503   0.010  0.00  0.00    +0.066 C 
ATOM      2  C   UNL     1       0.002  -0.004   0.002  0.00  0.00    +0.044 A 
ATOM      3  C   UNL     1       0.006  -0.699  -1.197  0.00  0.00    +0.046 A 
ATOM      4  C   UNL     1       0.025  -2.085  -1.160  0.00  0.00    +0.044 A 
ATOM      5  N   UNL     1       0.039  -2.698   0.012  0.00  0.00    -0.217 NA
ATOM      6  C   UNL     1       0.035  -2.004   1.140  0.00  0.00    +0.231 A 
ATOM      7  N   UNL     1       0.022  -0.680   1.139  0.00  0.00    -0.217 NA
ATOM      8  N   UNL     1       0.049  -2.681   2.352  0.00  0.00    -0.295 N 
ATOM      9  C   UNL     1       0.045  -1.981   3.525  0.00  0.00    +0.218 C 
ATOM     10  N   UNL     1       0.027  -0.655   3.506  0.00  0.00    -0.143 NA
ATOM     11  C   UNL     1       0.029  -2.882  -2.438  0.00  0.00    +0.066 C 
ATOM     12  H   UNL     1       0.062  -3.651   2.366  0.00  0.00    +0.172 HD
ENDROOT
BRANCH  10  13
ATOM     13  C   UNL     1       0.023   0.028   4.650  0.00  0.00    +0.277 C 
ATOM     14  O   UNL     1       0.036  -0.565   5.711  0.00  0.00    -0.270 OA
BRANCH  13  15
ATOM     15  C   UNL     1       0.003   1.534   4.628  0.00  0.00    +0.326 C 
BRANCH  15  16
ATOM     16  O   UNL     1       0.002   2.030   5.969  0.00  0.00    -0.483 OA
BRANCH  16  17
ATOM     17  C   UNL     1      -0.015   3.381   6.128  0.00  0.00    +0.121 A 
ATOM     18  C   UNL     1      -0.037   4.209   5.016  0.00  0.00    +0.049 A 
ATOM     19  C   UNL     1      -0.055   5.581   5.177  0.00  0.00    +0.049 A 
ATOM     20  C   UNL     1      -0.051   6.130   6.451  0.00  0.00    +0.120 A 
ATOM     21  C   UNL     1      -0.030   5.301   7.563  0.00  0.00    +0.049 A 
ATOM     22  C   UNL     1      -0.017   3.929   7.402  0.00  0.00    +0.049 A 
BRANCH  20  23
ATOM     23  O   UNL     1      -0.068   7.480   6.610  0.00  0.00    -0.495 OA
ATOM     24  C   UNL     1      -0.063   7.976   7.950  0.00  0.00    +0.277 C 
ENDBRANCH  20  23
ENDBRANCH  16  17
ENDBRANCH  15  16
ENDBRANCH  13  15
ENDBRANCH  10  13
BRANCH   9  25
ATOM     25  N   UNL     1       0.060  -2.645   4.715  0.00  0.00    -0.252 NA
BRANCH  25  26
ATOM     26  C   UNL     1       0.080  -4.109   4.736  0.00  0.00    +0.149 C 
BRANCH  26  27
ATOM     27  C   UNL     1       0.093  -4.598   6.185  0.00  0.00    +0.056 C 
BRANCH  27  28
ATOM     28  C   UNL     1       0.114  -6.105   6.207  0.00  0.00    -0.040 C 
ATOM     29  C   UNL     1       1.201  -6.902   6.313  0.00  0.00    -0.001 A 
ATOM     30  C   UNL     1       2.636  -6.616   6.435  0.00  0.00    +0.010 A 
ATOM     31  C   UNL     1       3.505  -7.648   6.524  0.00  0.00    +0.001 A 
ATOM     32  C   UNL     1       3.072  -8.981   6.504  0.00  0.00    +0.002 A 
ATOM     33  C   UNL     1       1.771  -9.323   6.395  0.00  0.00    +0.026 A 
ATOM     34  C   UNL     1       0.769  -8.318   6.294  0.00  0.00    +0.043 A 
ATOM     35  N   UNL     1      -0.534  -8.393   6.181  0.00  0.00    -0.380 N 
ATOM     36  C   UNL     1      -1.078  -7.032   6.121  0.00  0.00    +0.144 C 
ATOM     37  H   UNL     1      -1.053  -9.212   6.146  0.00  0.00    +0.160 HD
ENDBRANCH  27  28
ENDBRANCH  26  27
ENDBRANCH  25  26
ENDBRANCH   9  25
TORSDOF 9
