REMARK  Name = ZINC59790552
REMARK  13 active torsions:
REMARK  status: ('A' for Active; 'I' for Inactive)
REMARK    1  A    between atoms: C_1  and  C_2
REMARK    2  A    between atoms: C_2  and  O_3
REMARK    3  A    between atoms: O_3  and  C_4
REMARK    4  A    between atoms: C_4  and  C_6
REMARK    5  A    between atoms: C_7  and  C_33
REMARK    6  A    between atoms: C_8  and  C_31
REMARK    7  A    between atoms: C_9  and  N_11
REMARK    8  A    between atoms: C_12  and  C_14
REMARK    9  A    between atoms: C_14  and  S_15
REMARK   10  A    between atoms: S_15  and  C_16
REMARK   11  A    between atoms: C_19  and  C_22
REMARK   12  A    between atoms: N_20  and  N_21
REMARK   13  A    between atoms: C_25  and  N_28
REMARK                            x       y       z     vdW  Elec       q    Type
REMARK                         _______ _______ _______ _____ _____    ______ ____
ROOT
ATOM      1  C   UNL     1       4.600  -1.624   7.781  0.00  0.00    +0.173 C 
ENDROOT
BRANCH   1   3
ATOM      2  N   UNL     1       3.521  -2.810   5.898  0.00  0.00    -0.278 N 
ATOM      3  C   UNL     1       3.838  -1.637   6.481  0.00  0.00    +0.228 C 
ATOM      4  O   UNL     1       3.509  -0.593   5.960  0.00  0.00    -0.275 OA
ATOM      5  H   UNL     1       3.784  -3.646   6.314  0.00  0.00    +0.155 HD
BRANCH   2   9
ATOM      6  C   UNL     1       1.495  -2.370   2.465  0.00  0.00    +0.102 A 
ATOM      7  C   UNL     1       1.714  -3.696   2.787  0.00  0.00    -0.010 A 
ATOM      8  C   UNL     1       2.410  -3.929   3.963  0.00  0.00    +0.084 A 
ATOM      9  C   UNL     1       2.822  -2.822   4.705  0.00  0.00    +0.090 A 
ATOM     10  S   UNL     1       2.277  -1.508   3.813  0.00  0.00    -0.065 S 
ATOM     11  C   UNL     1       1.225  -4.821   1.912  0.00  0.00    +0.046 C 
BRANCH   6  12
ATOM     12  C   UNL     1       0.801  -1.815   1.305  0.00  0.00    +0.346 C 
ATOM     13  O   UNL     1       0.321  -2.558   0.470  0.00  0.00    -0.244 OA
BRANCH  12  14
ATOM     14  O   UNL     1       0.693  -0.477   1.160  0.00  0.00    -0.461 OA
BRANCH  14  16
ATOM     15  C   UNL     1      -0.019   1.526   0.010  0.00  0.00    +0.048 C 
ATOM     16  C   UNL     1       0.002  -0.004   0.002  0.00  0.00    +0.229 C 
ENDBRANCH  14  16
ENDBRANCH  12  14
ENDBRANCH   6  12
BRANCH   8  17
ATOM     17  C   UNL     1       2.697  -5.262   4.401  0.00  0.00    +0.102 C 
ATOM     18  N   UNL     1       2.924  -6.319   4.748  0.00  0.00    -0.191 NA
ENDBRANCH   8  17
ENDBRANCH   2   9
ENDBRANCH   1   3
BRANCH   1  19
ATOM     19  S   UNL     1       4.870   0.091   8.306  0.00  0.00    -0.075 S 
BRANCH  19  20
ATOM     20  C   UNL     1       5.761  -0.061   9.819  0.00  0.00    +0.209 A 
ATOM     21  N   UNL     1       6.131  -1.183  10.396  0.00  0.00    -0.121 NA
ATOM     22  N   UNL     1       6.764  -0.930  11.486  0.00  0.00    -0.127 NA
ATOM     23  C   UNL     1       6.836   0.367  11.671  0.00  0.00    +0.182 A 
ATOM     24  N   UNL     1       6.201   0.964  10.607  0.00  0.00    -0.224 N 
BRANCH  23  25
ATOM     25  C   UNL     1       7.483   1.058  12.808  0.00  0.00    +0.021 A 
ATOM     26  C   UNL     1       7.218   2.406  13.051  0.00  0.00    +0.014 A 
ATOM     27  C   UNL     1       7.825   3.045  14.113  0.00  0.00    +0.033 A 
ATOM     28  C   UNL     1       8.694   2.351  14.936  0.00  0.00    +0.126 A 
ATOM     29  C   UNL     1       8.960   1.014  14.701  0.00  0.00    +0.033 A 
ATOM     30  C   UNL     1       8.356   0.362  13.646  0.00  0.00    +0.014 A 
BRANCH  28  31
ATOM     31  N   UNL     1       9.342   3.042  16.074  0.00  0.00    +0.056 N 
ATOM     32  O   UNL     1       9.111   4.211  16.282  0.00  0.00    -0.126 OA
ATOM     33  O   UNL     1      10.102   2.438  16.794  0.00  0.00    -0.126 OA
ENDBRANCH  28  31
ENDBRANCH  23  25
BRANCH  24  34
ATOM     34  N   UNL     1       6.041   2.302  10.385  0.00  0.00    -0.295 N 
ATOM     35  H   UNL     1       5.187   2.639  10.804  0.00  0.00    +0.163 HD
ATOM     36  H   UNL     1       6.838   2.822  10.722  0.00  0.00    +0.163 HD
ENDBRANCH  24  34
ENDBRANCH  19  20
ENDBRANCH   1  19
TORSDOF 11
