REMARK  Name = ZINC39564561
REMARK  16 active torsions:
REMARK  status: ('A' for Active; 'I' for Inactive)
REMARK    1  A    between atoms: C_1  and  C_2
REMARK    2  A    between atoms: C_2  and  C_3
REMARK    3  A    between atoms: C_2  and  C_4
REMARK    4  A    between atoms: C_4  and  N_5
REMARK    5  A    between atoms: C_6  and  N_35
REMARK    6  A    between atoms: C_7  and  C_14
REMARK    7  A    between atoms: N_10  and  C_13
REMARK    8  A    between atoms: C_14  and  C_16
REMARK    9  A    between atoms: C_16  and  O_17
REMARK   10  A    between atoms: O_17  and  C_18
REMARK   11  A    between atoms: C_18  and  C_20
REMARK   12  A    between atoms: C_20  and  C_22
REMARK   13  A    between atoms: C_20  and  N_25
REMARK   14  A    between atoms: C_22  and  C_23
REMARK   15  A    between atoms: C_22  and  C_24
REMARK   16  A    between atoms: C_26  and  C_28
REMARK                            x       y       z     vdW  Elec       q    Type
REMARK                         _______ _______ _______ _____ _____    ______ ____
ROOT
ATOM      1  C   UNL     1       5.314   3.279  -2.491  0.00  0.00    +0.311 C 
ENDROOT
BRANCH   1   2
ATOM      2  C   UNL     1       3.902   2.770  -2.351  0.00  0.00    +0.209 C 
ATOM      3  O   UNL     1       2.972   3.440  -2.753  0.00  0.00    -0.288 OA
BRANCH   2   6
ATOM      4  N   UNL     1       2.185  -0.255  -1.131  0.00  0.00    -0.281 N 
ATOM      5  C   UNL     1       2.369   0.963  -1.721  0.00  0.00    +0.116 A 
ATOM      6  C   UNL     1       3.661   1.515  -1.752  0.00  0.00    +0.123 A 
ATOM      7  C   UNL     1       4.752   0.744  -1.141  0.00  0.00    +0.269 A 
ATOM      8  O   UNL     1       5.890   1.174  -1.139  0.00  0.00    -0.267 OA
ATOM      9  N   UNL     1       4.465  -0.450  -0.583  0.00  0.00    -0.263 N 
ATOM     10  C   UNL     1       3.209  -0.925  -0.579  0.00  0.00    +0.333 A 
ATOM     11  O   UNL     1       2.992  -2.003  -0.062  0.00  0.00    -0.246 OA
ATOM     12  C   UNL     1       5.537  -1.236   0.032  0.00  0.00    +0.157 C 
BRANCH   5  13
ATOM     13  N   UNL     1       1.318   1.630  -2.271  0.00  0.00    -0.344 N 
ATOM     14  H   UNL     1       0.447   1.206  -2.322  0.00  0.00    +0.144 HD
ATOM     15  H   UNL     1       1.440   2.530  -2.612  0.00  0.00    +0.144 HD
ENDBRANCH   5  13
BRANCH   4  16
ATOM     16  C   UNL     1       0.842  -0.839  -1.093  0.00  0.00    +0.131 C 
BRANCH  16  18
ATOM     17  C   UNL     1      -0.094   1.127   0.133  0.00  0.00    +0.009 C 
ATOM     18  C   UNL     1       0.124  -0.387   0.181  0.00  0.00    +0.003 C 
ATOM     19  C   UNL     1      -1.228  -1.094   0.282  0.00  0.00    +0.009 C 
ENDBRANCH  16  18
ENDBRANCH   4  16
ENDBRANCH   2   6
ENDBRANCH   1   2
BRANCH   1  20
ATOM     20  O   UNL     1       5.297   4.560  -3.123  0.00  0.00    -0.455 OA
BRANCH  20  21
ATOM     21  C   UNL     1       6.483   5.156  -3.324  0.00  0.00    +0.328 C 
ATOM     22  O   UNL     1       7.502   4.608  -2.974  0.00  0.00    -0.249 OA
BRANCH  21  23
ATOM     23  C   UNL     1       6.545   6.509  -3.985  0.00  0.00    +0.185 C 
BRANCH  23  24
ATOM     24  N   UNL     1       7.941   6.939  -4.087  0.00  0.00    -0.298 N 
ATOM     25  C   UNL     1       8.308   7.817  -5.042  0.00  0.00    +0.245 C 
ATOM     26  O   UNL     1       7.479   8.252  -5.818  0.00  0.00    -0.270 OA
ATOM     27  H   UNL     1       8.603   6.592  -3.468  0.00  0.00    +0.150 HD
BRANCH  25  28
ATOM     28  C   UNL     1       9.716   8.251  -5.146  0.00  0.00    +0.037 A 
ATOM     29  C   UNL     1      10.671   7.749  -4.260  0.00  0.00    +0.014 A 
ATOM     30  C   UNL     1      11.985   8.157  -4.362  0.00  0.00    +0.021 A 
ATOM     31  C   UNL     1      12.357   9.064  -5.340  0.00  0.00    +0.041 A 
ATOM     32  C   UNL     1      11.414   9.566  -6.222  0.00  0.00    +0.021 A 
ATOM     33  C   UNL     1      10.099   9.161  -6.134  0.00  0.00    +0.014 A 
ATOM     34 CL   UNL     1      14.012   9.575  -5.462  0.00  0.00    -0.084 Cl
ENDBRANCH  25  28
ENDBRANCH  23  24
BRANCH  23  35
ATOM     35  C   UNL     1       5.760   7.521  -3.148  0.00  0.00    +0.014 C 
ATOM     36  C   UNL     1       5.822   8.895  -3.820  0.00  0.00    +0.009 C 
ATOM     37  C   UNL     1       4.301   7.072  -3.041  0.00  0.00    +0.009 C 
ENDBRANCH  23  35
ENDBRANCH  21  23
ENDBRANCH  20  21
ENDBRANCH   1  20
TORSDOF 11
