REMARK  Name = ZINC02177544
REMARK  10 active torsions:
REMARK  status: ('A' for Active; 'I' for Inactive)
REMARK    1  A    between atoms: C_1  and  C_2
REMARK    2  A    between atoms: C_5  and  C_8
REMARK    3  A    between atoms: N_10  and  C_11
REMARK    4  A    between atoms: C_11  and  C_12
REMARK    5  A    between atoms: N_14  and  N_15
REMARK    6  A    between atoms: C_16  and  C_17
REMARK    7  A    between atoms: C_20  and  C_22
REMARK    8  A    between atoms: C_25  and  C_28
REMARK    9  A    between atoms: C_28  and  O_30
REMARK   10  A    between atoms: O_30  and  C_31
REMARK                            x       y       z     vdW  Elec       q    Type
REMARK                         _______ _______ _______ _____ _____    ______ ____
ROOT
ATOM      1  N   UNL     1      -2.961   4.491   0.054  0.00  0.00    -0.185 NA
ATOM      2  C   UNL     1      -1.673   4.684   0.043  0.00  0.00    +0.176 C 
ENDROOT
BRANCH   2   3
ATOM      3  C   UNL     1      -0.761   3.539   0.028  0.00  0.00    +0.148 A 
ATOM      4  C   UNL     1       0.616   3.601   0.015  0.00  0.00    +0.051 A 
ATOM      5  C   UNL     1       1.080   2.280   0.004  0.00  0.00    +0.050 A 
ATOM      6  C   UNL     1      -0.018   1.469   0.010  0.00  0.00    +0.136 A 
ATOM      7  O   UNL     1      -1.123   2.240   0.019  0.00  0.00    -0.454 OA
BRANCH   6   8
ATOM      8  C   UNL     1       0.002  -0.004   0.002  0.00  0.00    +0.017 A 
ATOM      9  C   UNL     1       1.223  -0.687  -0.019  0.00  0.00    +0.012 A 
ATOM     10  C   UNL     1       1.242  -2.052  -0.022  0.00  0.00    +0.015 A 
ATOM     11  C   UNL     1       0.040  -2.768  -0.014  0.00  0.00    +0.059 A 
ATOM     12  C   UNL     1      -1.181  -2.085   0.002  0.00  0.00    +0.015 A 
ATOM     13  C   UNL     1      -1.200  -0.720   0.010  0.00  0.00    +0.012 A 
BRANCH  11  14
ATOM     14  C   UNL     1       0.059  -4.242  -0.022  0.00  0.00    +0.339 C 
ATOM     15  O   UNL     1      -0.984  -4.864  -0.015  0.00  0.00    -0.245 OA
BRANCH  14  16
ATOM     16  O   UNL     1       1.236  -4.900  -0.037  0.00  0.00    -0.464 OA
ATOM     17  C   UNL     1       1.179  -6.351  -0.045  0.00  0.00    +0.280 C 
ENDBRANCH  14  16
ENDBRANCH  11  14
ENDBRANCH   6   8
ENDBRANCH   2   3
BRANCH   1  20
ATOM     18  C   UNL     1      -5.166   5.387   0.079  0.00  0.00    +0.249 C 
ATOM     19  O   UNL     1      -5.610   4.258   0.078  0.00  0.00    -0.272 OA
ATOM     20  N   UNL     1      -3.833   5.587   0.067  0.00  0.00    -0.206 N 
ATOM     21  H   UNL     1      -3.478   6.490   0.068  0.00  0.00    +0.177 HD
BRANCH  18  22
ATOM     22  C   UNL     1      -6.105   6.566   0.094  0.00  0.00    +0.202 C 
BRANCH  22  25
ATOM     23  C   UNL     1      -8.507   6.971   0.118  0.00  0.00    +0.244 C 
ATOM     24  O   UNL     1      -8.277   8.165   0.122  0.00  0.00    -0.270 OA
ATOM     25  N   UNL     1      -7.489   6.088   0.105  0.00  0.00    -0.303 N 
ATOM     26  H   UNL     1      -7.674   5.136   0.102  0.00  0.00    +0.150 HD
BRANCH  23  31
ATOM     27  C   UNL     1     -13.947   5.092   0.159  0.00  0.00    +0.044 C 
ATOM     28  C   UNL     1     -12.522   5.584   0.149  0.00  0.00    -0.050 A 
ATOM     29  C   UNL     1     -12.263   6.944   0.154  0.00  0.00    +0.004 A 
ATOM     30  C   UNL     1     -10.961   7.401   0.144  0.00  0.00    +0.013 A 
ATOM     31  C   UNL     1      -9.905   6.489   0.130  0.00  0.00    +0.037 A 
ATOM     32  C   UNL     1     -10.173   5.119   0.120  0.00  0.00    +0.013 A 
ATOM     33  C   UNL     1     -11.479   4.675   0.134  0.00  0.00    +0.004 A 
ENDBRANCH  23  31
ENDBRANCH  22  25
ENDBRANCH  18  22
ENDBRANCH   1  20
TORSDOF 8
