REMARK  Name = ZINC26805837
REMARK  8 active torsions:
REMARK  status: ('A' for Active; 'I' for Inactive)
REMARK    1  A    between atoms: C_4  and  C_7
REMARK    2  A    between atoms: N_9  and  C_10
REMARK    3  A    between atoms: C_10  and  C_20
REMARK    4  A    between atoms: C_11  and  C_12
REMARK    5  A    between atoms: C_15  and  N_17
REMARK    6  A    between atoms: N_22  and  C_23
REMARK    7  A    between atoms: C_23  and  C_24
REMARK    8  A    between atoms: C_24  and  N_25
REMARK                            x       y       z     vdW  Elec       q    Type
REMARK                         _______ _______ _______ _____ _____    ______ ____
ROOT
ATOM      1  C   UNL     1      -0.013   1.436  -0.016  0.00  0.00    +0.100 C 
ATOM      2  C   UNL     1       1.151   2.140  -0.029  0.00  0.00    +0.075 C 
ENDROOT
BRANCH   2   3
ATOM      3  C   UNL     1       2.390   1.457  -0.102  0.00  0.00    +0.133 A 
ATOM      4  C   UNL     1       3.641   2.034  -0.031  0.00  0.00    +0.052 A 
ATOM      5  C   UNL     1       4.570   0.988  -0.144  0.00  0.00    +0.076 A 
ATOM      6  C   UNL     1       3.868  -0.157  -0.285  0.00  0.00    +0.280 A 
ATOM      7  O   UNL     1       2.557   0.128  -0.260  0.00  0.00    -0.434 OA
BRANCH   6   8
ATOM      8  N   UNL     1       4.451  -1.510  -0.443  0.00  0.00    +0.093 N 
ATOM      9  O   UNL     1       5.656  -1.667  -0.362  0.00  0.00    -0.123 OA
ATOM     10  O   UNL     1       3.725  -2.465  -0.655  0.00  0.00    -0.123 OA
ENDBRANCH   6   8
ENDBRANCH   2   3
BRANCH   1  13
ATOM     11  C   UNL     1      -0.567  -0.614   1.058  0.00  0.00    +0.248 C 
ATOM     12  O   UNL     1      -1.190   0.008   1.897  0.00  0.00    -0.270 OA
ATOM     13  N   UNL     1       0.016   0.038   0.032  0.00  0.00    -0.277 N 
ATOM     14  H   UNL     1       0.513  -0.530  -0.768  0.00  0.00    +0.155 HD
BRANCH  11  18
ATOM     15  C   UNL     1      -0.222  -4.836   1.363  0.00  0.00    +0.000 A 
ATOM     16  C   UNL     1      -0.841  -4.121   2.373  0.00  0.00    +0.001 A 
ATOM     17  C   UNL     1      -0.957  -2.749   2.280  0.00  0.00    +0.013 A 
ATOM     18  C   UNL     1      -0.447  -2.083   1.165  0.00  0.00    +0.037 A 
ATOM     19  C   UNL     1       0.172  -2.811   0.147  0.00  0.00    +0.013 A 
ATOM     20  C   UNL     1       0.285  -4.182   0.255  0.00  0.00    +0.001 A 
ENDBRANCH  11  18
ENDBRANCH   1  13
BRANCH   1  21
ATOM     21  C   UNL     1      -1.296   2.142  -0.057  0.00  0.00    +0.258 C 
ATOM     22  O   UNL     1      -2.337   1.512  -0.050  0.00  0.00    -0.269 OA
ATOM     23  N   UNL     1      -1.323   3.489  -0.103  0.00  0.00    -0.309 N 
ATOM     24  H   UNL     1      -0.382   4.058  -0.109  0.00  0.00    +0.149 HD
BRANCH  23  25
ATOM     25  C   UNL     1      -2.606   4.195  -0.144  0.00  0.00    +0.120 C 
BRANCH  25  26
ATOM     26  C   UNL     1      -2.357   5.704  -0.192  0.00  0.00    +0.103 C 
BRANCH  26  27
ATOM     27  N   UNL     1      -3.643   6.411  -0.233  0.00  0.00    -0.304 NA
ATOM     28  C   UNL     1      -4.576   5.867   0.763  0.00  0.00    +0.065 C 
ATOM     29  C   UNL     1      -5.927   6.575   0.634  0.00  0.00    -0.067 C 
ATOM     30  N   UNL     1      -5.740   8.020   0.826  0.00  0.00    +0.381 N 
ATOM     31  C   UNL     1      -4.807   8.565  -0.170  0.00  0.00    -0.067 C 
ATOM     32  C   UNL     1      -3.456   7.856  -0.041  0.00  0.00    +0.065 C 
ATOM     33  H   UNL     1      -6.707   8.533   0.722  0.00  0.00    -0.086 HD
ATOM     34  H   UNL     1      -5.332   8.207   1.831  0.00  0.00    -0.086 HD
ENDBRANCH  26  27
ENDBRANCH  25  26
ENDBRANCH  23  25
ENDBRANCH   1  21
TORSDOF 8
