REMARK  Name = ZINC12888873
REMARK  8 active torsions:
REMARK  status: ('A' for Active; 'I' for Inactive)
REMARK    1  A    between atoms: C_1  and  S_2
REMARK    2  A    between atoms: S_2  and  C_3
REMARK    3  A    between atoms: C_3  and  C_4
REMARK    4  A    between atoms: C_4  and  C_5
REMARK    5  A    between atoms: C_5  and  C_7
REMARK    6  A    between atoms: C_5  and  N_16
REMARK    7  A    between atoms: N_9  and  C_10
REMARK    8  A    between atoms: C_17  and  C_19
REMARK                            x       y       z     vdW  Elec       q    Type
REMARK                         _______ _______ _______ _____ _____    ______ ____
ROOT
ATOM      1  C   UNL     1      -4.769   0.335  -0.467  0.00  0.00    +0.167 C 
ATOM      2  C   UNL     1      -4.390  -0.884  -1.320  0.00  0.00    +0.069 C 
ATOM      3  C   UNL     1      -4.590  -0.581  -2.783  0.00  0.00    -0.015 A 
ATOM      4  C   UNL     1      -4.079  -1.336  -3.913  0.00  0.00    +0.003 A 
ATOM      5  C   UNL     1      -3.293  -2.489  -3.998  0.00  0.00    +0.010 A 
ATOM      6  C   UNL     1      -2.991  -2.942  -5.259  0.00  0.00    +0.001 A 
ATOM      7  C   UNL     1      -3.438  -2.294  -6.399  0.00  0.00    +0.002 A 
ATOM      8  C   UNL     1      -4.217  -1.151  -6.343  0.00  0.00    +0.026 A 
ATOM      9  C   UNL     1      -4.539  -0.669  -5.076  0.00  0.00    +0.047 A 
ATOM     10  N   UNL     1      -5.272   0.406  -4.664  0.00  0.00    -0.356 N 
ATOM     11  H   UNL     1      -5.712   1.040  -5.251  0.00  0.00    +0.166 HD
ATOM     12  C   UNL     1      -5.291   0.455  -3.296  0.00  0.00    +0.046 A 
ATOM     13  C   UNL     1      -5.973   1.491  -2.436  0.00  0.00    +0.155 C 
ATOM     14  N   UNL     1      -5.965   0.944  -1.058  0.00  0.00    -0.273 N 
ATOM     15  C   UNL     1      -7.192   1.076  -0.541  0.00  0.00    +0.248 C 
ATOM     16  O   UNL     1      -7.479   0.914   0.629  0.00  0.00    -0.270 OA
ATOM     17  C   UNL     1      -8.137   1.446  -1.599  0.00  0.00    +0.042 A 
ATOM     18  C   UNL     1      -7.410   1.675  -2.785  0.00  0.00    -0.009 A 
ATOM     19  C   UNL     1      -8.041   1.999  -3.965  0.00  0.00    +0.006 A 
ATOM     20  C   UNL     1      -9.428   2.106  -3.933  0.00  0.00    +0.000 A 
ATOM     21  C   UNL     1     -10.148   1.899  -2.773  0.00  0.00    +0.001 A 
ATOM     22  C   UNL     1      -9.529   1.564  -1.578  0.00  0.00    +0.013 A 
ENDROOT
BRANCH   1  24
ATOM     23  N   UNL     1      -2.430   0.977   0.019  0.00  0.00    -0.302 N 
ATOM     24  C   UNL     1      -3.637   1.330  -0.467  0.00  0.00    +0.235 C 
ATOM     25  O   UNL     1      -3.812   2.447  -0.904  0.00  0.00    -0.274 OA
ATOM     26  H   UNL     1      -2.290   0.083   0.368  0.00  0.00    +0.150 HD
BRANCH  23  27
ATOM     27  C   UNL     1      -1.330   1.944   0.019  0.00  0.00    +0.160 C 
BRANCH  27  28
ATOM     28  C   UNL     1      -0.014   1.209   0.009  0.00  0.00    +0.234 C 
ATOM     29  O   UNL     1       0.002  -0.004   0.002  0.00  0.00    -0.274 OA
ATOM     30  N   UNL     1       1.143   1.898   0.001  0.00  0.00    -0.311 N 
ATOM     31  H   UNL     1       1.130   2.868   0.007  0.00  0.00    +0.149 HD
BRANCH  30  32
ATOM     32  C   UNL     1       2.422   1.183  -0.015  0.00  0.00    +0.073 C 
ATOM     33  C   UNL     1       2.819   0.817   1.417  0.00  0.00    +0.022 C 
ATOM     34  C   UNL     1       4.155   0.070   1.400  0.00  0.00    +0.002 C 
ATOM     35  C   UNL     1       5.232   0.965   0.785  0.00  0.00    +0.000 C 
ATOM     36  C   UNL     1       4.835   1.332  -0.647  0.00  0.00    +0.002 C 
ATOM     37  C   UNL     1       3.499   2.078  -0.630  0.00  0.00    +0.022 C 
ENDBRANCH  30  32
ENDBRANCH  27  28
BRANCH  27  38
ATOM     38  C   UNL     1      -1.417   2.816   1.273  0.00  0.00    +0.042 C 
BRANCH  38  39
ATOM     39  C   UNL     1      -2.694   3.656   1.223  0.00  0.00    +0.071 C 
BRANCH  39  41
ATOM     40  C   UNL     1      -4.346   5.611   2.498  0.00  0.00    +0.084 C 
ATOM     41  S   UNL     1      -2.797   4.690   2.710  0.00  0.00    -0.164 S 
ENDBRANCH  39  41
ENDBRANCH  38  39
ENDBRANCH  27  38
ENDBRANCH  23  27
ENDBRANCH   1  24
TORSDOF 7
