REMARK  Name = ZINC59427107
REMARK  7 active torsions:
REMARK  status: ('A' for Active; 'I' for Inactive)
REMARK    1  A    between atoms: C_1  and  C_2
REMARK    2  A    between atoms: C_4  and  C_17
REMARK    3  A    between atoms: C_5  and  C_16
REMARK    4  A    between atoms: N_6  and  C_7
REMARK    5  A    between atoms: C_11  and  N_13
REMARK    6  A    between atoms: N_18  and  C_19
REMARK    7  A    between atoms: C_23  and  O_25
REMARK                            x       y       z     vdW  Elec       q    Type
REMARK                         _______ _______ _______ _____ _____    ______ ____
ROOT
ATOM      1  C   UNL     1      -0.018   1.503   0.010  0.00  0.00    +0.064 C 
ATOM      2  C   UNL     1       0.002  -0.004   0.002  0.00  0.00    +0.022 A 
ATOM      3  C   UNL     1       0.008  -0.777  -1.098  0.00  0.00    +0.032 A 
ATOM      4  C   UNL     1       0.029  -2.169  -0.631  0.00  0.00    +0.014 A 
ATOM      5  C   UNL     1       0.034  -2.109   0.747  0.00  0.00    +0.030 A 
ATOM      6  N   UNL     1       0.023  -0.802   1.111  0.00  0.00    -0.317 N 
ATOM      7  C   UNL     1       0.054  -3.289   1.684  0.00  0.00    +0.064 C 
ENDROOT
BRANCH   6   8
ATOM      8  C   UNL     1       0.030  -0.338   2.433  0.00  0.00    +0.049 A 
ATOM      9  C   UNL     1       1.133  -0.566   3.246  0.00  0.00    +0.026 A 
ATOM     10  C   UNL     1       1.136  -0.107   4.548  0.00  0.00    +0.004 A 
ATOM     11  C   UNL     1       0.042   0.580   5.043  0.00  0.00    +0.033 A 
ATOM     12  C   UNL     1      -1.057   0.808   4.237  0.00  0.00    +0.128 A 
ATOM     13  C   UNL     1      -1.064   0.357   2.932  0.00  0.00    +0.058 A 
BRANCH  12  14
ATOM     14  N   UNL     1      -2.226   1.543   4.771  0.00  0.00    +0.056 N 
ATOM     15  O   UNL     1      -2.219   1.943   5.912  0.00  0.00    -0.126 OA
ATOM     16  O   UNL     1      -3.188   1.743   4.067  0.00  0.00    -0.126 OA
ENDBRANCH  12  14
ENDBRANCH   6   8
BRANCH   4  17
ATOM     17  C   UNL     1       0.041  -3.379  -1.463  0.00  0.00    +0.121 C 
ATOM     18  N   UNL     1       0.059  -4.557  -0.901  0.00  0.00    -0.255 NA
BRANCH  18  19
ATOM     19  C   UNL     1       0.070  -5.685  -1.676  0.00  0.00    +0.067 A 
ATOM     20  C   UNL     1      -0.783  -5.788  -2.777  0.00  0.00    +0.028 A 
ATOM     21  C   UNL     1      -0.769  -6.927  -3.556  0.00  0.00    +0.006 A 
ATOM     22  C   UNL     1       0.088  -7.968  -3.250  0.00  0.00    +0.045 A 
ATOM     23  C   UNL     1       0.941  -7.875  -2.158  0.00  0.00    +0.119 A 
ATOM     24  C   UNL     1       0.939  -6.734  -1.373  0.00  0.00    +0.073 A 
BRANCH  23  25
ATOM     25  O   UNL     1       1.781  -8.901  -1.863  0.00  0.00    -0.507 OA
ATOM     26  H   UNL     1       2.645  -8.838  -2.293  0.00  0.00    +0.292 HD
ENDBRANCH  23  25
ENDBRANCH  18  19
ENDBRANCH   4  17
TORSDOF 5
