REMARK  Name = ZINC40320749
REMARK  6 active torsions:
REMARK  status: ('A' for Active; 'I' for Inactive)
REMARK    1  A    between atoms: C_1  and  C_2
REMARK    2  A    between atoms: C_5  and  N_26
REMARK    3  A    between atoms: C_7  and  N_8
REMARK    4  A    between atoms: C_9  and  C_11
REMARK    5  A    between atoms: C_14  and  S_16
REMARK    6  A    between atoms: S_16  and  C_19
REMARK                            x       y       z     vdW  Elec       q    Type
REMARK                         _______ _______ _______ _____ _____    ______ ____
ROOT
ATOM      1  C   UNL     1      -0.164   0.031   4.846  0.00  0.00    +0.192 A 
ATOM      2  C   UNL     1      -0.247  -0.530   6.088  0.00  0.00    +0.056 A 
ATOM      3  C   UNL     1      -0.335   0.528   7.005  0.00  0.00    +0.070 A 
ATOM      4  C   UNL     1      -0.300   1.676   6.292  0.00  0.00    +0.246 A 
ATOM      5  O   UNL     1      -0.192   1.372   4.992  0.00  0.00    -0.433 OA
ENDROOT
BRANCH   1   7
ATOM      6  N   UNL     1       0.026  -0.015   2.416  0.00  0.00    -0.279 N 
ATOM      7  C   UNL     1      -0.056  -0.695   3.577  0.00  0.00    +0.284 C 
ATOM      8  O   UNL     1      -0.040  -1.912   3.572  0.00  0.00    -0.266 OA
ATOM      9  H   UNL     1       0.079   0.953   2.424  0.00  0.00    +0.155 HD
BRANCH   6  16
ATOM     10  C   UNL     1      -1.266   1.183   0.182  0.00  0.00    +0.045 C 
ATOM     11  C   UNL     1      -0.585  -0.158   0.085  0.00  0.00    -0.029 A 
ATOM     12  C   UNL     1      -0.570  -0.840  -1.116  0.00  0.00    +0.007 A 
ATOM     13  C   UNL     1       0.054  -2.071  -1.206  0.00  0.00    +0.033 A 
ATOM     14  C   UNL     1       0.666  -2.622  -0.095  0.00  0.00    +0.128 A 
ATOM     15  C   UNL     1       0.655  -1.945   1.108  0.00  0.00    +0.056 A 
ATOM     16  C   UNL     1       0.033  -0.706   1.201  0.00  0.00    +0.039 A 
BRANCH  14  17
ATOM     17  N   UNL     1       1.333  -3.939  -0.197  0.00  0.00    +0.056 N 
ATOM     18  O   UNL     1       1.343  -4.533  -1.250  0.00  0.00    -0.126 OA
ATOM     19  O   UNL     1       1.868  -4.422   0.774  0.00  0.00    -0.126 OA
ENDBRANCH  14  17
ENDBRANCH   6  16
ENDBRANCH   1   7
BRANCH   4  20
ATOM     20  S   UNL     1      -0.380   3.303   6.963  0.00  0.00    +0.058 S 
ATOM     21  O   UNL     1      -0.868   4.146   5.928  0.00  0.00    -0.161 OA
ATOM     22  O   UNL     1      -1.026   3.192   8.223  0.00  0.00    -0.161 OA
BRANCH  20  23
ATOM     23  C   UNL     1       1.275   3.814   7.288  0.00  0.00    +0.097 A 
ATOM     24  C   UNL     1       1.850   3.551   8.517  0.00  0.00    +0.029 A 
ATOM     25  C   UNL     1       3.148   3.951   8.773  0.00  0.00    +0.022 A 
ATOM     26  C   UNL     1       3.872   4.615   7.799  0.00  0.00    +0.041 A 
ATOM     27  C   UNL     1       3.296   4.878   6.569  0.00  0.00    +0.022 A 
ATOM     28  C   UNL     1       2.000   4.472   6.312  0.00  0.00    +0.029 A 
ATOM     29 CL   UNL     1       5.502   5.118   8.120  0.00  0.00    -0.084 Cl
ENDBRANCH  20  23
ENDBRANCH   4  20
TORSDOF 5
