REMARK  Name = ZINC13402229
REMARK  14 active torsions:
REMARK  status: ('A' for Active; 'I' for Inactive)
REMARK    1  A    between atoms: C_1  and  C_2
REMARK    2  A    between atoms: C_2  and  O_3
REMARK    3  A    between atoms: O_3  and  C_4
REMARK    4  A    between atoms: C_4  and  C_6
REMARK    5  A    between atoms: C_7  and  C_33
REMARK    6  A    between atoms: C_8  and  C_13
REMARK    7  A    between atoms: C_9  and  C_12
REMARK    8  A    between atoms: C_13  and  C_15
REMARK    9  A    between atoms: C_15  and  S_16
REMARK   10  A    between atoms: S_16  and  C_17
REMARK   11  A    between atoms: C_20  and  C_26
REMARK   12  A    between atoms: N_21  and  C_22
REMARK   13  A    between atoms: C_22  and  C_23
REMARK   14  A    between atoms: C_29  and  C_32
REMARK                            x       y       z     vdW  Elec       q    Type
REMARK                         _______ _______ _______ _____ _____    ______ ____
ROOT
ATOM      1  S   UNL     1       3.563  -6.605  -6.817  0.00  0.00    -0.078 S 
ENDROOT
BRANCH   1   2
ATOM      2  C   UNL     1       4.342  -6.277  -8.363  0.00  0.00    +0.193 A 
ATOM      3  N   UNL     1       4.490  -5.099  -8.927  0.00  0.00    -0.122 NA
ATOM      4  N   UNL     1       5.103  -5.221 -10.050  0.00  0.00    -0.128 NA
ATOM      5  C   UNL     1       5.383  -6.484 -10.273  0.00  0.00    +0.165 A 
ATOM      6  N   UNL     1       4.910  -7.198  -9.196  0.00  0.00    -0.291 N 
BRANCH   5   7
ATOM      7  C   UNL     1       6.081  -7.034 -11.454  0.00  0.00    +0.019 A 
ATOM      8  C   UNL     1       6.850  -6.199 -12.266  0.00  0.00    +0.012 A 
ATOM      9  C   UNL     1       7.499  -6.719 -13.367  0.00  0.00    +0.004 A 
ATOM     10  C   UNL     1       7.389  -8.065 -13.666  0.00  0.00    -0.050 A 
ATOM     11  C   UNL     1       6.628  -8.898 -12.866  0.00  0.00    +0.004 A 
ATOM     12  C   UNL     1       5.979  -8.392 -11.759  0.00  0.00    +0.012 A 
ATOM     13  C   UNL     1       8.101  -8.626 -14.870  0.00  0.00    +0.044 C 
ENDBRANCH   5   7
BRANCH   6  14
ATOM     14  C   UNL     1       4.995  -8.646  -8.988  0.00  0.00    +0.250 C 
BRANCH  14  15
ATOM     15  C   UNL     1       3.763  -9.307  -9.550  0.00  0.00    +0.375 C 
ATOM     16  O   UNL     1       2.894  -8.632 -10.076  0.00  0.00    -0.244 OA
ATOM     17  O   UNL     1       3.634 -10.518  -9.479  0.00  0.00    -0.244 OA
ENDBRANCH  14  15
ENDBRANCH   6  14
ENDBRANCH   1   2
BRANCH   1  18
ATOM     18  C   UNL     1       3.034  -4.970  -6.236  0.00  0.00    +0.157 C 
BRANCH  18  19
ATOM     19  C   UNL     1       2.344  -5.110  -4.904  0.00  0.00    +0.175 C 
ATOM     20  O   UNL     1       2.306  -6.189  -4.350  0.00  0.00    -0.291 OA
BRANCH  19  23
ATOM     21  C   UNL     1       0.240  -2.360  -3.727  0.00  0.00    +0.128 A 
ATOM     22  C   UNL     1       0.409  -3.458  -4.517  0.00  0.00    -0.008 A 
ATOM     23  C   UNL     1       1.717  -3.942  -4.277  0.00  0.00    +0.042 A 
ATOM     24  C   UNL     1       2.294  -3.102  -3.337  0.00  0.00    +0.024 A 
ATOM     25  N   UNL     1       1.403  -2.152  -3.016  0.00  0.00    -0.352 N 
ATOM     26  H   UNL     1       1.553  -1.433  -2.382  0.00  0.00    +0.166 HD
ATOM     27  C   UNL     1       3.686  -3.231  -2.775  0.00  0.00    +0.064 C 
ATOM     28  C   UNL     1      -0.605  -4.045  -5.464  0.00  0.00    +0.047 C 
BRANCH  21  29
ATOM     29  C   UNL     1      -0.971  -1.536  -3.650  0.00  0.00    +0.356 C 
ATOM     30  O   UNL     1      -1.941  -1.816  -4.328  0.00  0.00    -0.243 OA
BRANCH  29  31
ATOM     31  O   UNL     1      -1.008  -0.467  -2.829  0.00  0.00    -0.460 OA
BRANCH  31  33
ATOM     32  C   UNL     1      -2.074   1.455  -1.823  0.00  0.00    +0.048 C 
ATOM     33  C   UNL     1      -2.220   0.291  -2.805  0.00  0.00    +0.229 C 
ENDBRANCH  31  33
ENDBRANCH  29  31
ENDBRANCH  21  29
ENDBRANCH  19  23
ENDBRANCH  18  19
ENDBRANCH   1  18
TORSDOF 10
