REMARK  Name = ZINC16311296
REMARK  10 active torsions:
REMARK  status: ('A' for Active; 'I' for Inactive)
REMARK    1  A    between atoms: C_1  and  C_2
REMARK    2  A    between atoms: C_5  and  C_8
REMARK    3  A    between atoms: C_11  and  S_19
REMARK    4  A    between atoms: N_12  and  C_13
REMARK    5  A    between atoms: S_19  and  C_20
REMARK    6  A    between atoms: C_20  and  C_21
REMARK    7  A    between atoms: N_23  and  N_24
REMARK    8  A    between atoms: N_24  and  C_25
REMARK    9  A    between atoms: C_25  and  N_27
REMARK   10  A    between atoms: N_27  and  C_28
REMARK                            x       y       z     vdW  Elec       q    Type
REMARK                         _______ _______ _______ _____ _____    ______ ____
ROOT
ATOM      1  S   UNL     1       5.290  -2.982   1.595  0.00  0.00    -0.077 S 
ENDROOT
BRANCH   1   5
ATOM      2  C   UNL     1       5.111  -6.856   2.064  0.00  0.00    +0.165 A 
ATOM      3  N   UNL     1       3.845  -6.515   1.999  0.00  0.00    -0.128 NA
ATOM      4  N   UNL     1       3.740  -5.243   1.847  0.00  0.00    -0.122 NA
ATOM      5  C   UNL     1       4.934  -4.695   1.797  0.00  0.00    +0.193 A 
ATOM      6  N   UNL     1       5.847  -5.701   1.937  0.00  0.00    -0.299 N 
BRANCH   2  11
ATOM      7  C   UNL     1       7.188 -12.178   2.755  0.00  0.00    +0.044 C 
ATOM      8  C   UNL     1       6.644 -10.785   2.574  0.00  0.00    -0.050 A 
ATOM      9  C   UNL     1       5.428 -10.441   3.139  0.00  0.00    +0.004 A 
ATOM     10  C   UNL     1       4.925  -9.167   2.977  0.00  0.00    +0.012 A 
ATOM     11  C   UNL     1       5.644  -8.223   2.242  0.00  0.00    +0.019 A 
ATOM     12  C   UNL     1       6.867  -8.578   1.670  0.00  0.00    +0.012 A 
ATOM     13  C   UNL     1       7.362  -9.854   1.844  0.00  0.00    +0.004 A 
ENDBRANCH   2  11
BRANCH   6  14
ATOM     14  C   UNL     1       7.307  -5.576   1.948  0.00  0.00    +0.091 C 
ATOM     15  C   UNL     1       7.725  -4.588   3.039  0.00  0.00    +0.025 C 
ATOM     16  C   UNL     1       9.250  -4.458   3.051  0.00  0.00    +0.002 C 
ATOM     17  C   UNL     1       9.729  -3.949   1.690  0.00  0.00    +0.000 C 
ATOM     18  C   UNL     1       9.310  -4.937   0.600  0.00  0.00    +0.002 C 
ATOM     19  C   UNL     1       7.786  -5.067   0.588  0.00  0.00    +0.025 C 
ENDBRANCH   6  14
ENDBRANCH   1   5
BRANCH   1  20
ATOM     20  C   UNL     1       3.608  -2.323   1.483  0.00  0.00    +0.174 C 
BRANCH  20  21
ATOM     21  C   UNL     1       3.665  -0.828   1.301  0.00  0.00    +0.239 C 
ATOM     22  O   UNL     1       4.737  -0.263   1.253  0.00  0.00    -0.273 OA
ATOM     23  N   UNL     1       2.524  -0.118   1.193  0.00  0.00    -0.234 N 
ATOM     24  H   UNL     1       1.667  -0.569   1.232  0.00  0.00    +0.173 HD
BRANCH  23  25
ATOM     25  N   UNL     1       2.578   1.272   1.025  0.00  0.00    -0.246 N 
ATOM     26  H   UNL     1       3.435   1.723   0.986  0.00  0.00    +0.172 HD
BRANCH  25  27
ATOM     27  C   UNL     1       1.437   1.982   0.917  0.00  0.00    +0.151 C 
ATOM     28  S   UNL     1       1.502   3.680   0.711  0.00  0.00    -0.017 S 
BRANCH  27  29
ATOM     29  N   UNL     1       0.245   1.355   0.971  0.00  0.00    -0.296 N 
ATOM     30  H   UNL     1       0.208   0.387   1.025  0.00  0.00    +0.154 HD
BRANCH  29  31
ATOM     31  C   UNL     1      -0.939   2.099   0.943  0.00  0.00    +0.033 A 
ATOM     32  C   UNL     1      -1.966   1.807   1.831  0.00  0.00    +0.025 A 
ATOM     33  C   UNL     1      -3.132   2.546   1.804  0.00  0.00    +0.022 A 
ATOM     34  C   UNL     1      -3.282   3.571   0.887  0.00  0.00    +0.041 A 
ATOM     35  C   UNL     1      -2.262   3.862  -0.002  0.00  0.00    +0.022 A 
ATOM     36  C   UNL     1      -1.092   3.129   0.023  0.00  0.00    +0.025 A 
ATOM     37 CL   UNL     1      -4.751   4.495   0.852  0.00  0.00    -0.084 Cl
ENDBRANCH  29  31
ENDBRANCH  27  29
ENDBRANCH  25  27
ENDBRANCH  23  25
ENDBRANCH  20  21
ENDBRANCH   1  20
TORSDOF 9
