REMARK  Name = ZINC17078811
REMARK  7 active torsions:
REMARK  status: ('A' for Active; 'I' for Inactive)
REMARK    1  A    between atoms: C_1  and  O_2
REMARK    2  A    between atoms: O_2  and  C_3
REMARK    3  A    between atoms: C_3  and  C_5
REMARK    4  A    between atoms: C_9  and  N_10
REMARK    5  A    between atoms: C_11  and  C_13
REMARK    6  A    between atoms: C_14  and  C_15
REMARK    7  A    between atoms: C_18  and  N_21
REMARK                            x       y       z     vdW  Elec       q    Type
REMARK                         _______ _______ _______ _____ _____    ______ ____
ROOT
ATOM      1  N   UNL     1       0.345   0.980   1.442  0.00  0.00    -0.276 N 
ATOM      2  C   UNL     1       1.466   1.637   1.087  0.00  0.00    +0.241 C 
ATOM      3  O   UNL     1       1.602   2.811   1.379  0.00  0.00    -0.270 OA
ATOM      4  H   UNL     1       0.236   0.044   1.208  0.00  0.00    +0.156 HD
ENDROOT
BRANCH   1   9
ATOM      5  C   UNL     1      -1.875   1.142   2.574  0.00  0.00    +0.091 A 
ATOM      6  C   UNL     1      -2.754   2.053   3.288  0.00  0.00    -0.021 A 
ATOM      7  C   UNL     1      -2.280   3.309   3.440  0.00  0.00    -0.004 A 
ATOM      8  S   UNL     1      -0.692   3.292   2.658  0.00  0.00    -0.077 S 
ATOM      9  C   UNL     1      -0.655   1.640   2.134  0.00  0.00    +0.087 A 
ATOM     10  C   UNL     1      -2.961   4.455   4.123  0.00  0.00    +0.043 C 
ATOM     11  C   UNL     1      -4.444   4.098   4.304  0.00  0.00    +0.005 C 
ATOM     12  C   UNL     1      -4.544   2.686   4.887  0.00  0.00    +0.005 C 
ATOM     13  C   UNL     1      -4.119   1.658   3.837  0.00  0.00    +0.037 C 
BRANCH   5  14
ATOM     14  C   UNL     1      -2.261  -0.249   2.329  0.00  0.00    +0.342 C 
ATOM     15  O   UNL     1      -1.977  -1.110   3.139  0.00  0.00    -0.245 OA
BRANCH  14  17
ATOM     16  C   UNL     1      -3.279  -1.974   1.027  0.00  0.00    +0.280 C 
ATOM     17  O   UNL     1      -2.930  -0.576   1.204  0.00  0.00    -0.464 OA
ENDBRANCH  14  17
ENDBRANCH   5  14
ENDBRANCH   1   9
BRANCH   2  18
ATOM     18  C   UNL     1       2.521   0.940   0.349  0.00  0.00    +0.068 C 
ATOM     19  C   UNL     1       3.579   1.628  -0.125  0.00  0.00    +0.013 C 
BRANCH  19  20
ATOM     20  C   UNL     1       3.564   3.100  -0.117  0.00  0.00    -0.025 A 
ATOM     21  C   UNL     1       2.419   3.793  -0.522  0.00  0.00    +0.010 A 
ATOM     22  C   UNL     1       2.411   5.172  -0.506  0.00  0.00    +0.033 A 
ATOM     23  C   UNL     1       3.536   5.870  -0.102  0.00  0.00    +0.126 A 
ATOM     24  C   UNL     1       4.675   5.191   0.294  0.00  0.00    +0.033 A 
ATOM     25  C   UNL     1       4.697   3.812   0.289  0.00  0.00    +0.010 A 
BRANCH  23  26
ATOM     26  N   UNL     1       3.520   7.350  -0.094  0.00  0.00    +0.056 N 
ATOM     27  O   UNL     1       4.509   7.967   0.261  0.00  0.00    -0.126 OA
ATOM     28  O   UNL     1       2.519   7.950  -0.441  0.00  0.00    -0.126 OA
ENDBRANCH  23  26
ENDBRANCH  19  20
ENDBRANCH   2  18
TORSDOF 6
