REMARK  Name = ZINC12780161
REMARK  5 active torsions:
REMARK  status: ('A' for Active; 'I' for Inactive)
REMARK    1  A    between atoms: C_3  and  N_10
REMARK    2  A    between atoms: C_5  and  N_7
REMARK    3  A    between atoms: C_11  and  C_13
REMARK    4  A    between atoms: C_13  and  C_14
REMARK    5  A    between atoms: C_14  and  N_15
REMARK                            x       y       z     vdW  Elec       q    Type
REMARK                         _______ _______ _______ _____ _____    ______ ____
ROOT
ATOM      1  C   UNL     1      -8.540   2.052   0.371  0.00  0.00    +0.135 C 
ENDROOT
BRANCH   1   2
ATOM      2  N   UNL     1      -9.793   1.300   0.484  0.00  0.00    -0.298 N 
ATOM      3  C   UNL     1     -10.473   0.969  -0.643  0.00  0.00    +0.203 A 
ATOM      4  N   UNL     1     -11.591   0.295  -0.585  0.00  0.00    -0.230 NA
ATOM      5  C   UNL     1     -12.103  -0.079   0.584  0.00  0.00    +0.116 A 
ATOM      6  C   UNL     1     -11.475   0.222   1.803  0.00  0.00    +0.076 A 
ATOM      7  C   UNL     1     -10.248   0.957   1.703  0.00  0.00    +0.262 A 
ATOM      8  O   UNL     1      -9.628   1.266   2.706  0.00  0.00    -0.267 OA
ATOM      9  C   UNL     1     -12.154  -0.253   3.007  0.00  0.00    -0.023 A 
ATOM     10  C   UNL     1     -13.309  -0.929   2.833  0.00  0.00    -0.004 A 
ATOM     11  S   UNL     1     -13.555  -0.972   1.078  0.00  0.00    -0.073 S 
ATOM     12  C   UNL     1     -14.187  -1.514   3.896  0.00  0.00    +0.043 C 
ATOM     13  C   UNL     1     -13.394  -1.558   5.210  0.00  0.00    +0.005 C 
ATOM     14  C   UNL     1     -12.724  -0.197   5.425  0.00  0.00    +0.005 C 
ATOM     15  C   UNL     1     -11.599  -0.005   4.408  0.00  0.00    +0.037 C 
ENDBRANCH   1   2
BRANCH   1  16
ATOM     16  C   UNL     1      -7.368   1.076   0.259  0.00  0.00    +0.118 C 
BRANCH  16  18
ATOM     17  N   UNL     1      -4.907   1.194   0.032  0.00  0.00    -0.285 N 
ATOM     18  C   UNL     1      -6.080   1.850   0.143  0.00  0.00    +0.219 C 
ATOM     19  O   UNL     1      -6.098   3.062   0.150  0.00  0.00    -0.275 OA
ATOM     20  H   UNL     1      -4.898   0.228  -0.050  0.00  0.00    +0.155 HD
BRANCH  17  23
ATOM     21  C   UNL     1      -1.439   2.164  -0.711  0.00  0.00    +0.004 A 
ATOM     22  C   UNL     1      -2.626   1.458  -0.716  0.00  0.00    +0.023 A 
ATOM     23  C   UNL     1      -3.704   1.907   0.036  0.00  0.00    +0.036 A 
ATOM     24  C   UNL     1      -3.584   3.067   0.791  0.00  0.00    +0.056 A 
ATOM     25  C   UNL     1      -2.395   3.769   0.792  0.00  0.00    +0.128 A 
ATOM     26  C   UNL     1      -1.325   3.321   0.037  0.00  0.00    +0.033 A 
BRANCH  25  27
ATOM     27  N   UNL     1      -2.266   5.005   1.596  0.00  0.00    +0.056 N 
ATOM     28  O   UNL     1      -3.209   5.402   2.257  0.00  0.00    -0.126 OA
ATOM     29  O   UNL     1      -1.216   5.622   1.601  0.00  0.00    -0.126 OA
ENDBRANCH  25  27
ENDBRANCH  17  23
ENDBRANCH  16  18
ENDBRANCH   1  16
TORSDOF 5
