REMARK  Name = ZINC39353302
REMARK  7 active torsions:
REMARK  status: ('A' for Active; 'I' for Inactive)
REMARK    1  A    between atoms: C_1  and  C_2
REMARK    2  A    between atoms: C_5  and  C_8
REMARK    3  A    between atoms: C_12  and  S_18
REMARK    4  A    between atoms: N_14  and  C_15
REMARK    5  A    between atoms: C_15  and  C_16
REMARK    6  A    between atoms: S_18  and  C_19
REMARK    7  A    between atoms: C_19  and  C_20
REMARK                            x       y       z     vdW  Elec       q    Type
REMARK                         _______ _______ _______ _____ _____    ______ ____
ROOT
ATOM      1  C   UNL     1      -0.019  -4.278  -0.057  0.00  0.00    +0.050 C 
ATOM      2  N   UNL     1      -0.890  -4.841  -1.114  0.00  0.00    -0.267 NA
ATOM      3  N   UNL     1      -1.460  -6.057  -0.512  0.00  0.00    -0.262 NA
ATOM      4  C   UNL     1      -1.691  -5.656   0.900  0.00  0.00    +0.078 C 
ATOM      5  N   UNL     1      -0.529  -4.796   1.230  0.00  0.00    +0.413 N 
ATOM      6  H   UNL     1      -1.617  -4.189  -1.369  0.00  0.00    +0.139 HD
ATOM      7  H   UNL     1      -2.326  -6.311  -0.963  0.00  0.00    +0.140 HD
ATOM      8  H   UNL     1       0.184  -5.340   1.692  0.00  0.00    -0.075 HD
ENDROOT
BRANCH   1  13
ATOM      9  C   UNL     1      -0.305   1.493  -0.117  0.00  0.00    +0.044 C 
ATOM     10  C   UNL     1      -0.231  -0.012  -0.101  0.00  0.00    -0.050 A 
ATOM     11  C   UNL     1      -1.390  -0.762  -0.167  0.00  0.00    +0.003 A 
ATOM     12  C   UNL     1      -1.321  -2.143  -0.153  0.00  0.00    +0.003 A 
ATOM     13  C   UNL     1      -0.094  -2.773  -0.073  0.00  0.00    -0.046 A 
ATOM     14  C   UNL     1       1.065  -2.023  -0.009  0.00  0.00    +0.003 A 
ATOM     15  C   UNL     1       0.997  -0.642  -0.027  0.00  0.00    +0.003 A 
ENDBRANCH   1  13
BRANCH   5  16
ATOM     16  C   UNL     1      -0.953  -3.683   2.089  0.00  0.00    -0.045 C 
BRANCH  16  17
ATOM     17  C   UNL     1      -1.322  -4.212   3.451  0.00  0.00    -0.053 C 
ATOM     18  C   UNL     1      -0.747  -3.722   4.522  0.00  0.00    +0.002 C 
ENDBRANCH  16  17
ENDBRANCH   5  16
BRANCH   4  19
ATOM     19  S   UNL     1      -1.730  -7.115   1.976  0.00  0.00    -0.152 S 
BRANCH  19  20
ATOM     20  C   UNL     1      -0.112  -7.894   1.719  0.00  0.00    +0.143 C 
BRANCH  20  21
ATOM     21  C   UNL     1      -0.011  -9.135   2.567  0.00  0.00    +0.120 A 
ATOM     22  N   UNL     1       1.138  -9.859   2.516  0.00  0.00    -0.310 N 
ATOM     23  H   UNL     1       1.864  -9.568   1.942  0.00  0.00    +0.170 HD
ATOM     24  C   UNL     1       1.278 -10.982   3.258  0.00  0.00    +0.259 A 
ATOM     25  O   UNL     1       2.302 -11.639   3.223  0.00  0.00    -0.267 OA
ATOM     26  C   UNL     1       0.146 -11.376   4.110  0.00  0.00    +0.065 A 
ATOM     27  C   UNL     1       0.189 -12.515   4.912  0.00  0.00    +0.015 A 
ATOM     28  C   UNL     1      -0.901 -12.838   5.690  0.00  0.00    +0.001 A 
ATOM     29  C   UNL     1      -2.038 -12.040   5.680  0.00  0.00    +0.002 A 
ATOM     30  C   UNL     1      -2.100 -10.911   4.895  0.00  0.00    +0.028 A 
ATOM     31  C   UNL     1      -1.008 -10.562   4.097  0.00  0.00    +0.078 A 
ATOM     32  N   UNL     1      -1.024  -9.456   3.312  0.00  0.00    -0.233 NA
ENDBRANCH  20  21
ENDBRANCH  19  20
ENDBRANCH   4  19
TORSDOF 6
