REMARK  Name = ZINC36538910
REMARK  7 active torsions:
REMARK  status: ('A' for Active; 'I' for Inactive)
REMARK    1  A    between atoms: C_1  and  N_2
REMARK    2  A    between atoms: N_2  and  C_3
REMARK    3  A    between atoms: C_3  and  C_5
REMARK    4  A    between atoms: C_3  and  C_14
REMARK    5  A    between atoms: C_8  and  N_11
REMARK    6  A    between atoms: N_16  and  C_17
REMARK    7  A    between atoms: C_23  and  C_25
REMARK                            x       y       z     vdW  Elec       q    Type
REMARK                         _______ _______ _______ _____ _____    ______ ____
ROOT
ATOM      1  C   UNL     1      -0.035  -1.009   1.079  0.00  0.00    +0.192 C 
ENDROOT
BRANCH   1   2
ATOM      2  C   UNL     1      -1.317  -0.863   1.858  0.00  0.00    -0.018 A 
ATOM      3  C   UNL     1      -1.367  -0.025   2.956  0.00  0.00    +0.008 A 
ATOM      4  C   UNL     1      -2.542   0.109   3.670  0.00  0.00    +0.033 A 
ATOM      5  C   UNL     1      -3.668  -0.595   3.286  0.00  0.00    +0.126 A 
ATOM      6  C   UNL     1      -3.619  -1.432   2.188  0.00  0.00    +0.033 A 
ATOM      7  C   UNL     1      -2.444  -1.563   1.471  0.00  0.00    +0.008 A 
BRANCH   5   8
ATOM      8  N   UNL     1      -4.927  -0.452   4.052  0.00  0.00    +0.056 N 
ATOM      9  O   UNL     1      -4.971   0.280   5.013  0.00  0.00    -0.126 OA
ATOM     10  O   UNL     1      -5.912  -1.068   3.716  0.00  0.00    -0.126 OA
ENDBRANCH   5   8
ENDBRANCH   1   2
BRANCH   1  12
ATOM     11  C   UNL     1       0.076   1.512   0.820  0.00  0.00    +0.133 C 
ATOM     12  N   UNL     1       0.161   0.172   0.235  0.00  0.00    -0.285 N 
ATOM     13  C   UNL     1       0.419   0.025  -1.080  0.00  0.00    +0.249 C 
ATOM     14  O   UNL     1       0.671   0.999  -1.762  0.00  0.00    -0.270 OA
BRANCH  13  15
ATOM     15  C   UNL     1       0.397  -1.320  -1.692  0.00  0.00    +0.055 A 
ATOM     16  C   UNL     1       1.244  -2.322  -1.215  0.00  0.00    +0.014 A 
ATOM     17  C   UNL     1       1.217  -3.575  -1.790  0.00  0.00    +0.001 A 
ATOM     18  C   UNL     1       0.353  -3.841  -2.838  0.00  0.00    +0.001 A 
ATOM     19  C   UNL     1      -0.489  -2.854  -3.317  0.00  0.00    +0.021 A 
ATOM     20  C   UNL     1      -0.477  -1.596  -2.746  0.00  0.00    +0.053 A 
ATOM     21 CL   UNL     1      -1.540  -0.360  -3.342  0.00  0.00    -0.083 Cl
ENDBRANCH  13  15
ENDBRANCH   1  12
BRANCH   1  22
ATOM     22  C   UNL     1       1.122  -1.141   2.036  0.00  0.00    +0.238 C 
ATOM     23  O   UNL     1       2.022  -0.327   2.015  0.00  0.00    -0.273 OA
ATOM     24  N   UNL     1       1.157  -2.161   2.915  0.00  0.00    -0.311 N 
ATOM     25  H   UNL     1       0.438  -2.812   2.932  0.00  0.00    +0.149 HD
BRANCH  24  26
ATOM     26  C   UNL     1       2.282  -2.289   3.846  0.00  0.00    +0.073 C 
ATOM     27  C   UNL     1       3.429  -3.033   3.160  0.00  0.00    +0.022 C 
ATOM     28  C   UNL     1       4.604  -3.166   4.131  0.00  0.00    +0.002 C 
ATOM     29  C   UNL     1       4.156  -3.947   5.368  0.00  0.00    +0.000 C 
ATOM     30  C   UNL     1       3.009  -3.203   6.054  0.00  0.00    +0.002 C 
ATOM     31  C   UNL     1       1.834  -3.070   5.083  0.00  0.00    +0.022 C 
ENDBRANCH  24  26
ENDBRANCH   1  22
TORSDOF 6
