REMARK  Name = ZINC59015772
REMARK  7 active torsions:
REMARK  status: ('A' for Active; 'I' for Inactive)
REMARK    1  A    between atoms: C_1  and  C_2
REMARK    2  A    between atoms: C_2  and  C_3
REMARK    3  A    between atoms: C_9  and  C_11
REMARK    4  A    between atoms: C_11  and  S_12
REMARK    5  A    between atoms: S_12  and  C_13
REMARK    6  A    between atoms: N_18  and  N_19
REMARK    7  A    between atoms: C_20  and  C_21
REMARK                            x       y       z     vdW  Elec       q    Type
REMARK                         _______ _______ _______ _____ _____    ______ ____
ROOT
ATOM      1  C   UNL     1       5.191  -3.409  -8.529  0.00  0.00    +0.211 A 
ATOM      2  N   UNL     1       6.326  -3.782  -9.130  0.00  0.00    -0.186 NA
ATOM      3  C   UNL     1       6.077  -4.113 -10.380  0.00  0.00    +0.232 A 
ATOM      4  N   UNL     1       4.754  -3.953 -10.598  0.00  0.00    -0.245 N 
ATOM      5  N   UNL     1       4.203  -3.503  -9.388  0.00  0.00    -0.144 NA
ATOM      6  N   UNL     1       7.007  -4.548 -11.306  0.00  0.00    -0.205 N 
ATOM      7  H   UNL     1       6.726  -4.769 -12.208  0.00  0.00    +0.177 HD
ATOM      8  H   UNL     1       4.278  -4.120 -11.427  0.00  0.00    +0.192 HD
ENDROOT
BRANCH   6   9
ATOM      9  N   UNL     1       8.354  -4.668 -10.942  0.00  0.00    -0.188 NA
ATOM     10  C   UNL     1       9.228  -5.077 -11.812  0.00  0.00    +0.139 C 
BRANCH  10  11
ATOM     11  C   UNL     1      10.646  -5.204 -11.429  0.00  0.00    +0.014 A 
ATOM     12  C   UNL     1      11.589  -5.637 -12.364  0.00  0.00    +0.011 A 
ATOM     13  C   UNL     1      12.914  -5.754 -12.000  0.00  0.00    +0.002 A 
ATOM     14  C   UNL     1      13.312  -5.443 -10.711  0.00  0.00    +0.021 A 
ATOM     15  C   UNL     1      12.384  -5.013  -9.778  0.00  0.00    +0.060 A 
ATOM     16  C   UNL     1      11.054  -4.885 -10.131  0.00  0.00    +0.068 A 
ATOM     17 CL   UNL     1       9.892  -4.338  -8.963  0.00  0.00    -0.081 Cl
ATOM     18 CL   UNL     1      12.893  -4.626  -8.164  0.00  0.00    -0.082 Cl
ENDBRANCH  10  11
ENDBRANCH   6   9
BRANCH   1  19
ATOM     19  S   UNL     1       5.044  -2.884  -6.854  0.00  0.00    -0.075 S 
BRANCH  19  20
ATOM     20  C   UNL     1       3.275  -2.533  -6.657  0.00  0.00    +0.173 C 
BRANCH  20  27
ATOM     21  C   UNL     1       0.707  -0.490  -1.238  0.00  0.00    +0.103 A 
ATOM     22  N   UNL     1       1.983  -0.759  -1.434  0.00  0.00    -0.145 NA
ATOM     23  N   UNL     1       2.358  -1.161  -2.572  0.00  0.00    -0.126 NA
ATOM     24  C   UNL     1       1.510  -1.319  -3.570  0.00  0.00    +0.188 A 
ATOM     25  S   UNL     1       0.050  -0.872  -2.855  0.00  0.00    -0.035 S 
ATOM     26  N   UNL     1       1.756  -1.748  -4.870  0.00  0.00    -0.263 N 
ATOM     27  C   UNL     1       3.009  -2.068  -5.248  0.00  0.00    +0.229 C 
ATOM     28  O   UNL     1       3.923  -1.982  -4.455  0.00  0.00    -0.275 OA
ATOM     29  H   UNL     1       1.025  -1.817  -5.504  0.00  0.00    +0.157 HD
BRANCH  21  31
ATOM     30  C   UNL     1      -0.019   1.526   0.010  0.00  0.00    +0.011 C 
ATOM     31  C   UNL     1       0.002  -0.004   0.002  0.00  0.00    +0.061 C 
ENDBRANCH  21  31
ENDBRANCH  20  27
ENDBRANCH  19  20
ENDBRANCH   1  19
TORSDOF 6
