REMARK  Name = ZINC60371695
REMARK  5 active torsions:
REMARK  status: ('A' for Active; 'I' for Inactive)
REMARK    1  A    between atoms: C_3  and  O_20
REMARK    2  A    between atoms: C_6  and  C_7
REMARK    3  A    between atoms: N_9  and  C_10
REMARK    4  A    between atoms: C_13  and  N_17
REMARK    5  A    between atoms: O_20  and  C_21
REMARK                            x       y       z     vdW  Elec       q    Type
REMARK                         _______ _______ _______ _____ _____    ______ ____
ROOT
ATOM      1  C   UNL     1      -1.045  -1.583  -1.219  0.00  0.00    +0.248 C 
ATOM      2  O   UNL     1      -2.022  -1.189  -1.827  0.00  0.00    -0.270 OA
ATOM      3  N   UNL     1      -1.024  -2.834  -0.716  0.00  0.00    -0.279 N 
ATOM      4  H   UNL     1      -0.287  -3.118  -0.153  0.00  0.00    +0.155 HD
ENDROOT
BRANCH   3   5
ATOM      5  C   UNL     1      -2.066  -3.722  -1.006  0.00  0.00    +0.069 A 
ATOM      6  C   UNL     1      -2.887  -3.498  -2.103  0.00  0.00    +0.028 A 
ATOM      7  C   UNL     1      -3.914  -4.377  -2.387  0.00  0.00    +0.035 A 
ATOM      8  C   UNL     1      -4.127  -5.479  -1.581  0.00  0.00    +0.129 A 
ATOM      9  C   UNL     1      -3.312  -5.707  -0.487  0.00  0.00    +0.073 A 
ATOM     10  C   UNL     1      -2.278  -4.835  -0.200  0.00  0.00    +0.147 A 
ATOM     11  F   UNL     1      -1.478  -5.061   0.865  0.00  0.00    -0.203 F 
BRANCH   8  12
ATOM     12  N   UNL     1      -5.229  -6.418  -1.888  0.00  0.00    +0.057 N 
ATOM     13  O   UNL     1      -5.943  -6.219  -2.844  0.00  0.00    -0.126 OA
ATOM     14  O   UNL     1      -5.417  -7.382  -1.184  0.00  0.00    -0.126 OA
ENDBRANCH   8  12
ENDBRANCH   3   5
BRANCH   1  20
ATOM     15  C   UNL     1       0.096   0.604  -1.552  0.00  0.00    +0.016 A 
ATOM     16  C   UNL     1       1.182   1.432  -1.374  0.00  0.00    +0.046 A 
ATOM     17  C   UNL     1       2.297   0.979  -0.678  0.00  0.00    +0.121 A 
ATOM     18  C   UNL     1       2.321  -0.310  -0.159  0.00  0.00    +0.046 A 
ATOM     19  C   UNL     1       1.239  -1.144  -0.332  0.00  0.00    +0.016 A 
ATOM     20  C   UNL     1       0.116  -0.693  -1.031  0.00  0.00    +0.037 A 
BRANCH  17  21
ATOM     21  O   UNL     1       3.366   1.798  -0.505  0.00  0.00    -0.489 OA
BRANCH  21  22
ATOM     22  C   UNL     1       3.230   3.146  -0.960  0.00  0.00    +0.173 C 
ATOM     23  C   UNL     1       3.593   3.239  -2.456  0.00  0.00    +0.044 C 
ATOM     24  C   UNL     1       4.322   4.599  -2.586  0.00  0.00    +0.004 C 
ATOM     25  C   UNL     1       5.147   4.671  -1.277  0.00  0.00    +0.004 C 
ATOM     26  C   UNL     1       4.218   4.057  -0.210  0.00  0.00    +0.044 C 
ENDBRANCH  21  22
ENDBRANCH  17  21
ENDBRANCH   1  20
TORSDOF 5
