REMARK  Name = ZINC13658190
REMARK  10 active torsions:
REMARK  status: ('A' for Active; 'I' for Inactive)
REMARK    1  A    between atoms: C_1  and  C_2
REMARK    2  A    between atoms: C_9  and  C_13
REMARK    3  A    between atoms: C_10  and  O_12
REMARK    4  A    between atoms: C_13  and  N_60
REMARK    5  A    between atoms: C_14  and  C_15
REMARK    6  A    between atoms: C_14  and  N_60
REMARK    7  A    between atoms: C_21  and  C_22
REMARK    8  A    between atoms: C_21  and  N_60
REMARK    9  A    between atoms: N_26  and  C_27
REMARK   10  A    between atoms: C_27  and  C_28
REMARK                            x       y       z     vdW  Elec       q    Type
REMARK                         _______ _______ _______ _____ _____    ______ ____
ROOT
ATOM      1  N   UNL     1       0.318   1.530  -0.451  0.00  0.00    +0.390 N 
ATOM      2  H   UNL     1       0.387   2.048   0.433  0.00  0.00    -0.080 HD
ENDROOT
BRANCH   1   3
ATOM      3  C   UNL     1       0.183   0.089  -0.154  0.00  0.00    -0.037 C 
BRANCH   3  12
ATOM      4  C   UNL     1       5.742   1.748   4.470  0.00  0.00    +0.044 C 
ATOM      5  C   UNL     1       4.801   0.753   3.842  0.00  0.00    -0.050 A 
ATOM      6  C   UNL     1       4.880  -0.590   4.203  0.00  0.00    +0.005 A 
ATOM      7  C   UNL     1       4.044  -1.514   3.655  0.00  0.00    +0.029 A 
ATOM      8  C   UNL     1       3.085  -1.113   2.708  0.00  0.00    +0.075 A 
ATOM      9  C   UNL     1       3.007   0.253   2.343  0.00  0.00    +0.001 A 
ATOM     10  C   UNL     1       3.885   1.179   2.929  0.00  0.00    +0.013 A 
ATOM     11  C   UNL     1       2.050   0.654   1.390  0.00  0.00    +0.017 A 
ATOM     12  C   UNL     1       1.225  -0.296   0.864  0.00  0.00    -0.002 A 
ATOM     13  C   UNL     1       1.353  -1.631   1.266  0.00  0.00    +0.214 A 
ATOM     14  N   UNL     1       2.252  -2.001   2.153  0.00  0.00    -0.213 NA
BRANCH  13  15
ATOM     15  O   UNL     1       0.530  -2.565   0.730  0.00  0.00    -0.492 OA
ATOM     16  H   UNL     1       0.906  -3.031  -0.030  0.00  0.00    +0.294 HD
ENDBRANCH  13  15
ENDBRANCH   3  12
ENDBRANCH   1   3
BRANCH   1  17
ATOM     17  C   UNL     1       1.542   1.770  -1.244  0.00  0.00    -0.040 C 
BRANCH  17  18
ATOM     18  C   UNL     1       1.543   0.915  -2.485  0.00  0.00    -0.046 A 
ATOM     19  C   UNL     1       2.065  -0.370  -2.452  0.00  0.00    +0.005 A 
ATOM     20  C   UNL     1       2.041  -1.122  -3.616  0.00  0.00    +0.020 A 
ATOM     21  C   UNL     1       1.510  -0.567  -4.766  0.00  0.00    +0.111 A 
ATOM     22  N   UNL     1       1.027   0.660  -4.761  0.00  0.00    -0.263 NA
ATOM     23  C   UNL     1       1.030   1.403  -3.671  0.00  0.00    +0.112 A 
ENDBRANCH  17  18
ENDBRANCH   1  17
BRANCH   1  24
ATOM     24  C   UNL     1      -0.868   2.006  -1.194  0.00  0.00    +0.001 C 
BRANCH  24  25
ATOM     25  C   UNL     1      -0.890   3.512  -1.156  0.00  0.00    +0.135 A 
ATOM     26  N   UNL     1      -0.246   4.325  -1.957  0.00  0.00    -0.115 NA
ATOM     27  N   UNL     1      -0.522   5.533  -1.604  0.00  0.00    -0.023 NA
ATOM     28  N   UNL     1      -1.327   5.512  -0.599  0.00  0.00    -0.044 NA
ATOM     29  N   UNL     1      -1.581   4.284  -0.296  0.00  0.00    -0.229 N 
BRANCH  29  30
ATOM     30  C   UNL     1      -2.456   3.817   0.782  0.00  0.00    +0.178 C 
BRANCH  30  31
ATOM     31  C   UNL     1      -1.638   3.648   2.065  0.00  0.00    +0.140 C 
ATOM     32  C   UNL     1      -2.561   3.242   3.241  0.00  0.00    +0.035 C 
ATOM     33  C   UNL     1      -1.548   2.522   4.174  0.00  0.00    +0.031 C 
ATOM     34  C   UNL     1      -0.585   1.859   3.165  0.00  0.00    +0.160 C 
ATOM     35  O   UNL     1      -0.707   2.564   1.924  0.00  0.00    -0.375 OA
ENDBRANCH  30  31
ENDBRANCH  29  30
ENDBRANCH  24  25
ENDBRANCH   1  24
TORSDOF 9
