REMARK  Name = ZINC13206634
REMARK  11 active torsions:
REMARK  status: ('A' for Active; 'I' for Inactive)
REMARK    1  A    between atoms: C_1  and  C_2
REMARK    2  A    between atoms: C_2  and  C_4
REMARK    3  A    between atoms: C_2  and  S_17
REMARK    4  A    between atoms: N_6  and  C_7
REMARK    5  A    between atoms: C_10  and  S_13
REMARK    6  A    between atoms: S_13  and  N_16
REMARK    7  A    between atoms: S_17  and  C_18
REMARK    8  A    between atoms: C_21  and  C_27
REMARK    9  A    between atoms: N_22  and  C_23
REMARK   10  A    between atoms: C_23  and  C_24
REMARK   11  A    between atoms: C_24  and  C_25
REMARK                            x       y       z     vdW  Elec       q    Type
REMARK                         _______ _______ _______ _____ _____    ______ ____
ROOT
ATOM      1  C   UNL     1      -1.325  -1.821   5.894  0.00  0.00    +0.029 C 
ATOM      2  C   UNL     1      -1.368  -2.288   4.438  0.00  0.00    +0.137 C 
ENDROOT
BRANCH   2   3
ATOM      3  C   UNL     1      -2.368  -3.406   4.298  0.00  0.00    +0.230 C 
ATOM      4  O   UNL     1      -3.477  -3.177   3.864  0.00  0.00    -0.274 OA
ATOM      5  N   UNL     1      -2.030  -4.661   4.655  0.00  0.00    -0.285 N 
ATOM      6  H   UNL     1      -1.170  -4.832   5.070  0.00  0.00    +0.155 HD
BRANCH   5   7
ATOM      7  C   UNL     1      -2.920  -5.717   4.428  0.00  0.00    +0.034 A 
ATOM      8  C   UNL     1      -2.964  -6.791   5.307  0.00  0.00    +0.025 A 
ATOM      9  C   UNL     1      -3.848  -7.829   5.083  0.00  0.00    +0.030 A 
ATOM     10  C   UNL     1      -4.679  -7.805   3.978  0.00  0.00    +0.105 A 
ATOM     11  C   UNL     1      -4.633  -6.739   3.097  0.00  0.00    +0.030 A 
ATOM     12  C   UNL     1      -3.756  -5.696   3.319  0.00  0.00    +0.025 A 
BRANCH  10  13
ATOM     13  S   UNL     1      -5.799  -9.134   3.691  0.00  0.00    +0.056 S 
ATOM     14  O   UNL     1      -6.035  -9.745   4.952  0.00  0.00    -0.153 OA
ATOM     15  O   UNL     1      -6.850  -8.613   2.889  0.00  0.00    -0.153 OA
BRANCH  13  16
ATOM     16  N   UNL     1      -5.005 -10.253   2.764  0.00  0.00    -0.204 NA
ATOM     17  H   UNL     1      -5.228 -11.194   2.842  0.00  0.00    +0.144 HD
ATOM     18  H   UNL     1      -4.318  -9.967   2.142  0.00  0.00    +0.144 HD
ENDBRANCH  13  16
ENDBRANCH  10  13
ENDBRANCH   5   7
ENDBRANCH   2   3
BRANCH   2  19
ATOM     19  S   UNL     1      -1.856  -0.906   3.375  0.00  0.00    -0.074 S 
BRANCH  19  20
ATOM     20  C   UNL     1      -0.475   0.163   3.611  0.00  0.00    +0.193 A 
ATOM     21  N   UNL     1       0.573  -0.072   4.369  0.00  0.00    -0.122 NA
ATOM     22  N   UNL     1       1.387   0.921   4.315  0.00  0.00    -0.128 NA
ATOM     23  C   UNL     1       0.912   1.848   3.516  0.00  0.00    +0.165 A 
ATOM     24  N   UNL     1      -0.293   1.390   3.038  0.00  0.00    -0.302 N 
BRANCH  23  25
ATOM     25  C   UNL     1       1.553   3.140   3.192  0.00  0.00    +0.019 A 
ATOM     26  C   UNL     1       1.139   3.866   2.074  0.00  0.00    +0.014 A 
ATOM     27  C   UNL     1       1.736   5.074   1.779  0.00  0.00    +0.039 A 
ATOM     28  C   UNL     1       2.753   5.562   2.585  0.00  0.00    +0.123 A 
ATOM     29  C   UNL     1       3.171   4.843   3.693  0.00  0.00    +0.039 A 
ATOM     30  C   UNL     1       2.577   3.637   4.000  0.00  0.00    +0.014 A 
ATOM     31  F   UNL     1       3.338   6.743   2.289  0.00  0.00    -0.205 F 
ENDBRANCH  23  25
BRANCH  24  32
ATOM     32  C   UNL     1      -1.196   2.077   2.111  0.00  0.00    +0.137 C 
BRANCH  32  33
ATOM     33  C   UNL     1      -0.889   1.637   0.678  0.00  0.00    +0.147 C 
BRANCH  33  34
ATOM     34  C   UNL     1      -1.818   2.344  -0.274  0.00  0.00    +0.358 C 
ATOM     35  O   UNL     1      -2.642   3.120   0.149  0.00  0.00    -0.246 OA
ATOM     36  O   UNL     1      -1.731   2.111  -1.594  0.00  0.00    -0.246 OA
ENDBRANCH  33  34
ENDBRANCH  32  33
ENDBRANCH  24  32
ENDBRANCH  19  20
ENDBRANCH   2  19
TORSDOF 10
