REMARK  Name = ZINC33624849
REMARK  11 active torsions:
REMARK  status: ('A' for Active; 'I' for Inactive)
REMARK    1  A    between atoms: C_1  and  C_2
REMARK    2  A    between atoms: C_3  and  C_25
REMARK    3  A    between atoms: C_4  and  S_11
REMARK    4  A    between atoms: C_6  and  C_7
REMARK    5  A    between atoms: C_7  and  O_9
REMARK    6  A    between atoms: O_9  and  C_10
REMARK    7  A    between atoms: S_11  and  N_14
REMARK    8  A    between atoms: N_14  and  C_15
REMARK    9  A    between atoms: C_17  and  N_22
REMARK   10  A    between atoms: C_25  and  O_27
REMARK   11  A    between atoms: O_27  and  C_28
REMARK                            x       y       z     vdW  Elec       q    Type
REMARK                         _______ _______ _______ _____ _____    ______ ____
ROOT
ATOM      1  C   UNL     1      -1.049   2.168   0.380  0.00  0.00    +0.046 C 
ATOM      2  C   UNL     1       0.216   1.354   0.284  0.00  0.00    -0.013 A 
ATOM      3  C   UNL     1       0.176  -0.030   0.204  0.00  0.00    +0.097 A 
ATOM      4  C   UNL     1       1.381  -0.712   0.113  0.00  0.00    +0.163 A 
ATOM      5  S   UNL     1       2.554   0.563   0.139  0.00  0.00    -0.061 S 
ATOM      6  C   UNL     1       1.446   1.955   0.268  0.00  0.00    +0.102 A 
ENDROOT
BRANCH   4   7
ATOM      7  S   UNL     1       1.651  -2.450  -0.002  0.00  0.00    +0.099 S 
ATOM      8  O   UNL     1       2.966  -2.689   0.481  0.00  0.00    -0.148 OA
ATOM      9  O   UNL     1       0.507  -3.077   0.560  0.00  0.00    -0.148 OA
BRANCH   7  10
ATOM     10  N   UNL     1       1.661  -2.838  -1.612  0.00  0.00    -0.096 NA
BRANCH  10  11
ATOM     11  C   UNL     1       2.608  -2.264  -2.464  0.00  0.00    +0.090 A 
ATOM     12  C   UNL     1       3.894  -2.010  -2.004  0.00  0.00    +0.060 A 
ATOM     13  C   UNL     1       4.828  -1.442  -2.849  0.00  0.00    +0.128 A 
ATOM     14  C   UNL     1       4.485  -1.127  -4.151  0.00  0.00    +0.034 A 
ATOM     15  C   UNL     1       3.205  -1.378  -4.612  0.00  0.00    +0.019 A 
ATOM     16  C   UNL     1       2.268  -1.951  -3.774  0.00  0.00    +0.042 A 
ATOM     17 BR   UNL     1       0.521  -2.303  -4.408  0.00  0.00    -0.048 Br
BRANCH  13  18
ATOM     18  N   UNL     1       6.199  -1.172  -2.360  0.00  0.00    +0.056 N 
ATOM     19  O   UNL     1       6.502  -1.450  -1.213  0.00  0.00    -0.126 OA
ATOM     20  O   UNL     1       7.023  -0.671  -3.104  0.00  0.00    -0.126 OA
ENDBRANCH  13  18
ENDBRANCH  10  11
ENDBRANCH   7  10
ENDBRANCH   4   7
BRANCH   6  21
ATOM     21  C   UNL     1       1.771   3.382   0.339  0.00  0.00    +0.346 C 
ATOM     22  O   UNL     1       0.880   4.205   0.424  0.00  0.00    -0.244 OA
BRANCH  21  23
ATOM     23  O   UNL     1       3.058   3.783   0.308  0.00  0.00    -0.464 OA
ATOM     24  C   UNL     1       3.306   5.212   0.382  0.00  0.00    +0.280 C 
ENDBRANCH  21  23
ENDBRANCH   6  21
BRANCH   3  25
ATOM     25  C   UNL     1      -1.106  -0.753   0.215  0.00  0.00    +0.342 C 
ATOM     26  O   UNL     1      -1.679  -0.990  -0.830  0.00  0.00    -0.245 OA
BRANCH  25  27
ATOM     27  O   UNL     1      -1.643  -1.153   1.385  0.00  0.00    -0.464 OA
ATOM     28  C   UNL     1      -2.909  -1.861   1.321  0.00  0.00    +0.280 C 
ENDBRANCH  25  27
ENDBRANCH   3  25
TORSDOF 8
