REMARK  Name = ZINC09021683
REMARK  9 active torsions:
REMARK  status: ('A' for Active; 'I' for Inactive)
REMARK    1  A    between atoms: C_1  and  C_2
REMARK    2  A    between atoms: C_8  and  N_10
REMARK    3  A    between atoms: C_14  and  C_16
REMARK    4  A    between atoms: C_16  and  O_17
REMARK    5  A    between atoms: O_17  and  C_18
REMARK    6  A    between atoms: C_18  and  C_20
REMARK    7  A    between atoms: C_20  and  S_21
REMARK    8  A    between atoms: S_21  and  C_22
REMARK    9  A    between atoms: C_25  and  C_27
REMARK                            x       y       z     vdW  Elec       q    Type
REMARK                         _______ _______ _______ _____ _____    ______ ____
ROOT
ATOM      1  O   UNL     1       1.089  -6.624  -4.983  0.00  0.00    -0.455 OA
ENDROOT
BRANCH   1   2
ATOM      2  C   UNL     1       1.121  -7.954  -5.165  0.00  0.00    +0.318 C 
ATOM      3  O   UNL     1       1.056  -8.696  -4.214  0.00  0.00    -0.250 OA
BRANCH   2   4
ATOM      4  C   UNL     1       1.237  -8.520  -6.557  0.00  0.00    +0.199 C 
BRANCH   4   5
ATOM      5  S   UNL     1       1.254 -10.328  -6.472  0.00  0.00    -0.054 S 
BRANCH   5   6
ATOM      6  C   UNL     1       1.393 -10.713  -8.186  0.00  0.00    +0.278 A 
ATOM      7  N   UNL     1       1.452  -9.851  -9.174  0.00  0.00    -0.101 NA
ATOM      8  N   UNL     1       1.553 -10.483 -10.290  0.00  0.00    -0.106 NA
ATOM      9  C   UNL     1       1.552 -11.774 -10.060  0.00  0.00    +0.249 A 
ATOM     10  O   UNL     1       1.451 -11.947  -8.724  0.00  0.00    -0.411 OA
BRANCH   9  11
ATOM     11  C   UNL     1       1.645 -12.843 -11.076  0.00  0.00    +0.039 A 
ATOM     12  C   UNL     1       1.639 -14.183 -10.685  0.00  0.00    +0.014 A 
ATOM     13  C   UNL     1       1.722 -15.177 -11.639  0.00  0.00    +0.021 A 
ATOM     14  C   UNL     1       1.822 -14.847 -12.980  0.00  0.00    +0.041 A 
ATOM     15  C   UNL     1       1.834 -13.519 -13.373  0.00  0.00    +0.021 A 
ATOM     16  C   UNL     1       1.746 -12.517 -12.430  0.00  0.00    +0.014 A 
ATOM     17 CL   UNL     1       1.932 -16.103 -14.173  0.00  0.00    -0.084 Cl
ENDBRANCH   9  11
ENDBRANCH   5   6
ENDBRANCH   4   5
ENDBRANCH   2   4
ENDBRANCH   1   2
BRANCH   1  18
ATOM     18  C   UNL     1       0.976  -6.149  -3.615  0.00  0.00    +0.328 C 
BRANCH  18  23
ATOM     19  N   UNL     1       0.738  -1.962  -1.265  0.00  0.00    -0.296 N 
ATOM     20  C   UNL     1       0.838  -2.628  -2.432  0.00  0.00    +0.306 C 
ATOM     21  O   UNL     1       0.911  -2.014  -3.478  0.00  0.00    -0.252 OA
ATOM     22  N   UNL     1       0.856  -3.976  -2.440  0.00  0.00    -0.237 N 
ATOM     23  C   UNL     1       0.956  -4.642  -3.607  0.00  0.00    +0.258 C 
ATOM     24  O   UNL     1       1.029  -4.029  -4.650  0.00  0.00    -0.272 OA
ATOM     25  H   UNL     1       0.679  -2.453  -0.430  0.00  0.00    +0.151 HD
ATOM     26  H   UNL     1       0.797  -4.467  -1.605  0.00  0.00    +0.159 HD
BRANCH  19  33
ATOM     27  C   UNL     1      -1.433  -0.534   0.013  0.00  0.00    +0.009 C 
ATOM     28  C   UNL     1       0.002  -0.004   0.002  0.00  0.00    +0.006 C 
ATOM     29  C   UNL     1      -0.019   1.526   0.010  0.00  0.00    +0.005 C 
ATOM     30  C   UNL     1       1.417   2.055  -0.000  0.00  0.00    +0.000 C 
ATOM     31  C   UNL     1       2.133   1.562  -1.259  0.00  0.00    +0.002 C 
ATOM     32  C   UNL     1       2.154   0.032  -1.268  0.00  0.00    +0.022 C 
ATOM     33  C   UNL     1       0.718  -0.497  -1.257  0.00  0.00    +0.077 C 
ENDBRANCH  19  33
ENDBRANCH  18  23
ENDBRANCH   1  18
TORSDOF 8
