REMARK  Name = ZINC20724214
REMARK  6 active torsions:
REMARK  status: ('A' for Active; 'I' for Inactive)
REMARK    1  A    between atoms: C_1  and  C_2
REMARK    2  A    between atoms: C_2  and  C_4
REMARK    3  A    between atoms: C_2  and  N_8
REMARK    4  A    between atoms: C_4  and  O_6
REMARK    5  A    between atoms: O_6  and  C_7
REMARK    6  A    between atoms: C_20  and  C_22
REMARK                            x       y       z     vdW  Elec       q    Type
REMARK                         _______ _______ _______ _____ _____    ______ ____
ROOT
ATOM      1  N   UNL     1       2.879  -0.289  -0.032  0.00  0.00    -0.286 N 
ATOM      2  C   UNL     1       2.105  -0.559  -1.102  0.00  0.00    +0.304 C 
ATOM      3  O   UNL     1       0.894  -0.508  -1.005  0.00  0.00    -0.253 OA
ATOM      4  N   UNL     1       2.674  -0.885  -2.280  0.00  0.00    -0.273 N 
ATOM      5  C   UNL     1       1.854  -1.078  -3.485  0.00  0.00    +0.116 C 
ATOM      6  C   UNL     1       1.964  -2.538  -3.941  0.00  0.00    +0.076 C 
ATOM      7  C   UNL     1       3.413  -2.953  -3.901  0.00  0.00    +0.066 A 
ATOM      8  C   UNL     1       4.374  -2.301  -3.212  0.00  0.00    +0.064 A 
ATOM      9  N   UNL     1       5.540  -2.971  -3.414  0.00  0.00    -0.346 N 
ATOM     10  H   UNL     1       6.408  -2.743  -3.046  0.00  0.00    +0.167 HD
ATOM     11  C   UNL     1       5.260  -4.016  -4.227  0.00  0.00    +0.197 A 
ATOM     12  N   UNL     1       3.984  -3.996  -4.513  0.00  0.00    -0.240 NA
ATOM     13  C   UNL     1       4.134  -1.052  -2.394  0.00  0.00    +0.159 C 
ATOM     14  H   UNL     1       3.841  -0.400  -0.089  0.00  0.00    +0.151 HD
ENDROOT
BRANCH  13  15
ATOM     15  C   UNL     1       4.735   0.144  -3.086  0.00  0.00    +0.017 A 
ATOM     16  C   UNL     1       5.125   0.053  -4.410  0.00  0.00    +0.009 A 
ATOM     17  C   UNL     1       5.675   1.149  -5.047  0.00  0.00    +0.003 A 
ATOM     18  C   UNL     1       5.838   2.338  -4.362  0.00  0.00    +0.041 A 
ATOM     19  C   UNL     1       5.449   2.433  -3.037  0.00  0.00    +0.159 A 
ATOM     20  C   UNL     1       4.891   1.335  -2.400  0.00  0.00    +0.164 A 
ATOM     21  F   UNL     1       4.505   1.426  -1.108  0.00  0.00    -0.202 F 
ATOM     22  F   UNL     1       5.608   3.595  -2.367  0.00  0.00    -0.202 F 
ENDBRANCH  13  15
BRANCH   1  24
ATOM     23  C   UNL     1       1.809  -1.037   2.036  0.00  0.00    +0.040 C 
ATOM     24  C   UNL     1       2.267   0.172   1.217  0.00  0.00    +0.180 C 
BRANCH  24  25
ATOM     25  C   UNL     1       3.276   0.963   2.009  0.00  0.00    +0.327 C 
ATOM     26  O   UNL     1       4.391   1.125   1.574  0.00  0.00    -0.249 OA
BRANCH  25  27
ATOM     27  O   UNL     1       2.935   1.487   3.196  0.00  0.00    -0.467 OA
ATOM     28  C   UNL     1       3.941   2.225   3.893  0.00  0.00    +0.280 C 
ENDBRANCH  25  27
ENDBRANCH  24  25
ENDBRANCH   1  24
TORSDOF 4
