REMARK  Name = ZINC03587960
REMARK  11 active torsions:
REMARK  status: ('A' for Active; 'I' for Inactive)
REMARK    1  A    between atoms: C_1  and  C_2
REMARK    2  A    between atoms: C_5  and  C_8
REMARK    3  A    between atoms: C_11  and  S_14
REMARK    4  A    between atoms: N_12  and  N_13
REMARK    5  A    between atoms: S_14  and  C_15
REMARK    6  A    between atoms: C_15  and  C_16
REMARK    7  A    between atoms: C_16  and  C_18
REMARK    8  A    between atoms: C_19  and  C_28
REMARK    9  A    between atoms: C_20  and  C_25
REMARK   10  A    between atoms: C_21  and  C_24
REMARK   11  A    between atoms: C_25  and  C_27
REMARK                            x       y       z     vdW  Elec       q    Type
REMARK                         _______ _______ _______ _____ _____    ______ ____
ROOT
ATOM      1  C   UNL     1       5.417  -4.028   0.586  0.00  0.00    +0.182 A 
ATOM      2  N   UNL     1       4.110  -4.138   0.521  0.00  0.00    -0.127 NA
ATOM      3  N   UNL     1       3.590  -3.007   0.199  0.00  0.00    -0.121 NA
ATOM      4  C   UNL     1       4.534  -2.108   0.029  0.00  0.00    +0.209 A 
ATOM      5  N   UNL     1       5.728  -2.725   0.273  0.00  0.00    -0.224 N 
ENDROOT
BRANCH   1  10
ATOM      6  C   UNL     1       9.138  -8.207   1.928  0.00  0.00    +0.044 C 
ATOM      7  C   UNL     1       8.163  -7.112   1.577  0.00  0.00    -0.050 A 
ATOM      8  C   UNL     1       8.567  -5.790   1.623  0.00  0.00    +0.004 A 
ATOM      9  C   UNL     1       7.680  -4.783   1.302  0.00  0.00    +0.012 A 
ATOM     10  C   UNL     1       6.373  -5.101   0.931  0.00  0.00    +0.021 A 
ATOM     11  C   UNL     1       5.970  -6.437   0.892  0.00  0.00    +0.012 A 
ATOM     12  C   UNL     1       6.869  -7.435   1.210  0.00  0.00    +0.004 A 
ENDBRANCH   1  10
BRANCH   5  13
ATOM     13  N   UNL     1       6.973  -2.164   0.217  0.00  0.00    -0.295 N 
ATOM     14  H   UNL     1       7.277  -1.867   1.132  0.00  0.00    +0.163 HD
ATOM     15  H   UNL     1       7.638  -2.801  -0.196  0.00  0.00    +0.163 HD
ENDBRANCH   5  13
BRANCH   4  16
ATOM     16  S   UNL     1       4.302  -0.421  -0.421  0.00  0.00    -0.076 S 
BRANCH  16  17
ATOM     17  C   UNL     1       2.498  -0.379  -0.561  0.00  0.00    +0.158 C 
BRANCH  17  18
ATOM     18  C   UNL     1       2.056   1.009  -0.949  0.00  0.00    +0.190 C 
ATOM     19  O   UNL     1       2.881   1.884  -1.115  0.00  0.00    -0.290 OA
BRANCH  18  20
ATOM     20  C   UNL     1       0.679   1.292  -1.120  0.00  0.00    +0.087 A 
ATOM     21  C   UNL     1       0.142   2.510  -1.472  0.00  0.00    -0.012 A 
ATOM     22  C   UNL     1      -1.260   2.338  -1.528  0.00  0.00    +0.041 A 
ATOM     23  C   UNL     1      -1.520   1.013  -1.212  0.00  0.00    +0.024 A 
ATOM     24  N   UNL     1      -0.358   0.395  -0.964  0.00  0.00    -0.355 N 
ATOM     25  H   UNL     1      -0.260  -0.538  -0.717  0.00  0.00    +0.166 HD
ATOM     26  C   UNL     1      -2.885   0.375  -1.155  0.00  0.00    +0.064 C 
ATOM     27  C   UNL     1       0.903   3.783  -1.745  0.00  0.00    +0.047 C 
BRANCH  22  28
ATOM     28  C   UNL     1      -2.251   3.365  -1.863  0.00  0.00    +0.162 C 
ATOM     29  O   UNL     1      -2.579   3.538  -3.018  0.00  0.00    -0.292 OA
ATOM     30  C   UNL     1      -2.862   4.207  -0.772  0.00  0.00    +0.091 C 
ENDBRANCH  22  28
ENDBRANCH  18  20
ENDBRANCH  17  18
ENDBRANCH  16  17
ENDBRANCH   4  16
TORSDOF 7
