REMARK  Name = ZINC12471507
REMARK  11 active torsions:
REMARK  status: ('A' for Active; 'I' for Inactive)
REMARK    1  A    between atoms: C_1  and  C_2
REMARK    2  A    between atoms: C_2  and  C_3
REMARK    3  A    between atoms: C_2  and  C_4
REMARK    4  A    between atoms: C_2  and  N_5
REMARK    5  A    between atoms: C_6  and  C_8
REMARK    6  A    between atoms: C_8  and  C_10
REMARK    7  A    between atoms: C_8  and  N_17
REMARK    8  A    between atoms: C_13  and  O_16
REMARK    9  A    between atoms: N_17  and  C_18
REMARK   10  A    between atoms: C_22  and  O_24
REMARK   11  A    between atoms: C_25  and  C_27
REMARK                            x       y       z     vdW  Elec       q    Type
REMARK                         _______ _______ _______ _____ _____    ______ ____
ROOT
ATOM      1  N   UNL     1      -2.317   8.204   0.149  0.00  0.00    -0.252 N 
ATOM      2  C   UNL     1      -1.364   7.382   0.631  0.00  0.00    +0.265 C 
ATOM      3  O   UNL     1      -0.277   7.827   0.936  0.00  0.00    -0.271 OA
ENDROOT
BRANCH   2   4
ATOM      4  C   UNL     1      -1.647   5.911   0.792  0.00  0.00    +0.296 C 
ATOM      5  C   UNL     1      -2.642   5.698   1.941  0.00  0.00    +0.283 C 
ATOM      6  O   UNL     1      -2.878   4.292   2.074  0.00  0.00    -0.484 OA
ATOM      7  C   UNL     1      -1.782   3.484   2.062  0.00  0.00    +0.162 A 
ATOM      8  C   UNL     1      -1.890   2.185   2.535  0.00  0.00    +0.049 A 
ATOM      9  C   UNL     1      -0.786   1.353   2.531  0.00  0.00    +0.004 A 
ATOM     10  C   UNL     1       0.425   1.811   2.046  0.00  0.00    +0.004 A 
ATOM     11  C   UNL     1       0.538   3.103   1.570  0.00  0.00    +0.049 A 
ATOM     12  C   UNL     1      -0.564   3.945   1.578  0.00  0.00    +0.163 A 
ATOM     13  O   UNL     1      -0.436   5.218   1.113  0.00  0.00    -0.472 OA
ENDBRANCH   2   4
BRANCH   1  14
ATOM     14  C   UNL     1      -3.601   7.710  -0.107  0.00  0.00    +0.041 A 
ATOM     15  C   UNL     1      -3.807   6.816  -1.150  0.00  0.00    +0.024 A 
ATOM     16  C   UNL     1      -5.075   6.329  -1.403  0.00  0.00    +0.005 A 
ATOM     17  C   UNL     1      -6.141   6.730  -0.621  0.00  0.00    +0.045 A 
ATOM     18  C   UNL     1      -5.941   7.624   0.422  0.00  0.00    +0.119 A 
ATOM     19  C   UNL     1      -4.670   8.110   0.683  0.00  0.00    +0.069 A 
BRANCH  18  20
ATOM     20  O   UNL     1      -6.990   8.017   1.191  0.00  0.00    -0.507 OA
ATOM     21  H   UNL     1      -7.144   7.456   1.963  0.00  0.00    +0.292 HD
ENDBRANCH  18  20
ENDBRANCH   1  14
BRANCH   1  22
ATOM     22  C   UNL     1      -2.009   9.613  -0.106  0.00  0.00    +0.197 C 
BRANCH  22  23
ATOM     23  C   UNL     1      -3.268  10.338  -0.506  0.00  0.00    -0.018 A 
ATOM     24  C   UNL     1      -4.013   9.886  -1.580  0.00  0.00    +0.009 A 
ATOM     25  C   UNL     1      -5.171  10.545  -1.945  0.00  0.00    +0.046 A 
ATOM     26  C   UNL     1      -5.579  11.669  -1.241  0.00  0.00    +0.117 A 
ATOM     27  C   UNL     1      -4.827  12.123  -0.168  0.00  0.00    +0.046 A 
ATOM     28  C   UNL     1      -3.674  11.457   0.197  0.00  0.00    +0.009 A 
BRANCH  26  29
ATOM     29  O   UNL     1      -6.715  12.323  -1.602  0.00  0.00    -0.507 OA
ATOM     30  H   UNL     1      -6.574  13.025  -2.253  0.00  0.00    +0.292 HD
ENDBRANCH  26  29
ENDBRANCH  22  23
BRANCH  22  32
ATOM     31  N   UNL     1      -0.561  10.920  -1.627  0.00  0.00    -0.309 N 
ATOM     32  C   UNL     1      -0.997   9.712  -1.218  0.00  0.00    +0.239 C 
ATOM     33  O   UNL     1      -0.575   8.705  -1.746  0.00  0.00    -0.273 OA
ATOM     34  H   UNL     1      -0.899  11.726  -1.205  0.00  0.00    +0.149 HD
BRANCH  31  36
ATOM     35  C   UNL     1      -0.150  10.382  -3.977  0.00  0.00    +0.031 C 
ATOM     36  C   UNL     1       0.422  11.017  -2.708  0.00  0.00    +0.026 C 
ATOM     37  C   UNL     1       0.744  12.489  -2.975  0.00  0.00    +0.031 C 
ATOM     38  C   UNL     1       1.701  10.281  -2.302  0.00  0.00    +0.031 C 
ENDBRANCH  31  36
ENDBRANCH  22  32
ENDBRANCH   1  22
TORSDOF 8
