REMARK  Name = ZINC59292993
REMARK  12 active torsions:
REMARK  status: ('A' for Active; 'I' for Inactive)
REMARK    1  A    between atoms: C_1  and  C_2
REMARK    2  A    between atoms: C_2  and  O_3
REMARK    3  A    between atoms: O_3  and  C_4
REMARK    4  A    between atoms: C_4  and  C_6
REMARK    5  A    between atoms: C_7  and  N_35
REMARK    6  A    between atoms: C_9  and  C_34
REMARK    7  A    between atoms: C_10  and  C_24
REMARK    8  A    between atoms: N_18  and  C_21
REMARK    9  A    between atoms: C_21  and  C_22
REMARK   10  A    between atoms: C_24  and  O_26
REMARK   11  A    between atoms: O_26  and  C_27
REMARK   12  A    between atoms: C_27  and  C_28
REMARK                            x       y       z     vdW  Elec       q    Type
REMARK                         _______ _______ _______ _____ _____    ______ ____
ROOT
ATOM      1  C   UNL     1      -2.884  -2.180  -0.035  0.00  0.00    +0.117 C 
ATOM      2  C   UNL     1      -3.073  -3.526  -0.005  0.00  0.00    +0.195 C 
ATOM      3  O   UNL     1      -4.306  -4.060   0.037  0.00  0.00    -0.446 OA
ATOM      4  C   UNL     1      -5.374  -3.322  -0.302  0.00  0.00    +0.116 C 
ATOM      5  C   UNL     1      -5.325  -1.983  -0.350  0.00  0.00    +0.098 C 
ATOM      6  C   UNL     1      -4.059  -1.245  -0.018  0.00  0.00    +0.145 C 
ATOM      7  C   UNL     1      -4.173  -0.564   1.322  0.00  0.00    -0.002 A 
ATOM      8  C   UNL     1      -4.374  -1.032   2.601  0.00  0.00    +0.007 A 
ATOM      9  C   UNL     1      -4.435  -0.144   3.661  0.00  0.00    +0.000 A 
ATOM     10  C   UNL     1      -4.293   1.212   3.432  0.00  0.00    +0.002 A 
ATOM     11  C   UNL     1      -4.091   1.685   2.151  0.00  0.00    +0.024 A 
ATOM     12  C   UNL     1      -4.029   0.797   1.079  0.00  0.00    +0.042 A 
ATOM     13  N   UNL     1      -3.838   1.026  -0.284  0.00  0.00    -0.258 N 
ATOM     14  C   UNL     1      -3.842  -0.114  -0.997  0.00  0.00    +0.241 C 
ATOM     15  O   UNL     1      -3.699  -0.216  -2.197  0.00  0.00    -0.274 OA
ATOM     16  C   UNL     1      -6.667  -4.018  -0.639  0.00  0.00    +0.087 C 
ENDROOT
BRANCH   2  17
ATOM     17  N   UNL     1      -1.984  -4.356  -0.018  0.00  0.00    -0.329 N 
ATOM     18  H   UNL     1      -1.089  -3.983   0.033  0.00  0.00    +0.145 HD
ATOM     19  H   UNL     1      -2.106  -5.316  -0.079  0.00  0.00    +0.145 HD
ENDBRANCH   2  17
BRANCH   1  20
ATOM     20  C   UNL     1      -1.581  -1.660  -0.077  0.00  0.00    +0.342 C 
ATOM     21  O   UNL     1      -1.078  -1.195   0.930  0.00  0.00    -0.245 OA
BRANCH  20  22
ATOM     22  O   UNL     1      -0.884  -1.676  -1.234  0.00  0.00    -0.462 OA
BRANCH  22  24
ATOM     23  C   UNL     1       1.063  -1.222  -2.591  0.00  0.00    +0.048 C 
ATOM     24  C   UNL     1       0.476  -1.242  -1.179  0.00  0.00    +0.229 C 
ENDBRANCH  22  24
ENDBRANCH  20  22
ENDBRANCH   1  20
BRANCH   5  25
ATOM     25  C   UNL     1      -6.484  -1.254  -0.713  0.00  0.00    +0.340 C 
ATOM     26  O   UNL     1      -7.515  -1.843  -0.978  0.00  0.00    -0.245 OA
BRANCH  25  27
ATOM     27  O   UNL     1      -6.446   0.094  -0.764  0.00  0.00    -0.457 OA
BRANCH  27  28
ATOM     28  C   UNL     1      -7.651   0.764  -1.137  0.00  0.00    +0.268 C 
BRANCH  28  29
ATOM     29  C   UNL     1      -7.418   2.252  -1.140  0.00  0.00    -0.010 A 
ATOM     30  C   UNL     1      -7.633   2.988   0.011  0.00  0.00    +0.007 A 
ATOM     31  C   UNL     1      -7.419   4.353   0.009  0.00  0.00    +0.000 A 
ATOM     32  C   UNL     1      -6.991   4.984  -1.145  0.00  0.00    +0.000 A 
ATOM     33  C   UNL     1      -6.776   4.248  -2.295  0.00  0.00    +0.000 A 
ATOM     34  C   UNL     1      -6.985   2.882  -2.292  0.00  0.00    +0.007 A 
ENDBRANCH  28  29
ENDBRANCH  27  28
ENDBRANCH  25  27
ENDBRANCH   5  25
BRANCH  13  35
ATOM     35  C   UNL     1      -3.653   2.355  -0.872  0.00  0.00    +0.202 C 
BRANCH  35  36
ATOM     36  C   UNL     1      -2.215   2.646  -0.987  0.00  0.00    -0.086 C 
ATOM     37  C   UNL     1      -1.067   2.877  -1.079  0.00  0.00    +0.005 C 
ENDBRANCH  35  36
ENDBRANCH  13  35
TORSDOF 10
