REMARK  Name = ZINC06922165
REMARK  8 active torsions:
REMARK  status: ('A' for Active; 'I' for Inactive)
REMARK    1  A    between atoms: C_1  and  C_2
REMARK    2  A    between atoms: C_4  and  O_11
REMARK    3  A    between atoms: C_7  and  N_8
REMARK    4  A    between atoms: O_11  and  C_12
REMARK    5  A    between atoms: C_12  and  C_13
REMARK    6  A    between atoms: C_16  and  C_18
REMARK    7  A    between atoms: C_21  and  C_25
REMARK    8  A    between atoms: C_21  and  O_29
REMARK                            x       y       z     vdW  Elec       q    Type
REMARK                         _______ _______ _______ _____ _____    ______ ____
ROOT
ATOM      1  C   UNL     1      -0.301   5.420   0.731  0.00  0.00    +0.143 A 
ATOM      2  C   UNL     1      -0.159   6.394  -0.195  0.00  0.00    +0.049 A 
ATOM      3  C   UNL     1      -0.145   7.618   0.491  0.00  0.00    +0.055 A 
ATOM      4  C   UNL     1      -0.281   7.325   1.818  0.00  0.00    +0.192 A 
ATOM      5  O   UNL     1      -0.379   5.985   1.942  0.00  0.00    -0.452 OA
ENDROOT
BRANCH   4   6
ATOM      6  C   UNL     1      -0.318   8.297   2.916  0.00  0.00    +0.304 C 
ATOM      7  O   UNL     1      -0.223   9.487   2.678  0.00  0.00    -0.265 OA
ATOM      8  N   UNL     1      -0.457   7.873   4.187  0.00  0.00    -0.146 N 
ATOM      9  C   UNL     1      -0.509   8.736   5.379  0.00  0.00    +0.256 C 
ATOM     10  C   UNL     1      -0.673   7.730   6.537  0.00  0.00    +0.115 C 
ATOM     11  C   UNL     1      -0.696   6.385   5.846  0.00  0.00    +0.108 C 
ATOM     12  N   UNL     1      -0.581   6.545   4.591  0.00  0.00    -0.187 NA
BRANCH   9  13
ATOM     13  C   UNL     1      -1.710   9.680   5.309  0.00  0.00    +0.438 C 
ATOM     14  F   UNL     1      -2.887   8.931   5.208  0.00  0.00    -0.166 F 
ATOM     15  F   UNL     1      -1.755  10.464   6.467  0.00  0.00    -0.166 F 
ATOM     16  F   UNL     1      -1.587  10.509   4.189  0.00  0.00    -0.166 F 
ENDBRANCH   9  13
BRANCH   9  17
ATOM     17  O   UNL     1       0.707   9.473   5.521  0.00  0.00    -0.363 OA
ATOM     18  H   UNL     1       0.895  10.068   4.782  0.00  0.00    +0.212 HD
ENDBRANCH   9  17
ENDBRANCH   4   6
BRANCH   1  19
ATOM     19  C   UNL     1      -0.366   3.941   0.447  0.00  0.00    +0.303 C 
BRANCH  19  20
ATOM     20  O   UNL     1       0.953   3.392   0.476  0.00  0.00    -0.484 OA
BRANCH  20  24
ATOM     21  C   UNL     1       3.799  -0.547   0.019  0.00  0.00    +0.046 C 
ATOM     22  C   UNL     1       2.440   0.105   0.006  0.00  0.00    -0.017 A 
ATOM     23  C   UNL     1       2.322   1.460   0.249  0.00  0.00    +0.051 A 
ATOM     24  C   UNL     1       1.071   2.059   0.237  0.00  0.00    +0.122 A 
ATOM     25  C   UNL     1      -0.059   1.296  -0.019  0.00  0.00    +0.048 A 
ATOM     26  C   UNL     1       0.065  -0.059  -0.262  0.00  0.00    +0.036 A 
ATOM     27  C   UNL     1       1.313  -0.654  -0.249  0.00  0.00    +0.129 A 
BRANCH  27  28
ATOM     28  N   UNL     1       1.442  -2.105  -0.509  0.00  0.00    +0.057 N 
ATOM     29  O   UNL     1       2.394  -2.528  -1.140  0.00  0.00    -0.126 OA
ATOM     30  O   UNL     1       0.597  -2.876  -0.092  0.00  0.00    -0.126 OA
ENDBRANCH  27  28
ENDBRANCH  20  24
ENDBRANCH  19  20
ENDBRANCH   1  19
TORSDOF 7
