REMARK  Name = ZINC04162956
REMARK  12 active torsions:
REMARK  status: ('A' for Active; 'I' for Inactive)
REMARK    1  A    between atoms: C_1  and  C_2
REMARK    2  A    between atoms: C_2  and  C_3
REMARK    3  A    between atoms: C_3  and  C_4
REMARK    4  A    between atoms: C_11  and  N_34
REMARK    5  A    between atoms: C_12  and  C_32
REMARK    6  A    between atoms: C_13  and  C_15
REMARK    7  A    between atoms: C_18  and  O_30
REMARK    8  A    between atoms: C_19  and  C_21
REMARK    9  A    between atoms: C_21  and  N_22
REMARK   10  A    between atoms: C_23  and  C_29
REMARK   11  A    between atoms: C_25  and  C_27
REMARK   12  A    between atoms: O_30  and  C_31
REMARK                            x       y       z     vdW  Elec       q    Type
REMARK                         _______ _______ _______ _____ _____    ______ ____
ROOT
ATOM      1  C   UNL     1      -1.413  -2.041   0.005  0.00  0.00    +0.071 A 
ATOM      2  C   UNL     1      -1.407  -2.849  -1.124  0.00  0.00    +0.049 A 
ATOM      3  C   UNL     1      -1.387  -4.152  -0.711  0.00  0.00    +0.222 A 
ATOM      4  N   UNL     1      -1.381  -4.152   0.632  0.00  0.00    -0.246 N 
ATOM      5  H   UNL     1      -1.369  -4.936   1.203  0.00  0.00    +0.192 HD
ATOM      6  N   UNL     1      -1.392  -2.816   1.062  0.00  0.00    -0.176 NA
ATOM      7  O   UNL     1      -1.373  -5.195  -1.577  0.00  0.00    -0.423 OA
ATOM      8  C   UNL     1      -1.104  -4.928  -2.872  0.00  0.00    +0.200 C 
ATOM      9  C   UNL     1      -1.106  -3.684  -3.399  0.00  0.00    +0.098 C 
ATOM     10  C   UNL     1      -1.420  -2.458  -2.579  0.00  0.00    +0.101 C 
ENDROOT
BRANCH  10  11
ATOM     11  C   UNL     1      -2.782  -1.931  -2.951  0.00  0.00    -0.034 A 
ATOM     12  C   UNL     1      -3.896  -2.739  -2.811  0.00  0.00    +0.008 A 
ATOM     13  C   UNL     1      -5.145  -2.259  -3.152  0.00  0.00    +0.046 A 
ATOM     14  C   UNL     1      -5.282  -0.965  -3.636  0.00  0.00    +0.125 A 
ATOM     15  C   UNL     1      -4.163  -0.158  -3.776  0.00  0.00    +0.016 A 
ATOM     16  C   UNL     1      -2.916  -0.641  -3.428  0.00  0.00    +0.013 A 
BRANCH  14  17
ATOM     17  O   UNL     1      -6.510  -0.491  -3.973  0.00  0.00    -0.495 OA
ATOM     18  C   UNL     1      -7.617  -1.378  -3.804  0.00  0.00    +0.277 C 
ENDBRANCH  14  17
BRANCH  15  19
ATOM     19  C   UNL     1      -4.308   1.248  -4.301  0.00  0.00    +0.182 C 
BRANCH  19  20
ATOM     20  N   UNL     1      -4.420   1.214  -5.761  0.00  0.00    -0.263 N 
ATOM     21  C   UNL     1      -3.395   1.270  -6.638  0.00  0.00    +0.051 A 
ATOM     22  C   UNL     1      -3.916   1.211  -7.886  0.00  0.00    +0.061 A 
ATOM     23  C   UNL     1      -5.307   1.115  -7.767  0.00  0.00    +0.074 A 
ATOM     24  N   UNL     1      -5.610   1.111  -6.494  0.00  0.00    -0.175 NA
ATOM     25  C   UNL     1      -6.287   1.026  -8.908  0.00  0.00    +0.068 C 
ATOM     26 BR   UNL     1      -2.938   1.251  -9.504  0.00  0.00    -0.047 Br
ATOM     27  C   UNL     1      -1.933   1.380  -6.290  0.00  0.00    +0.066 C 
ENDBRANCH  19  20
ENDBRANCH  15  19
ENDBRANCH  10  11
BRANCH   8  28
ATOM     28  N   UNL     1      -0.810  -5.982  -3.701  0.00  0.00    -0.328 N 
ATOM     29  H   UNL     1      -0.800  -6.886  -3.352  0.00  0.00    +0.145 HD
ATOM     30  H   UNL     1      -0.612  -5.821  -4.637  0.00  0.00    +0.145 HD
ENDBRANCH   8  28
BRANCH   9  31
ATOM     31  C   UNL     1      -0.799  -3.524  -4.789  0.00  0.00    +0.101 C 
ATOM     32  N   UNL     1      -0.555  -3.397  -5.891  0.00  0.00    -0.191 NA
ENDBRANCH   9  31
BRANCH   1  33
ATOM     33  C   UNL     1      -1.433  -0.534   0.013  0.00  0.00    +0.057 C 
BRANCH  33  35
ATOM     34  C   UNL     1      -0.019   1.526   0.010  0.00  0.00    +0.004 C 
ATOM     35  C   UNL     1       0.002  -0.004   0.002  0.00  0.00    +0.003 C 
ENDBRANCH  33  35
ENDBRANCH   1  33
TORSDOF 8
