REMARK  Name = ZINC20906002
REMARK  10 active torsions:
REMARK  status: ('A' for Active; 'I' for Inactive)
REMARK    1  A    between atoms: C_1  and  O_2
REMARK    2  A    between atoms: O_2  and  C_3
REMARK    3  A    between atoms: C_3  and  C_5
REMARK    4  A    between atoms: C_8  and  C_11
REMARK    5  A    between atoms: N_12  and  N_13
REMARK    6  A    between atoms: C_16  and  S_19
REMARK    7  A    between atoms: S_19  and  C_20
REMARK    8  A    between atoms: C_20  and  C_21
REMARK    9  A    between atoms: C_21  and  C_22
REMARK   10  A    between atoms: N_24  and  C_25
REMARK                            x       y       z     vdW  Elec       q    Type
REMARK                         _______ _______ _______ _____ _____    ______ ____
ROOT
ATOM      1  N   UNL     1      -6.239   5.982   0.061  0.00  0.00    -0.205 N 
ATOM      2  C   UNL     1      -6.258   7.370   0.070  0.00  0.00    +0.232 A 
ATOM      3  N   UNL     1      -7.372   8.169   0.071  0.00  0.00    -0.186 NA
ATOM      4  C   UNL     1      -6.903   9.456   0.081  0.00  0.00    +0.210 A 
ATOM      5  N   UNL     1      -5.593   9.390   0.086  0.00  0.00    -0.144 NA
ATOM      6  N   UNL     1      -5.215   8.162   0.084  0.00  0.00    -0.245 N 
ATOM      7  H   UNL     1      -7.184   5.420   0.055  0.00  0.00    +0.177 HD
ATOM      8  H   UNL     1      -4.201   7.735   0.092  0.00  0.00    +0.192 HD
ENDROOT
BRANCH   1  10
ATOM      9  C   UNL     1      -4.999   3.998   0.053  0.00  0.00    +0.138 C 
ATOM     10  N   UNL     1      -5.017   5.298   0.061  0.00  0.00    -0.188 NA
BRANCH   9  14
ATOM     11  C   UNL     1      -1.303   1.930   0.051  0.00  0.00    +0.059 A 
ATOM     12  C   UNL     1      -1.321   3.329   0.065  0.00  0.00    +0.015 A 
ATOM     13  C   UNL     1      -2.512   3.996   0.060  0.00  0.00    +0.010 A 
ATOM     14  C   UNL     1      -3.715   3.280   0.052  0.00  0.00    -0.005 A 
ATOM     15  C   UNL     1      -3.696   1.880   0.044  0.00  0.00    +0.010 A 
ATOM     16  C   UNL     1      -2.505   1.214   0.043  0.00  0.00    +0.015 A 
BRANCH  11  17
ATOM     17  C   UNL     1      -0.016   1.210   0.050  0.00  0.00    +0.339 C 
ATOM     18  O   UNL     1       0.000  -0.005   0.043  0.00  0.00    -0.245 OA
BRANCH  17  20
ATOM     19  C   UNL     1       2.370   1.125   0.044  0.00  0.00    +0.280 C 
ATOM     20  O   UNL     1       1.142   1.899   0.051  0.00  0.00    -0.464 OA
ENDBRANCH  17  20
ENDBRANCH  11  17
ENDBRANCH   9  14
ENDBRANCH   1  10
BRANCH   4  21
ATOM     21  S   UNL     1      -7.876  10.925   0.088  0.00  0.00    -0.084 S 
BRANCH  21  22
ATOM     22  C   UNL     1      -6.564  12.171   0.101  0.00  0.00    +0.086 C 
BRANCH  22  23
ATOM     23  C   UNL     1      -7.187  13.568   0.108  0.00  0.00    +0.107 C 
BRANCH  23  24
ATOM     24  C   UNL     1      -6.095  14.606   0.119  0.00  0.00    +0.218 C 
ATOM     25  O   UNL     1      -4.932  14.262   0.121  0.00  0.00    -0.275 OA
ATOM     26  N   UNL     1      -6.410  15.917   0.127  0.00  0.00    -0.285 N 
ATOM     27  H   UNL     1      -7.462  16.230   0.048  0.00  0.00    +0.155 HD
BRANCH  26  28
ATOM     28  C   UNL     1      -5.399  16.879   0.234  0.00  0.00    +0.033 A 
ATOM     29  C   UNL     1      -5.631  18.056   0.934  0.00  0.00    +0.024 A 
ATOM     30  C   UNL     1      -4.631  19.001   1.044  0.00  0.00    +0.017 A 
ATOM     31  C   UNL     1      -3.402  18.782   0.447  0.00  0.00    +0.018 A 
ATOM     32  C   UNL     1      -3.170  17.613  -0.255  0.00  0.00    +0.017 A 
ATOM     33  C   UNL     1      -4.165  16.661  -0.363  0.00  0.00    +0.024 A 
ATOM     34 BR   UNL     1      -2.036  20.082   0.594  0.00  0.00    -0.050 Br
ENDBRANCH  26  28
ENDBRANCH  23  24
ENDBRANCH  22  23
ENDBRANCH  21  22
ENDBRANCH   4  21
TORSDOF 9
