REMARK  Name = ZINC15956712
REMARK  14 active torsions:
REMARK  status: ('A' for Active; 'I' for Inactive)
REMARK    1  A    between atoms: CD1_1  and  CG_2
REMARK    2  A    between atoms: CG_2  and  CD2_3
REMARK    3  A    between atoms: CG_2  and  CB_4
REMARK    4  A    between atoms: CB_4  and  CA_5
REMARK    5  A    between atoms: CA_5  and  C_7
REMARK    6  A    between atoms: CA_5  and  N_9
REMARK    7  A    between atoms: C_10  and  C_12
REMARK    8  A    between atoms: C_12  and  O_13
REMARK    9  A    between atoms: O_13  and  N_14
REMARK   10  A    between atoms: C_18  and  C_40
REMARK   11  A    between atoms: C_23  and  C_39
REMARK   12  A    between atoms: C_34  and  C_35
REMARK   13  A    between atoms: C_34  and  O_38
REMARK   14  A    between atoms: C_35  and  C_37
REMARK                            x       y       z     vdW  Elec       q    Type
REMARK                         _______ _______ _______ _____ _____    ______ ____
ROOT
ATOM      1  N   UNK A   0       2.154   4.334   0.005  0.00  0.00    -0.089 NA
ATOM      2  C   UNK A   0       2.034   5.620   0.013  0.00  0.00    +0.080 C 
ATOM      3  C   UNK A   0       0.688   6.321   0.025  0.00  0.00    +0.059 C 
ATOM      4  C   UNK A   0       0.634   7.240  -1.189  0.00  0.00    +0.017 C 
ATOM      5  C   UNK A   0       1.843   8.146  -1.340  0.00  0.00    -0.007 C 
ATOM      6  C   UNK A   0       1.478   9.582  -1.014  0.00  0.00    +0.002 C 
ATOM      7  C   UNK A   0       0.411  10.129  -1.953  0.00  0.00    +0.005 C 
ATOM      8  C   UNK A   0       0.921  10.864  -3.192  0.00  0.00    +0.010 C 
ATOM      9  C   UNK A   0       1.993  11.856  -2.812  0.00  0.00    +0.007 C 
ATOM     10  C   UNK A   0       3.139  11.098  -2.104  0.00  0.00    +0.002 C 
ATOM     11  C   UNK A   0       2.640  10.537  -0.798  0.00  0.00    -0.003 C 
ATOM     12  C   UNK A   0       3.776   9.940   0.026  0.00  0.00    +0.008 C 
ATOM     13  C   UNK A   0       4.267   8.635  -0.603  0.00  0.00    +0.031 C 
ATOM     14  C   UNK A   0       3.071   7.696  -0.615  0.00  0.00    -0.062 C 
ATOM     15  C   UNK A   0       3.196   6.531   0.007  0.00  0.00    +0.026 C 
ATOM     16  C   UNK A   0       4.221  12.184  -2.005  0.00  0.00    +0.008 C 
ATOM     17  C   UNK A   0       4.130  12.892  -3.383  0.00  0.00    +0.043 C 
ATOM     18  C   UNK A   0       2.721  12.578  -3.949  0.00  0.00    +0.129 C 
ATOM     19  C   UNK A   0       1.388  12.933  -1.902  0.00  0.00    +0.015 C 
ATOM     20  C   UNK A   0       2.201   8.047  -2.828  0.00  0.00    +0.016 C 
ENDROOT
BRANCH  18  21
ATOM     21  C   UNK A   0       2.836  11.719  -5.177  0.00  0.00    +0.162 C 
ATOM     22  O   UNK A   0       2.812  10.516  -5.077  0.00  0.00    -0.295 OA
ATOM     23  C   UNK A   0       2.982  12.359  -6.534  0.00  0.00    +0.089 C 
ENDBRANCH  18  21
BRANCH  18  24
ATOM     24  O   UNK A   0       2.038  13.796  -4.261  0.00  0.00    -0.381 OA
ATOM     25  H   UNK A   0       2.447  14.305  -4.975  0.00  0.00    +0.211 HD
ENDBRANCH  18  24
BRANCH   1  26
ATOM     26  O   UNK A   0       0.998   3.516   0.011  0.00  0.00    -0.384 OA
BRANCH  26  27
ATOM     27  C   UNK A   0       1.278   2.115   0.001  0.00  0.00    +0.358 C 
BRANCH  27  29
ATOM     28  N   LEU A   1       0.002  -0.004   0.002  0.00  0.00    -0.299 N 
ATOM     29  C   UNK A   0      -0.016   1.344   0.009  0.00  0.00    +0.254 C 
ATOM     30  O   UNK A   0      -1.075   1.936   0.018  0.00  0.00    -0.272 OA
ATOM     31  H   LEU A   1       0.849  -0.478  -0.009  0.00  0.00    +0.150 HD
BRANCH  28  32
ATOM     32  CA  LEU A   1      -1.256  -0.754   0.010  0.00  0.00    +0.187 C 
BRANCH  32  33
ATOM     33  C   LEU A   1      -1.765  -0.897  -1.401  0.00  0.00    +0.376 C 
ATOM     34  O   LEU A   1      -1.140  -0.421  -2.320  0.00  0.00    -0.244 OA
ATOM     35  OXT LEU A   1      -2.912  -1.552  -1.638  0.00  0.00    -0.244 OA
ENDBRANCH  32  33
BRANCH  32  36
ATOM     36  CB  LEU A   1      -1.020  -2.141   0.610  0.00  0.00    +0.037 C 
BRANCH  36  38
ATOM     37  CD1 LEU A   1      -1.795  -1.412   2.870  0.00  0.00    +0.007 C 
ATOM     38  CG  LEU A   1      -0.624  -2.000   2.081  0.00  0.00    -0.015 C 
ATOM     39  CD2 LEU A   1      -0.266  -3.376   2.647  0.00  0.00    +0.007 C 
ENDBRANCH  36  38
ENDBRANCH  32  36
ENDBRANCH  28  32
ENDBRANCH  27  29
ENDBRANCH  26  27
ENDBRANCH   1  26
TORSDOF 9
