REMARK  Name = ZINC08604752
REMARK  7 active torsions:
REMARK  status: ('A' for Active; 'I' for Inactive)
REMARK    1  A    between atoms: C_1  and  C_2
REMARK    2  A    between atoms: C_5  and  N_11
REMARK    3  A    between atoms: C_6  and  N_8
REMARK    4  A    between atoms: N_11  and  C_12
REMARK    5  A    between atoms: C_12  and  C_14
REMARK    6  A    between atoms: C_12  and  C_21
REMARK    7  A    between atoms: C_24  and  C_26
REMARK                            x       y       z     vdW  Elec       q    Type
REMARK                         _______ _______ _______ _____ _____    ______ ____
ROOT
ATOM      1  C   UNL     1       0.723  -4.880  -1.130  0.00  0.00    +0.192 C 
ENDROOT
BRANCH   1   2
ATOM      2  C   UNL     1       2.151  -4.768  -1.598  0.00  0.00    +0.017 A 
ATOM      3  C   UNL     1       3.158  -4.503  -0.689  0.00  0.00    +0.009 A 
ATOM      4  C   UNL     1       4.468  -4.400  -1.118  0.00  0.00    +0.001 A 
ATOM      5  C   UNL     1       4.772  -4.562  -2.457  0.00  0.00    +0.003 A 
ATOM      6  C   UNL     1       3.767  -4.828  -3.367  0.00  0.00    +0.039 A 
ATOM      7  C   UNL     1       2.455  -4.936  -2.938  0.00  0.00    +0.129 A 
ATOM      8  F   UNL     1       1.473  -5.200  -3.826  0.00  0.00    -0.205 F 
ENDBRANCH   1   2
BRANCH   1   9
ATOM      9  C   UNL     1       0.389  -6.327  -0.875  0.00  0.00    +0.242 A 
ATOM     10  N   UNL     1       0.775  -7.037   0.148  0.00  0.00    -0.110 NA
ATOM     11  N   UNL     1       0.307  -8.231   0.044  0.00  0.00    -0.107 NA
ATOM     12  C   UNL     1      -0.399  -8.324  -1.058  0.00  0.00    +0.248 A 
ATOM     13  O   UNL     1      -0.364  -7.118  -1.658  0.00  0.00    -0.418 OA
BRANCH  12  14
ATOM     14  C   UNL     1      -1.106  -9.527  -1.547  0.00  0.00    +0.038 A 
ATOM     15  C   UNL     1      -1.817  -9.482  -2.747  0.00  0.00    +0.013 A 
ATOM     16  C   UNL     1      -2.474 -10.608  -3.199  0.00  0.00    +0.001 A 
ATOM     17  C   UNL     1      -2.430 -11.780  -2.464  0.00  0.00    +0.000 A 
ATOM     18  C   UNL     1      -1.726 -11.831  -1.274  0.00  0.00    +0.001 A 
ATOM     19  C   UNL     1      -1.060 -10.714  -0.815  0.00  0.00    +0.013 A 
ENDBRANCH  12  14
ENDBRANCH   1   9
BRANCH   1  20
ATOM     20  N   UNL     1       0.553  -4.114   0.108  0.00  0.00    -0.327 N 
ATOM     21  H   UNL     1       0.626  -4.559   0.967  0.00  0.00    +0.147 HD
BRANCH  20  26
ATOM     22  C   UNL     1      -0.530   1.447  -0.124  0.00  0.00    +0.044 C 
ATOM     23  C   UNL     1      -0.243  -0.031  -0.062  0.00  0.00    -0.048 A 
ATOM     24  C   UNL     1       0.039  -0.728  -1.223  0.00  0.00    +0.005 A 
ATOM     25  C   UNL     1       0.304  -2.082  -1.170  0.00  0.00    +0.025 A 
ATOM     26  C   UNL     1       0.286  -2.744   0.051  0.00  0.00    +0.059 A 
ATOM     27  C   UNL     1       0.003  -2.041   1.215  0.00  0.00    +0.147 A 
ATOM     28  C   UNL     1      -0.256  -0.686   1.155  0.00  0.00    +0.038 A 
BRANCH  27  29
ATOM     29  N   UNL     1      -0.017  -2.743   2.518  0.00  0.00    +0.058 N 
ATOM     30  O   UNL     1      -0.459  -3.866   2.593  0.00  0.00    -0.126 OA
ATOM     31  O   UNL     1       0.408  -2.193   3.507  0.00  0.00    -0.126 OA
ENDBRANCH  27  29
ENDBRANCH  20  26
ENDBRANCH   1  20
TORSDOF 6
