REMARK  Name = ZINC66186030
REMARK  6 active torsions:
REMARK  status: ('A' for Active; 'I' for Inactive)
REMARK    1  A    between atoms: C_1  and  C_2
REMARK    2  A    between atoms: C_2  and  C_4
REMARK    3  A    between atoms: C_2  and  N_17
REMARK    4  A    between atoms: C_7  and  N_10
REMARK    5  A    between atoms: N_13  and  C_14
REMARK    6  A    between atoms: C_23  and  N_26
REMARK                            x       y       z     vdW  Elec       q    Type
REMARK                         _______ _______ _______ _____ _____    ______ ____
ROOT
ATOM      1  C   UNL     1      -0.191   1.534  -0.099  0.00  0.00    +0.033 C 
ATOM      2  C   UNL     1       0.012   0.021  -0.002  0.00  0.00    +0.102 C 
ENDROOT
BRANCH   2   3
ATOM      3  N   UNL     1       0.826  -0.288   1.176  0.00  0.00    -0.293 N 
ATOM      4  C   UNL     1       0.241  -0.420   2.383  0.00  0.00    +0.303 C 
ATOM      5  O   UNL     1      -0.962  -0.282   2.494  0.00  0.00    -0.253 OA
ATOM      6  N   UNL     1       0.989  -0.704   3.468  0.00  0.00    -0.287 N 
ATOM      7  C   UNL     1       2.447  -0.890   3.477  0.00  0.00    +0.108 C 
ATOM      8  C   UNL     1       2.857  -1.223   4.927  0.00  0.00    +0.005 C 
ATOM      9  C   UNL     1       1.541  -1.763   5.545  0.00  0.00    -0.049 C 
ATOM     10  C   UNL     1       0.482  -0.875   4.841  0.00  0.00    +0.094 C 
ATOM     11  H   UNL     1       1.785  -0.398   1.088  0.00  0.00    +0.151 HD
BRANCH   9  12
ATOM     12  N   UNL     1       1.517  -1.555   6.999  0.00  0.00    +0.383 N 
ATOM     13  C   UNL     1       0.291  -2.156   7.583  0.00  0.00    -0.078 C 
ATOM     14  C   UNL     1       0.670  -2.363   9.071  0.00  0.00    -0.020 C 
ATOM     15  C   UNL     1       2.156  -2.785   8.993  0.00  0.00    -0.020 C 
ATOM     16  C   UNL     1       2.653  -2.260   7.634  0.00  0.00    -0.078 C 
ATOM     17  H   UNL     1       1.558  -0.570   7.211  0.00  0.00    -0.081 HD
ENDBRANCH   9  12
ENDBRANCH   2   3
BRANCH   2  18
ATOM     18  C   UNL     1       0.715  -0.472  -1.241  0.00  0.00    -0.027 A 
ATOM     19  C   UNL     1       2.086  -0.335  -1.357  0.00  0.00    +0.007 A 
ATOM     20  C   UNL     1       2.733  -0.785  -2.491  0.00  0.00    +0.023 A 
ATOM     21  C   UNL     1       2.005  -1.376  -3.515  0.00  0.00    +0.035 A 
ATOM     22  C   UNL     1       0.628  -1.513  -3.396  0.00  0.00    +0.023 A 
ATOM     23  C   UNL     1      -0.012  -1.065  -2.257  0.00  0.00    +0.007 A 
BRANCH  21  24
ATOM     24  N   UNL     1       2.658  -1.833  -4.666  0.00  0.00    -0.269 N 
ATOM     25  C   UNL     1       3.907  -2.331  -4.579  0.00  0.00    +0.304 C 
ATOM     26  O   UNL     1       4.431  -2.473  -3.491  0.00  0.00    -0.253 OA
ATOM     27  N   UNL     1       4.576  -2.671  -5.699  0.00  0.00    -0.296 N 
ATOM     28  H   UNL     1       2.211  -1.792  -5.526  0.00  0.00    +0.156 HD
ATOM     29  H   UNL     1       4.158  -2.558  -6.567  0.00  0.00    +0.151 HD
BRANCH  27  30
ATOM     30  C   UNL     1       5.934  -3.212  -5.604  0.00  0.00    +0.075 C 
ATOM     31  C   UNL     1       6.976  -2.683  -6.593  0.00  0.00    +0.024 C 
ATOM     32  C   UNL     1       6.422  -4.101  -6.751  0.00  0.00    +0.024 C 
ENDBRANCH  27  30
ENDBRANCH  21  24
ENDBRANCH   2  18
TORSDOF 5
