REMARK  Name = ZINC39252340
REMARK  7 active torsions:
REMARK  status: ('A' for Active; 'I' for Inactive)
REMARK    1  A    between atoms: C_1  and  C_2
REMARK    2  A    between atoms: C_2  and  C_36
REMARK    3  A    between atoms: C_6  and  N_14
REMARK    4  A    between atoms: C_15  and  C_17
REMARK    5  A    between atoms: N_22  and  C_24
REMARK    6  A    between atoms: C_24  and  C_25
REMARK    7  A    between atoms: C_25  and  C_26
REMARK                            x       y       z     vdW  Elec       q    Type
REMARK                         _______ _______ _______ _____ _____    ______ ____
ROOT
ATOM      1  C   UNL     1       7.414  -0.762  -3.727  0.00  0.00    +0.101 C 
ATOM      2  C   UNL     1       7.694  -1.945  -2.772  0.00  0.00    +0.110 C 
ATOM      3  C   UNL     1       9.164  -2.240  -2.967  0.00  0.00    +0.216 C 
ATOM      4  O   UNL     1       9.720  -3.260  -2.621  0.00  0.00    -0.276 OA
ATOM      5  N   UNL     1       9.766  -1.206  -3.581  0.00  0.00    -0.300 N 
ATOM      6  C   UNL     1       8.814  -0.122  -3.857  0.00  0.00    +0.121 C 
ENDROOT
BRANCH   1   8
ATOM      7  N   UNL     1       5.169  -0.186  -2.861  0.00  0.00    -0.288 N 
ATOM      8  C   UNL     1       6.434   0.206  -3.115  0.00  0.00    +0.220 C 
ATOM      9  O   UNL     1       6.782   1.337  -2.852  0.00  0.00    -0.275 OA
ATOM     10  H   UNL     1       4.890  -1.091  -3.072  0.00  0.00    +0.151 HD
BRANCH   7  16
ATOM     11  C   UNL     1      -0.019   1.526   0.010  0.00  0.00    +0.011 C 
ATOM     12  C   UNL     1       0.002  -0.004   0.002  0.00  0.00    -0.023 C 
ATOM     13  C   UNL     1       0.696  -0.492  -1.270  0.00  0.00    +0.058 C 
ATOM     14  C   UNL     1       2.141   0.015  -1.257  0.00  0.00    +0.023 C 
ATOM     15  N   UNL     1       2.832   0.266  -2.397  0.00  0.00    -0.320 N 
ATOM     16  C   UNL     1       4.216   0.754  -2.267  0.00  0.00    +0.224 C 
ATOM     17  S   UNL     1       4.378   0.800  -0.433  0.00  0.00    -0.079 S 
ATOM     18  C   UNL     1       2.749   0.221  -0.046  0.00  0.00    +0.070 C 
ATOM     19  H   UNL     1       2.428   0.128  -3.268  0.00  0.00    +0.148 HD
ATOM     20  C   UNL     1       2.169   0.005   1.206  0.00  0.00    +0.171 C 
ATOM     21  O   UNL     1       2.787   0.219   2.230  0.00  0.00    -0.291 OA
ATOM     22  C   UNL     1       0.743  -0.506   1.243  0.00  0.00    +0.087 C 
ATOM     23  C   UNL     1      -1.435  -0.529   0.025  0.00  0.00    +0.011 C 
ENDBRANCH   7  16
ENDBRANCH   1   8
BRANCH   5  24
ATOM     24  C   UNL     1      11.188  -1.165  -3.930  0.00  0.00    +0.112 C 
BRANCH  24  25
ATOM     25  C   UNL     1      11.385  -1.738  -5.335  0.00  0.00    +0.056 C 
BRANCH  25  26
ATOM     26  C   UNL     1      12.848  -1.697  -5.694  0.00  0.00    -0.021 A 
ATOM     27  C   UNL     1      13.857  -2.702  -5.353  0.00  0.00    +0.004 A 
ATOM     28  C   UNL     1      13.825  -3.912  -4.657  0.00  0.00    +0.030 A 
ATOM     29  C   UNL     1      14.983  -4.643  -4.507  0.00  0.00    +0.042 A 
ATOM     30  C   UNL     1      16.178  -4.181  -5.043  0.00  0.00    +0.022 A 
ATOM     31  C   UNL     1      16.226  -2.990  -5.732  0.00  0.00    +0.027 A 
ATOM     32  C   UNL     1      15.069  -2.236  -5.896  0.00  0.00    +0.047 A 
ATOM     33  N   UNL     1      14.800  -1.036  -6.517  0.00  0.00    -0.360 N 
ATOM     34  C   UNL     1      13.472  -0.734  -6.391  0.00  0.00    +0.087 A 
ATOM     35 CL   UNL     1      14.948  -6.148  -3.643  0.00  0.00    -0.084 Cl
ATOM     36  H   UNL     1      15.455  -0.488  -6.978  0.00  0.00    +0.165 HD
ENDBRANCH  25  26
ENDBRANCH  24  25
ENDBRANCH   5  24
TORSDOF 5
