REMARK  Name = ZINC50059342
REMARK  5 active torsions:
REMARK  status: ('A' for Active; 'I' for Inactive)
REMARK    1  A    between atoms: C_3  and  N_12
REMARK    2  A    between atoms: C_6  and  C_7
REMARK    3  A    between atoms: N_15  and  C_16
REMARK    4  A    between atoms: C_16  and  C_17
REMARK    5  A    between atoms: N_19  and  C_20
REMARK                            x       y       z     vdW  Elec       q    Type
REMARK                         _______ _______ _______ _____ _____    ______ ____
ROOT
ATOM      1  N   UNL     1       3.662   2.171  -0.630  0.00  0.00    -0.269 N 
ATOM      2  C   UNL     1       4.806   1.513  -0.354  0.00  0.00    +0.304 C 
ATOM      3  O   UNL     1       4.796   0.304  -0.225  0.00  0.00    -0.252 OA
ATOM      4  N   UNL     1       5.960   2.196  -0.222  0.00  0.00    -0.291 N 
ATOM      5  H   UNL     1       3.682   3.124  -0.809  0.00  0.00    +0.156 HD
ATOM      6  H   UNL     1       5.968   3.160  -0.325  0.00  0.00    +0.151 HD
ENDROOT
BRANCH   1   9
ATOM      7  C   UNL     1       1.040  -0.277   0.175  0.00  0.00    +0.012 A 
ATOM      8  C   UNL     1       2.238   0.407   0.202  0.00  0.00    +0.024 A 
ATOM      9  C   UNL     1       2.446   1.478  -0.659  0.00  0.00    +0.035 A 
ATOM     10  C   UNL     1       1.450   1.863  -1.547  0.00  0.00    +0.024 A 
ATOM     11  C   UNL     1       0.251   1.182  -1.577  0.00  0.00    +0.012 A 
ATOM     12  C   UNL     1       0.039   0.107  -0.715  0.00  0.00    +0.003 A 
BRANCH  12  13
ATOM     13  C   UNL     1      -1.250  -0.627  -0.745  0.00  0.00    +0.102 A 
ATOM     14  C   UNL     1      -2.267  -0.300  -1.601  0.00  0.00    +0.097 A 
ATOM     15  S   UNL     1      -3.439  -1.435  -1.201  0.00  0.00    +0.029 S 
ATOM     16  N   UNL     1      -2.651  -2.236  -0.037  0.00  0.00    -0.110 NA
ATOM     17  N   UNL     1      -1.506  -1.655   0.049  0.00  0.00    -0.141 NA
ENDBRANCH  12  13
ENDBRANCH   1   9
BRANCH   4  18
ATOM     18  C   UNL     1       7.204   1.481   0.078  0.00  0.00    +0.202 C 
BRANCH  18  19
ATOM     19  C   UNL     1       8.339   2.467   0.174  0.00  0.00    +0.234 C 
ATOM     20  O   UNL     1       8.130   3.651   0.009  0.00  0.00    -0.274 OA
ATOM     21  N   UNL     1       9.587   2.035   0.444  0.00  0.00    -0.284 N 
ATOM     22  H   UNL     1       9.767   1.083   0.505  0.00  0.00    +0.155 HD
BRANCH  21  23
ATOM     23  C   UNL     1      10.622   2.958   0.636  0.00  0.00    +0.034 A 
ATOM     24  C   UNL     1      11.912   2.650   0.227  0.00  0.00    +0.026 A 
ATOM     25  C   UNL     1      12.932   3.562   0.417  0.00  0.00    +0.040 A 
ATOM     26  C   UNL     1      12.668   4.782   1.017  0.00  0.00    +0.124 A 
ATOM     27  C   UNL     1      11.382   5.091   1.426  0.00  0.00    +0.040 A 
ATOM     28  C   UNL     1      10.358   4.184   1.232  0.00  0.00    +0.026 A 
ATOM     29  F   UNL     1      13.667   5.672   1.203  0.00  0.00    -0.205 F 
ENDBRANCH  21  23
ENDBRANCH  18  19
ENDBRANCH   4  18
TORSDOF 5
