REMARK  Name = ZINC16900924
REMARK  10 active torsions:
REMARK  status: ('A' for Active; 'I' for Inactive)
REMARK    1  A    between atoms: C_1  and  C_2
REMARK    2  A    between atoms: C_2  and  C_3
REMARK    3  A    between atoms: C_3  and  C_4
REMARK    4  A    between atoms: C_4  and  O_5
REMARK    5  A    between atoms: O_5  and  C_6
REMARK    6  A    between atoms: C_6  and  C_8
REMARK    7  A    between atoms: C_11  and  N_14
REMARK    8  A    between atoms: N_14  and  C_15
REMARK    9  A    between atoms: N_20  and  C_23
REMARK   10  A    between atoms: C_26  and  C_29
REMARK                            x       y       z     vdW  Elec       q    Type
REMARK                         _______ _______ _______ _____ _____    ______ ____
ROOT
ATOM      1  C   UNL     1       4.288  -7.591   7.151  0.00  0.00    +0.166 C 
ATOM      2  C   UNL     1       4.655  -7.664   8.647  0.00  0.00    +0.128 C 
ATOM      3  C   UNL     1       6.041  -8.271   8.642  0.00  0.00    +0.228 C 
ATOM      4  O   UNL     1       6.708  -8.506   9.627  0.00  0.00    -0.275 OA
ATOM      5  N   UNL     1       6.414  -8.509   7.378  0.00  0.00    -0.209 N 
ATOM      6  C   UNL     1       5.502  -8.166   6.455  0.00  0.00    +0.247 C 
ATOM      7  O   UNL     1       5.629  -8.295   5.256  0.00  0.00    -0.273 OA
ENDROOT
BRANCH   5   8
ATOM      8  C   UNL     1       7.650  -9.070   7.047  0.00  0.00    +0.044 A 
ATOM      9  C   UNL     1       7.926 -10.390   7.390  0.00  0.00    +0.025 A 
ATOM     10  C   UNL     1       9.143 -10.946   7.065  0.00  0.00    +0.017 A 
ATOM     11  C   UNL     1      10.101 -10.183   6.391  0.00  0.00    +0.063 A 
ATOM     12  C   UNL     1       9.819  -8.856   6.048  0.00  0.00    +0.017 A 
ATOM     13  C   UNL     1       8.598  -8.309   6.372  0.00  0.00    +0.025 A 
BRANCH  11  14
ATOM     14  C   UNL     1      11.405 -10.774   6.042  0.00  0.00    +0.387 C 
ATOM     15  O   UNL     1      11.650 -11.934   6.343  0.00  0.00    -0.241 OA
ATOM     16  O   UNL     1      12.242 -10.105   5.452  0.00  0.00    -0.241 OA
ENDBRANCH  11  14
ENDBRANCH   5   8
BRANCH   1  17
ATOM     17  N   UNL     1       4.068  -6.202   6.741  0.00  0.00    -0.333 N 
ATOM     18  H   UNL     1       4.465  -5.478   7.249  0.00  0.00    +0.147 HD
BRANCH  17  22
ATOM     19  C   UNL     1       1.746  -5.364   3.397  0.00  0.00    +0.059 A 
ATOM     20  C   UNL     1       2.318  -4.321   4.131  0.00  0.00    +0.017 A 
ATOM     21  C   UNL     1       3.084  -4.601   5.234  0.00  0.00    +0.024 A 
ATOM     22  C   UNL     1       3.291  -5.922   5.623  0.00  0.00    +0.028 A 
ATOM     23  C   UNL     1       2.722  -6.963   4.893  0.00  0.00    +0.024 A 
ATOM     24  C   UNL     1       1.952  -6.690   3.793  0.00  0.00    +0.017 A 
BRANCH  19  25
ATOM     25  C   UNL     1       0.922  -5.067   2.211  0.00  0.00    +0.339 C 
ATOM     26  O   UNL     1       0.421  -5.974   1.577  0.00  0.00    -0.245 OA
BRANCH  25  27
ATOM     27  O   UNL     1       0.725  -3.789   1.831  0.00  0.00    -0.461 OA
BRANCH  27  28
ATOM     28  C   UNL     1      -0.084  -3.575   0.672  0.00  0.00    +0.232 C 
BRANCH  28  29
ATOM     29  C   UNL     1      -0.193  -2.074   0.398  0.00  0.00    +0.041 C 
BRANCH  29  31
ATOM     30  C   UNL     1      -1.169  -0.343  -1.117  0.00  0.00    +0.004 C 
ATOM     31  C   UNL     1      -1.059  -1.844  -0.843  0.00  0.00    -0.000 C 
ENDBRANCH  29  31
ENDBRANCH  28  29
ENDBRANCH  27  28
ENDBRANCH  25  27
ENDBRANCH  19  25
ENDBRANCH  17  22
ENDBRANCH   1  17
TORSDOF 9
