REMARK  Name = ZINC12567330
REMARK  5 active torsions:
REMARK  status: ('A' for Active; 'I' for Inactive)
REMARK    1  A    between atoms: C_9  and  C_11
REMARK    2  A    between atoms: C_11  and  O_12
REMARK    3  A    between atoms: O_12  and  C_13
REMARK    4  A    between atoms: C_13  and  C_15
REMARK    5  A    between atoms: C_24  and  O_27
REMARK                            x       y       z     vdW  Elec       q    Type
REMARK                         _______ _______ _______ _____ _____    ______ ____
ROOT
ATOM      1  O   UNL     1       0.143  -0.239   2.692  0.00  0.00    -0.455 OA
ENDROOT
BRANCH   1   2
ATOM      2  C   UNL     1       0.000   1.080   2.488  0.00  0.00    +0.314 C 
ATOM      3  O   UNL     1       0.456   1.867   3.283  0.00  0.00    -0.250 OA
BRANCH   2   4
ATOM      4  C   UNL     1      -0.729   1.579   1.267  0.00  0.00    +0.071 C 
ATOM      5  C   UNL     1      -0.750   3.109   1.275  0.00  0.00    +0.021 C 
ATOM      6  C   UNL     1      -1.490   3.616   0.036  0.00  0.00    -0.007 C 
ATOM      7  C   UNL     1      -0.773   3.123  -1.223  0.00  0.00    +0.007 C 
ATOM      8  C   UNL     1      -0.753   1.593  -1.232  0.00  0.00    -0.007 C 
ATOM      9  C   UNL     1      -0.013   1.086   0.008  0.00  0.00    +0.021 C 
ATOM     10  C   UNL     1      -2.188   1.063  -1.221  0.00  0.00    +0.038 C 
ATOM     11  C   UNL     1      -2.904   1.556   0.038  0.00  0.00    +0.068 C 
ATOM     12  C   UNL     1      -2.925   3.086   0.047  0.00  0.00    +0.038 C 
ATOM     13  C   UNL     1      -2.164   1.050   1.278  0.00  0.00    +0.052 C 
BRANCH  11  14
ATOM     14  O   UNL     1      -4.245   1.062   0.048  0.00  0.00    -0.389 OA
ATOM     15  H   UNL     1      -4.918   1.314   0.881  0.00  0.00    +0.210 HD
ENDBRANCH  11  14
ENDBRANCH   2   4
ENDBRANCH   1   2
BRANCH   1  16
ATOM     16  C   UNL     1       0.856  -0.648   3.889  0.00  0.00    +0.328 C 
BRANCH  16  25
ATOM     17  C   UNL     1       2.279  -6.159   6.144  0.00  0.00    +0.045 A 
ATOM     18  C   UNL     1       1.683  -6.875   5.113  0.00  0.00    +0.061 A 
ATOM     19  C   UNL     1       1.065  -6.190   4.085  0.00  0.00    +0.133 A 
ATOM     20  N   UNL     1       1.035  -4.871   4.071  0.00  0.00    -0.237 NA
ATOM     21  C   UNL     1       1.591  -4.154   5.034  0.00  0.00    +0.144 A 
ATOM     22  C   UNL     1       2.236  -4.776   6.099  0.00  0.00    +0.082 A 
ATOM     23 CL   UNL     1       2.971  -3.831   7.356  0.00  0.00    -0.080 Cl
ATOM     24  N   UNL     1       1.535  -2.761   4.979  0.00  0.00    -0.266 N 
ATOM     25  C   UNL     1       0.916  -2.152   3.948  0.00  0.00    +0.256 C 
ATOM     26  O   UNL     1       0.408  -2.815   3.069  0.00  0.00    -0.272 OA
ATOM     27 CL   UNL     1       1.715  -8.611   5.117  0.00  0.00    -0.082 Cl
ATOM     28  H   UNL     1       1.996  -2.160   5.777  0.00  0.00    +0.156 HD
ENDBRANCH  16  25
ENDBRANCH   1  16
TORSDOF 5
