REMARK  Name = ZINC20121330
REMARK  16 active torsions:
REMARK  status: ('A' for Active; 'I' for Inactive)
REMARK    1  A    between atoms: C_1  and  C_2
REMARK    2  A    between atoms: C_2  and  C_3
REMARK    3  A    between atoms: C_3  and  C_4
REMARK    4  A    between atoms: C_4  and  C_6
REMARK    5  A    between atoms: C_4  and  N_16
REMARK    6  A    between atoms: N_10  and  C_11
REMARK    7  A    between atoms: C_11  and  C_12
REMARK    8  A    between atoms: C_11  and  C_13
REMARK    9  A    between atoms: C_11  and  C_14
REMARK   10  A    between atoms: C_14  and  C_15
REMARK   11  A    between atoms: N_16  and  C_17
REMARK   12  A    between atoms: N_16  and  C_23
REMARK   13  A    between atoms: C_17  and  C_18
REMARK   14  A    between atoms: C_23  and  C_24
REMARK   15  A    between atoms: C_29  and  O_36
REMARK   16  A    between atoms: O_36  and  C_37
REMARK                            x       y       z     vdW  Elec       q    Type
REMARK                         _______ _______ _______ _____ _____    ______ ____
ROOT
ATOM      1  N   UNL     1       1.700  -1.718  -0.032  0.00  0.00    -0.281 NA
ENDROOT
BRANCH   1   2
ATOM      2  C   UNL     1       1.034  -1.692  -1.342  0.00  0.00    +0.127 C 
BRANCH   2   3
ATOM      3  C   UNL     1       1.609  -2.775  -2.219  0.00  0.00    +0.169 A 
ATOM      4  N   UNL     1       2.868  -3.129  -2.301  0.00  0.00    -0.112 NA
ATOM      5  N   UNL     1       2.956  -4.088  -3.158  0.00  0.00    -0.023 NA
ATOM      6  N   UNL     1       1.786  -4.354  -3.623  0.00  0.00    -0.043 NA
ATOM      7  N   UNL     1       0.927  -3.569  -3.065  0.00  0.00    -0.222 N 
BRANCH   7   8
ATOM      8  C   UNL     1      -0.517  -3.545  -3.308  0.00  0.00    +0.061 C 
ATOM      9  C   UNL     1      -1.256  -3.966  -2.036  0.00  0.00    +0.036 C 
ATOM     10  C   UNL     1      -0.944  -2.130  -3.702  0.00  0.00    +0.036 C 
BRANCH   8  11
ATOM     11  C   UNL     1      -0.859  -4.515  -4.441  0.00  0.00    +0.026 C 
ATOM     12  C   UNL     1      -2.368  -4.490  -4.696  0.00  0.00    +0.006 C 
ENDBRANCH   8  11
ENDBRANCH   7   8
ENDBRANCH   2   3
BRANCH   2  13
ATOM     13  C   UNL     1       1.259  -0.329  -2.001  0.00  0.00    +0.026 C 
BRANCH  13  15
ATOM     14  C   UNL     1       0.658   2.094  -1.912  0.00  0.00    +0.004 C 
ATOM     15  C   UNL     1       0.565   0.757  -1.176  0.00  0.00    -0.001 C 
ENDBRANCH  13  15
ENDBRANCH   2  13
ENDBRANCH   1   2
BRANCH   1  16
ATOM     16  C   UNL     1       2.993  -1.023  -0.084  0.00  0.00    +0.159 C 
BRANCH  16  17
ATOM     17  C   UNL     1       3.815  -1.400   1.121  0.00  0.00    +0.119 A 
ATOM     18  C   UNL     1       4.736  -2.379   1.169  0.00  0.00    +0.046 A 
ATOM     19  C   UNL     1       5.259  -2.385   2.483  0.00  0.00    +0.041 A 
ATOM     20  C   UNL     1       4.626  -1.410   3.159  0.00  0.00    +0.195 A 
ATOM     21  O   UNL     1       3.756  -0.813   2.327  0.00  0.00    -0.467 OA
ENDBRANCH  16  17
ENDBRANCH   1  16
BRANCH   1  22
ATOM     22  C   UNL     1       0.835  -1.145   1.009  0.00  0.00    +0.126 C 
BRANCH  22  23
ATOM     23  C   UNL     1      -0.157  -2.184   1.464  0.00  0.00    +0.031 A 
ATOM     24  C   UNL     1       0.124  -2.962   2.540  0.00  0.00    +0.020 A 
ATOM     25  C   UNL     1      -0.860  -3.959   2.958  0.00  0.00    -0.001 A 
ATOM     26  C   UNL     1      -0.625  -4.790   4.060  0.00  0.00    +0.013 A 
ATOM     27  C   UNL     1      -1.562  -5.711   4.427  0.00  0.00    +0.046 A 
ATOM     28  C   UNL     1      -2.752  -5.834   3.712  0.00  0.00    +0.122 A 
ATOM     29  C   UNL     1      -3.004  -5.023   2.619  0.00  0.00    +0.072 A 
ATOM     30  C   UNL     1      -2.062  -4.078   2.232  0.00  0.00    +0.053 A 
ATOM     31  N   UNL     1      -2.287  -3.256   1.148  0.00  0.00    -0.322 N 
ATOM     32  H   UNL     1      -3.115  -3.339   0.649  0.00  0.00    +0.169 HD
ATOM     33  C   UNL     1      -1.377  -2.339   0.775  0.00  0.00    +0.254 A 
ATOM     34  O   UNL     1      -1.612  -1.626  -0.186  0.00  0.00    -0.268 OA
BRANCH  28  35
ATOM     35  O   UNL     1      -3.673  -6.757   4.090  0.00  0.00    -0.495 OA
ATOM     36  C   UNL     1      -3.353  -7.564   5.226  0.00  0.00    +0.277 C 
ENDBRANCH  28  35
ENDBRANCH  22  23
ENDBRANCH   1  22
TORSDOF 11
