REMARK  Name = ZINC01076439
REMARK  5 active torsions:
REMARK  status: ('A' for Active; 'I' for Inactive)
REMARK    1  A    between atoms: C_3  and  N_10
REMARK    2  A    between atoms: C_5  and  N_7
REMARK    3  A    between atoms: C_11  and  C_13
REMARK    4  A    between atoms: N_18  and  S_20
REMARK    5  A    between atoms: S_20  and  C_23
REMARK                            x       y       z     vdW  Elec       q    Type
REMARK                         _______ _______ _______ _____ _____    ______ ____
ROOT
ATOM      1  C   UNL     1      -1.286  -2.202   2.778  0.00  0.00    +0.091 C 
ATOM      2  C   UNL     1      -0.039  -2.146   3.664  0.00  0.00    +0.015 C 
ATOM      3  C   UNL     1       1.201  -1.939   2.791  0.00  0.00    +0.018 C 
ATOM      4  C   UNL     1       1.079  -0.613   2.043  0.00  0.00    +0.109 C 
ATOM      5  N   UNL     1      -0.191  -0.596   1.303  0.00  0.00    -0.176 NA
ATOM      6  C   UNL     1      -1.437  -0.873   2.031  0.00  0.00    +0.122 C 
ENDROOT
BRANCH   1   8
ATOM      7  N   UNL     1      -2.590  -3.553   4.388  0.00  0.00    -0.285 N 
ATOM      8  C   UNL     1      -2.502  -2.438   3.636  0.00  0.00    +0.222 C 
ATOM      9  O   UNL     1      -3.401  -1.625   3.649  0.00  0.00    -0.275 OA
ATOM     10  H   UNL     1      -1.908  -4.239   4.319  0.00  0.00    +0.155 HD
BRANCH   7  13
ATOM     11  C   UNL     1      -5.236  -5.152   6.379  0.00  0.00    +0.004 A 
ATOM     12  C   UNL     1      -4.174  -4.989   5.510  0.00  0.00    +0.023 A 
ATOM     13  C   UNL     1      -3.666  -3.721   5.267  0.00  0.00    +0.036 A 
ATOM     14  C   UNL     1      -4.223  -2.619   5.902  0.00  0.00    +0.056 A 
ATOM     15  C   UNL     1      -5.289  -2.787   6.765  0.00  0.00    +0.128 A 
ATOM     16  C   UNL     1      -5.793  -4.052   7.005  0.00  0.00    +0.033 A 
BRANCH  15  17
ATOM     17  N   UNL     1      -5.888  -1.612   7.437  0.00  0.00    +0.056 N 
ATOM     18  O   UNL     1      -6.824  -1.760   8.202  0.00  0.00    -0.126 OA
ATOM     19  O   UNL     1      -5.445  -0.497   7.226  0.00  0.00    -0.126 OA
ENDBRANCH  15  17
ENDBRANCH   7  13
ENDBRANCH   1   8
BRANCH   5  20
ATOM     20  S   UNL     1      -0.216  -0.277  -0.322  0.00  0.00    +0.061 S 
ATOM     21  O   UNL     1      -1.403  -0.867  -0.833  0.00  0.00    -0.153 OA
ATOM     22  O   UNL     1       1.073  -0.604  -0.820  0.00  0.00    -0.153 OA
BRANCH  20  23
ATOM     23  C   UNL     1      -0.400   1.466  -0.507  0.00  0.00    +0.106 A 
ATOM     24  C   UNL     1      -1.663   2.022  -0.592  0.00  0.00    +0.031 A 
ATOM     25  C   UNL     1      -1.808   3.389  -0.732  0.00  0.00    +0.040 A 
ATOM     26  C   UNL     1      -0.688   4.201  -0.800  0.00  0.00    +0.124 A 
ATOM     27  C   UNL     1       0.576   3.642  -0.720  0.00  0.00    +0.040 A 
ATOM     28  C   UNL     1       0.719   2.275  -0.574  0.00  0.00    +0.031 A 
ATOM     29  F   UNL     1      -0.829   5.537  -0.943  0.00  0.00    -0.205 F 
ENDBRANCH  20  23
ENDBRANCH   5  20
TORSDOF 5
