REMARK  Name = ZINC11494572
REMARK  10 active torsions:
REMARK  status: ('A' for Active; 'I' for Inactive)
REMARK    1  A    between atoms: C_1  and  C_2
REMARK    2  A    between atoms: C_5  and  C_8
REMARK    3  A    between atoms: C_10  and  C_14
REMARK    4  A    between atoms: C_14  and  O_16
REMARK    5  A    between atoms: O_16  and  C_17
REMARK    6  A    between atoms: C_17  and  C_19
REMARK    7  A    between atoms: C_17  and  C_20
REMARK    8  A    between atoms: N_22  and  C_23
REMARK    9  A    between atoms: N_22  and  C_24
REMARK   10  A    between atoms: C_24  and  C_30
REMARK                            x       y       z     vdW  Elec       q    Type
REMARK                         _______ _______ _______ _____ _____    ______ ____
ROOT
ATOM      1  C   UNL     1       2.495   1.547  -0.012  0.00  0.00    +0.358 C 
ATOM      2  O   UNL     1       2.807   0.372  -0.021  0.00  0.00    -0.243 OA
ENDROOT
BRANCH   1   5
ATOM      3  C   UNL     1      -1.142   1.914   0.017  0.00  0.00    +0.093 A 
ATOM      4  C   UNL     1      -0.013   1.076   0.008  0.00  0.00    +0.064 A 
ATOM      5  C   UNL     1       1.075   1.929   0.002  0.00  0.00    +0.143 A 
ATOM      6  N   UNL     1       0.570   3.200   0.013  0.00  0.00    -0.270 N 
ATOM      7  H   UNL     1       1.118   4.036   0.012  0.00  0.00    +0.189 HD
ATOM      8  N   UNL     1      -0.714   3.159   0.025  0.00  0.00    -0.173 NA
BRANCH   3  13
ATOM      9  C   UNL     1      -6.644   0.208   0.032  0.00  0.00    +0.044 C 
ATOM     10  C   UNL     1      -5.204   0.655   0.029  0.00  0.00    -0.050 A 
ATOM     11  C   UNL     1      -4.901   2.004   0.034  0.00  0.00    +0.004 A 
ATOM     12  C   UNL     1      -3.584   2.418   0.030  0.00  0.00    +0.010 A 
ATOM     13  C   UNL     1      -2.560   1.474   0.021  0.00  0.00    +0.002 A 
ATOM     14  C   UNL     1      -2.871   0.116   0.010  0.00  0.00    +0.010 A 
ATOM     15  C   UNL     1      -4.191  -0.287   0.020  0.00  0.00    +0.004 A 
ENDBRANCH   3  13
ENDBRANCH   1   5
BRANCH   1  16
ATOM     16  O   UNL     1       3.449   2.499  -0.016  0.00  0.00    -0.448 OA
BRANCH  16  17
ATOM     17  C   UNL     1       4.830   2.048  -0.031  0.00  0.00    +0.259 C 
ATOM     18  C   UNL     1       5.301   1.896  -1.478  0.00  0.00    +0.062 C 
BRANCH  17  19
ATOM     19  C   UNL     1       5.695   3.058   0.676  0.00  0.00    +0.257 C 
ATOM     20  O   UNL     1       5.198   4.060   1.147  0.00  0.00    -0.272 OA
ATOM     21  N   UNL     1       7.022   2.849   0.787  0.00  0.00    -0.283 N 
ATOM     22  C   UNL     1       7.623   1.639   0.219  0.00  0.00    +0.133 C 
BRANCH  21  23
ATOM     23  C   UNL     1       7.864   3.831   1.474  0.00  0.00    +0.124 C 
ATOM     24  C   UNL     1       7.761   5.181   0.760  0.00  0.00    +0.041 C 
ATOM     25  C   UNL     1       8.640   6.206   1.478  0.00  0.00    +0.003 C 
ATOM     26  C   UNL     1      10.094   5.731   1.463  0.00  0.00    +0.000 C 
ATOM     27  C   UNL     1      10.197   4.382   2.177  0.00  0.00    +0.003 C 
ATOM     28  C   UNL     1       9.318   3.356   1.459  0.00  0.00    +0.041 C 
BRANCH  23  29
ATOM     29  C   UNL     1       7.410   3.977   2.867  0.00  0.00    +0.089 C 
ATOM     30  N   UNL     1       7.060   4.090   3.942  0.00  0.00    -0.194 NA
ENDBRANCH  23  29
ENDBRANCH  21  23
ENDBRANCH  17  19
ENDBRANCH  16  17
ENDBRANCH   1  16
TORSDOF 7
