REMARK  Name = ZINC24671108
REMARK  9 active torsions:
REMARK  status: ('A' for Active; 'I' for Inactive)
REMARK    1  A    between atoms: C_1  and  C_2
REMARK    2  A    between atoms: C_5  and  N_11
REMARK    3  A    between atoms: C_6  and  N_8
REMARK    4  A    between atoms: C_12  and  C_14
REMARK    5  A    between atoms: C_14  and  S_15
REMARK    6  A    between atoms: S_15  and  C_16
REMARK    7  A    between atoms: C_20  and  C_24
REMARK    8  A    between atoms: C_21  and  C_23
REMARK    9  A    between atoms: N_27  and  C_28
REMARK                            x       y       z     vdW  Elec       q    Type
REMARK                         _______ _______ _______ _____ _____    ______ ____
ROOT
ATOM      1  C   UNL     1      -0.018   1.075   0.007  0.00  0.00    +0.173 C 
ENDROOT
BRANCH   1   3
ATOM      2  N   UNL     1      -0.289   1.270  -2.444  0.00  0.00    -0.283 N 
ATOM      3  C   UNL     1      -0.740   1.586  -1.213  0.00  0.00    +0.228 C 
ATOM      4  O   UNL     1      -1.726   2.281  -1.089  0.00  0.00    -0.275 OA
ATOM      5  H   UNL     1       0.655   0.717  -2.558  0.00  0.00    +0.155 HD
BRANCH   2  10
ATOM      6  C   UNL     1      -3.260   2.792  -7.030  0.00  0.00    +0.044 C 
ATOM      7  C   UNL     1      -2.471   2.387  -5.812  0.00  0.00    -0.048 A 
ATOM      8  C   UNL     1      -3.112   2.222  -4.598  0.00  0.00    +0.005 A 
ATOM      9  C   UNL     1      -2.392   1.851  -3.480  0.00  0.00    +0.026 A 
ATOM     10  C   UNL     1      -1.022   1.645  -3.575  0.00  0.00    +0.064 A 
ATOM     11  C   UNL     1      -0.380   1.818  -4.794  0.00  0.00    +0.148 A 
ATOM     12  C   UNL     1      -1.107   2.183  -5.910  0.00  0.00    +0.038 A 
BRANCH  11  13
ATOM     13  N   UNL     1       1.081   1.605  -4.899  0.00  0.00    +0.058 N 
ATOM     14  O   UNL     1       1.658   1.843  -5.945  0.00  0.00    -0.126 OA
ATOM     15  O   UNL     1       1.707   1.192  -3.939  0.00  0.00    -0.126 OA
ENDBRANCH  11  13
ENDBRANCH   2  10
ENDBRANCH   1   3
BRANCH   1  16
ATOM     16  S   UNL     1      -0.860   1.666   1.497  0.00  0.00    -0.078 S 
BRANCH  16  17
ATOM     17  C   UNL     1       0.164   0.942   2.735  0.00  0.00    +0.173 A 
ATOM     18  N   UNL     1       1.197   0.207   2.376  0.00  0.00    -0.216 NA
ATOM     19  C   UNL     1       1.988  -0.347   3.286  0.00  0.00    +0.117 A 
ATOM     20  C   UNL     1       1.762  -0.190   4.667  0.00  0.00    +0.075 A 
ATOM     21  C   UNL     1       2.720  -0.867   5.524  0.00  0.00    -0.026 A 
ATOM     22  C   UNL     1       3.717  -1.570   4.967  0.00  0.00    -0.008 A 
ATOM     23  S   UNL     1       3.437  -1.369   3.218  0.00  0.00    -0.073 S 
ATOM     24  C   UNL     1       4.812  -2.344   5.654  0.00  0.00    +0.052 C 
ATOM     25  C   UNL     1       2.593  -0.782   7.024  0.00  0.00    +0.045 C 
ATOM     26  C   UNL     1       0.631   0.608   5.026  0.00  0.00    +0.263 A 
ATOM     27  O   UNL     1       0.357   0.798   6.198  0.00  0.00    -0.267 OA
ATOM     28  N   UNL     1      -0.127   1.145   4.052  0.00  0.00    -0.290 N 
ATOM     29  C   UNL     1      -1.287   1.964   4.414  0.00  0.00    +0.154 C 
ENDBRANCH  16  17
ENDBRANCH   1  16
TORSDOF 5
