REMARK  Name = ZINC05946613
REMARK  7 active torsions:
REMARK  status: ('A' for Active; 'I' for Inactive)
REMARK    1  A    between atoms: C_4  and  C_7
REMARK    2  A    between atoms: C_7  and  C_8
REMARK    3  A    between atoms: C_7  and  C_14
REMARK    4  A    between atoms: N_16  and  N_17
REMARK    5  A    between atoms: N_17  and  S_18
REMARK    6  A    between atoms: S_18  and  C_21
REMARK    7  A    between atoms: C_26  and  N_27
REMARK                            x       y       z     vdW  Elec       q    Type
REMARK                         _______ _______ _______ _____ _____    ______ ____
ROOT
ATOM      1  C   UNL     1      -2.640   3.373   1.621  0.00  0.00    +0.240 C 
ATOM      2  O   UNL     1      -3.835   3.565   1.543  0.00  0.00    -0.273 OA
ATOM      3  N   UNL     1      -2.170   2.126   1.818  0.00  0.00    -0.231 N 
ATOM      4  H   UNL     1      -1.214   1.972   1.881  0.00  0.00    +0.171 HD
ENDROOT
BRANCH   3   5
ATOM      5  N   UNL     1      -3.061   1.051   1.934  0.00  0.00    -0.108 NA
ATOM      6  H   UNL     1      -3.768   1.076   2.597  0.00  0.00    +0.172 HD
BRANCH   5   7
ATOM      7  S   UNL     1      -2.907  -0.263   0.938  0.00  0.00    +0.076 S 
ATOM      8  O   UNL     1      -2.900   0.235  -0.393  0.00  0.00    -0.152 OA
ATOM      9  O   UNL     1      -3.852  -1.225   1.385  0.00  0.00    -0.152 OA
BRANCH   7  10
ATOM     10  C   UNL     1      -1.311  -0.952   1.227  0.00  0.00    +0.137 A 
ATOM     11  C   UNL     1      -0.377  -0.982   0.208  0.00  0.00    +0.031 A 
ATOM     12  C   UNL     1       0.875  -1.522   0.435  0.00  0.00    +0.002 A 
ATOM     13  C   UNL     1       1.193  -2.032   1.681  0.00  0.00    +0.002 A 
ATOM     14  C   UNL     1       0.260  -1.998   2.700  0.00  0.00    +0.035 A 
ATOM     15  C   UNL     1      -0.994  -1.462   2.471  0.00  0.00    +0.152 A 
BRANCH  15  16
ATOM     16  N   UNL     1      -1.995  -1.430   3.562  0.00  0.00    +0.058 N 
ATOM     17  O   UNL     1      -1.760  -1.985   4.620  0.00  0.00    -0.126 OA
ATOM     18  O   UNL     1      -3.050  -0.843   3.402  0.00  0.00    -0.126 OA
ENDBRANCH  15  16
ENDBRANCH   7  10
ENDBRANCH   5   7
ENDBRANCH   3   5
BRANCH   1  19
ATOM     19  C   UNL     1      -1.682   4.529   1.497  0.00  0.00    +0.136 C 
BRANCH  19  23
ATOM     20  C   UNL     1      -3.879   8.142   0.889  0.00  0.00    +0.000 A 
ATOM     21  C   UNL     1      -2.982   7.708  -0.070  0.00  0.00    +0.000 A 
ATOM     22  C   UNL     1      -2.271   6.540   0.127  0.00  0.00    +0.005 A 
ATOM     23  C   UNL     1      -2.457   5.803   1.282  0.00  0.00    -0.031 A 
ATOM     24  C   UNL     1      -3.358   6.234   2.238  0.00  0.00    +0.005 A 
ATOM     25  C   UNL     1      -4.065   7.405   2.044  0.00  0.00    +0.000 A 
ENDBRANCH  19  23
BRANCH  19  26
ATOM     26  C   UNL     1      -0.866   4.643   2.759  0.00  0.00    -0.031 A 
ATOM     27  C   UNL     1      -1.493   4.619   3.991  0.00  0.00    +0.005 A 
ATOM     28  C   UNL     1      -0.744   4.719   5.149  0.00  0.00    +0.000 A 
ATOM     29  C   UNL     1       0.629   4.853   5.074  0.00  0.00    +0.000 A 
ATOM     30  C   UNL     1       1.255   4.883   3.842  0.00  0.00    +0.000 A 
ATOM     31  C   UNL     1       0.507   4.777   2.684  0.00  0.00    +0.005 A 
ENDBRANCH  19  26
ENDBRANCH   1  19
TORSDOF 7
