REMARK  Name = ZINC09420808
REMARK  8 active torsions:
REMARK  status: ('A' for Active; 'I' for Inactive)
REMARK    1  A    between atoms: C_4  and  S_7
REMARK    2  A    between atoms: S_7  and  N_10
REMARK    3  A    between atoms: N_10  and  C_11
REMARK    4  A    between atoms: C_11  and  C_12
REMARK    5  A    between atoms: C_16  and  C_20
REMARK    6  A    between atoms: N_22  and  C_23
REMARK    7  A    between atoms: C_23  and  C_24
REMARK    8  A    between atoms: N_26  and  C_27
REMARK                            x       y       z     vdW  Elec       q    Type
REMARK                         _______ _______ _______ _____ _____    ______ ____
ROOT
ATOM      1  C   UNL     1      -2.894   1.508   0.003  0.00  0.00    +0.005 C 
ATOM      2  C   UNL     1      -2.171   1.010  -1.250  0.00  0.00    +0.005 C 
ATOM      3  C   UNL     1      -0.737   1.545  -1.258  0.00  0.00    +0.013 C 
ATOM      4  C   UNL     1      -0.000   1.049  -0.012  0.00  0.00    +0.075 C 
ATOM      5  C   UNL     1      -0.724   1.547   1.241  0.00  0.00    +0.013 C 
ATOM      6  C   UNL     1      -2.157   1.012   1.249  0.00  0.00    +0.005 C 
ENDROOT
BRANCH   4   7
ATOM      7  C   UNL     1       1.411   1.576  -0.020  0.00  0.00    +0.217 C 
ATOM      8  O   UNL     1       1.791   2.279  -0.932  0.00  0.00    -0.276 OA
ATOM      9  N   UNL     1       2.252   1.266   0.987  0.00  0.00    -0.306 N 
ATOM     10  H   UNL     1       1.949   0.703   1.716  0.00  0.00    +0.149 HD
BRANCH   9  11
ATOM     11  C   UNL     1       3.625   1.778   0.979  0.00  0.00    +0.200 C 
BRANCH  11  12
ATOM     12  C   UNL     1       4.350   1.289   2.206  0.00  0.00    +0.234 C 
ATOM     13  O   UNL     1       3.778   0.582   3.008  0.00  0.00    -0.274 OA
ATOM     14  N   UNL     1       5.636   1.638   2.412  0.00  0.00    -0.282 N 
ATOM     15  H   UNL     1       6.114   2.149   1.740  0.00  0.00    +0.155 HD
BRANCH  14  16
ATOM     16  C   UNL     1       6.282   1.262   3.596  0.00  0.00    +0.069 A 
ATOM     17  C   UNL     1       5.982   0.047   4.197  0.00  0.00    +0.026 A 
ATOM     18  C   UNL     1       6.625  -0.324   5.362  0.00  0.00    +0.002 A 
ATOM     19  C   UNL     1       7.559   0.518   5.937  0.00  0.00    +0.003 A 
ATOM     20  C   UNL     1       7.857   1.732   5.346  0.00  0.00    +0.040 A 
ATOM     21  C   UNL     1       7.221   2.107   4.176  0.00  0.00    +0.144 A 
ATOM     22  F   UNL     1       7.512   3.293   3.599  0.00  0.00    -0.204 F 
ENDBRANCH  14  16
ENDBRANCH  11  12
ENDBRANCH   9  11
ENDBRANCH   4   7
BRANCH   1  23
ATOM     23  C   UNL     1      -4.327   0.973   0.011  0.00  0.00    +0.109 C 
BRANCH  23  24
ATOM     24  N   UNL     1      -5.056   1.545   1.146  0.00  0.00    -0.190 NA
ATOM     25  H   UNL     1      -4.570   1.981   1.864  0.00  0.00    +0.148 HD
BRANCH  24  26
ATOM     26  S   UNL     1      -6.708   1.448   1.204  0.00  0.00    +0.058 S 
ATOM     27  O   UNL     1      -7.109   2.061   2.421  0.00  0.00    -0.153 OA
ATOM     28  O   UNL     1      -7.184   1.884  -0.062  0.00  0.00    -0.153 OA
BRANCH  26  32
ATOM     29  C   UNL     1      -7.780  -2.937   1.548  0.00  0.00    +0.000 A 
ATOM     30  C   UNL     1      -7.580  -2.182   2.689  0.00  0.00    +0.002 A 
ATOM     31  C   UNL     1      -7.252  -0.844   2.584  0.00  0.00    +0.028 A 
ATOM     32  C   UNL     1      -7.125  -0.259   1.337  0.00  0.00    +0.105 A 
ATOM     33  C   UNL     1      -7.331  -1.012   0.197  0.00  0.00    +0.028 A 
ATOM     34  C   UNL     1      -7.653  -2.352   0.301  0.00  0.00    +0.002 A 
ENDBRANCH  26  32
ENDBRANCH  24  26
ENDBRANCH  23  24
ENDBRANCH   1  23
TORSDOF 8
