REMARK  Name = ZINC04091610
REMARK  5 active torsions:
REMARK  status: ('A' for Active; 'I' for Inactive)
REMARK    1  A    between atoms: C_6  and  C_7
REMARK    2  A    between atoms: C_10  and  C_12
REMARK    3  A    between atoms: C_12  and  C_15
REMARK    4  A    between atoms: N_13  and  O_14
REMARK    5  A    between atoms: C_18  and  N_21
REMARK                            x       y       z     vdW  Elec       q    Type
REMARK                         _______ _______ _______ _____ _____    ______ ____
ROOT
ATOM      1  C   UNL     1      -0.618  -1.626  -2.348  0.00  0.00    +0.091 C 
ATOM      2  N   UNL     1       0.502  -0.980  -2.309  0.00  0.00    -0.091 NA
ENDROOT
BRANCH   1   3
ATOM      3  C   UNL     1      -1.054  -2.273  -3.601  0.00  0.00    -0.000 A 
ATOM      4  C   UNL     1      -0.110  -2.811  -4.478  0.00  0.00    +0.012 A 
ATOM      5  C   UNL     1      -0.524  -3.414  -5.647  0.00  0.00    +0.033 A 
ATOM      6  C   UNL     1      -1.872  -3.487  -5.952  0.00  0.00    +0.126 A 
ATOM      7  C   UNL     1      -2.813  -2.956  -5.088  0.00  0.00    +0.033 A 
ATOM      8  C   UNL     1      -2.413  -2.355  -3.912  0.00  0.00    +0.012 A 
BRANCH   6   9
ATOM      9  N   UNL     1      -2.309  -4.136  -7.208  0.00  0.00    +0.056 N 
ATOM     10  O   UNL     1      -1.489  -4.601  -7.965  0.00  0.00    -0.126 OA
ATOM     11  O   UNL     1      -3.486  -4.201  -7.478  0.00  0.00    -0.126 OA
ENDBRANCH   6   9
ENDBRANCH   1   3
BRANCH   1  14
ATOM     12  C   UNL     1      -1.028  -0.933   0.121  0.00  0.00    +0.029 C 
ATOM     13  C   UNL     1      -0.904  -2.458   0.096  0.00  0.00    +0.019 C 
ATOM     14  C   UNL     1      -1.478  -1.717  -1.114  0.00  0.00    +0.050 C 
BRANCH  12  20
ATOM     15  C   UNL     1       0.181   1.226  -0.255  0.00  0.00    +0.005 A 
ATOM     16  C   UNL     1       1.345   1.963  -0.356  0.00  0.00    +0.020 A 
ATOM     17  C   UNL     1       2.572   1.345  -0.193  0.00  0.00    +0.041 A 
ATOM     18  C   UNL     1       2.632  -0.011   0.072  0.00  0.00    +0.020 A 
ATOM     19  C   UNL     1       1.468  -0.748   0.173  0.00  0.00    +0.005 A 
ATOM     20  C   UNL     1       0.242  -0.130   0.010  0.00  0.00    -0.044 A 
ATOM     21 CL   UNL     1       4.035   2.271  -0.321  0.00  0.00    -0.084 Cl
ENDBRANCH  12  20
ENDBRANCH   1  14
BRANCH   2  22
ATOM     22  O   UNL     1       1.246  -0.782  -3.497  0.00  0.00    -0.409 OA
ATOM     23  H   UNL     1       2.068  -0.289  -3.369  0.00  0.00    +0.328 HD
ENDBRANCH   2  22
TORSDOF 5
