REMARK  Name = ZINC58889844
REMARK  9 active torsions:
REMARK  status: ('A' for Active; 'I' for Inactive)
REMARK    1  A    between atoms: C_1  and  N_2
REMARK    2  A    between atoms: N_2  and  C_3
REMARK    3  A    between atoms: N_2  and  C_4
REMARK    4  A    between atoms: C_4  and  C_6
REMARK    5  A    between atoms: C_4  and  C_25
REMARK    6  A    between atoms: C_6  and  N_7
REMARK    7  A    between atoms: N_10  and  C_11
REMARK    8  A    between atoms: C_14  and  C_17
REMARK    9  A    between atoms: N_21  and  C_22
REMARK                            x       y       z     vdW  Elec       q    Type
REMARK                         _______ _______ _______ _____ _____    ______ ____
ROOT
ATOM      1  N   UNL     1      -1.562  -2.723   1.189  0.00  0.00    -0.300 N 
ATOM      2  C   UNL     1      -1.561  -4.060   1.356  0.00  0.00    +0.304 C 
ATOM      3  O   UNL     1      -1.949  -4.785   0.460  0.00  0.00    -0.253 OA
ATOM      4  N   UNL     1      -1.131  -4.594   2.516  0.00  0.00    -0.269 N 
ATOM      5  H   UNL     1      -1.252  -2.145   1.904  0.00  0.00    +0.150 HD
ATOM      6  H   UNL     1      -0.890  -4.016   3.256  0.00  0.00    +0.156 HD
ENDROOT
BRANCH   4   7
ATOM      7  C   UNL     1      -1.031  -5.982   2.652  0.00  0.00    +0.035 A 
ATOM      8  C   UNL     1      -0.667  -6.761   1.560  0.00  0.00    +0.024 A 
ATOM      9  C   UNL     1      -0.567  -8.129   1.691  0.00  0.00    +0.013 A 
ATOM     10  C   UNL     1      -0.832  -8.732   2.921  0.00  0.00    +0.021 A 
ATOM     11  C   UNL     1      -1.196  -7.947   4.016  0.00  0.00    +0.013 A 
ATOM     12  C   UNL     1      -1.290  -6.579   3.880  0.00  0.00    +0.024 A 
BRANCH  10  13
ATOM     13  C   UNL     1      -0.726 -10.200   3.065  0.00  0.00    +0.182 A 
ATOM     14  N   UNL     1      -0.764 -11.087   2.093  0.00  0.00    -0.108 NA
ATOM     15  N   UNL     1      -0.644 -12.276   2.563  0.00  0.00    -0.023 NA
ATOM     16  N   UNL     1      -0.522 -12.242   3.846  0.00  0.00    -0.043 NA
ATOM     17  N   UNL     1      -0.566 -10.888   4.223  0.00  0.00    -0.222 N 
BRANCH  17  18
ATOM     18  C   UNL     1      -0.464 -10.338   5.578  0.00  0.00    +0.111 C 
ATOM     19  C   UNL     1      -0.096 -11.304   6.706  0.00  0.00    +0.029 C 
ATOM     20  C   UNL     1      -1.523 -10.765   6.595  0.00  0.00    +0.029 C 
ENDBRANCH  17  18
ENDBRANCH  10  13
ENDBRANCH   4   7
BRANCH   1  21
ATOM     21  C   UNL     1      -2.030  -2.142  -0.072  0.00  0.00    +0.098 C 
BRANCH  21  22
ATOM     22  C   UNL     1      -2.047  -0.617   0.044  0.00  0.00    +0.016 C 
BRANCH  22  23
ATOM     23  C   UNL     1      -0.641  -0.112   0.238  0.00  0.00    +0.093 A 
ATOM     24  C   UNL     1       0.143   0.418  -0.718  0.00  0.00    +0.043 A 
ATOM     25  C   UNL     1       1.370   0.755  -0.102  0.00  0.00    +0.041 A 
ATOM     26  C   UNL     1       1.262   0.411   1.194  0.00  0.00    +0.195 A 
ATOM     27  O   UNL     1       0.040  -0.108   1.395  0.00  0.00    -0.469 OA
ENDBRANCH  22  23
BRANCH  22  29
ATOM     28  C   UNL     1      -2.968   1.242   1.249  0.00  0.00    -0.096 C 
ATOM     29  N   UNL     1      -2.872  -0.223   1.194  0.00  0.00    +0.384 N 
ATOM     30  C   UNL     1      -4.217  -0.797   1.052  0.00  0.00    -0.096 C 
ATOM     31  H   UNL     1      -2.449  -0.565   2.044  0.00  0.00    -0.082 HD
ENDBRANCH  22  29
ENDBRANCH  21  22
ENDBRANCH   1  21
TORSDOF 7
