REMARK  Name = ZINC34705237
REMARK  5 active torsions:
REMARK  status: ('A' for Active; 'I' for Inactive)
REMARK    1  A    between atoms: C_6  and  N_7
REMARK    2  A    between atoms: C_8  and  S_12
REMARK    3  A    between atoms: S_12  and  C_13
REMARK    4  A    between atoms: C_13  and  C_14
REMARK    5  A    between atoms: N_16  and  C_17
REMARK                            x       y       z     vdW  Elec       q    Type
REMARK                         _______ _______ _______ _____ _____    ______ ____
ROOT
ATOM      1  C   UNL     1      -0.454  -5.183  -2.962  0.00  0.00    +0.227 C 
ATOM      2  O   UNL     1       0.693  -4.875  -3.208  0.00  0.00    -0.275 OA
ATOM      3  N   UNL     1      -0.966  -6.325  -3.461  0.00  0.00    -0.285 N 
ATOM      4  H   UNL     1      -1.861  -6.606  -3.211  0.00  0.00    +0.155 HD
ENDROOT
BRANCH   3   5
ATOM      5  C   UNL     1      -0.208  -7.107  -4.342  0.00  0.00    +0.034 A 
ATOM      6  C   UNL     1       1.172  -7.203  -4.173  0.00  0.00    +0.027 A 
ATOM      7  C   UNL     1       1.932  -7.968  -5.030  0.00  0.00    +0.049 A 
ATOM      8  C   UNL     1       1.325  -8.653  -6.076  0.00  0.00    +0.139 A 
ATOM      9  C   UNL     1      -0.067  -8.559  -6.251  0.00  0.00    +0.019 A 
ATOM     10  C   UNL     1      -0.831  -7.785  -5.373  0.00  0.00    +0.035 A 
ATOM     11  C   UNL     1      -0.695  -9.286  -7.358  0.00  0.00    +0.018 A 
ATOM     12  C   UNL     1       0.100 -10.025  -8.173  0.00  0.00    +0.092 A 
ATOM     13  C   UNL     1       1.492 -10.074  -7.939  0.00  0.00    +0.337 A 
ATOM     14  O   UNL     1       2.194 -10.740  -8.678  0.00  0.00    -0.245 OA
ATOM     15  O   UNL     1       2.059  -9.406  -6.924  0.00  0.00    -0.422 OA
ENDBRANCH   3   5
BRANCH   1  16
ATOM     16  C   UNL     1      -1.306  -4.289  -2.098  0.00  0.00    +0.173 C 
BRANCH  16  17
ATOM     17  S   UNL     1      -0.338  -2.843  -1.586  0.00  0.00    -0.075 S 
BRANCH  17  19
ATOM     18  N   UNL     1      -1.199  -0.729   0.021  0.00  0.00    -0.187 N 
ATOM     19  C   UNL     1      -1.459  -1.909  -0.597  0.00  0.00    +0.214 A 
ATOM     20  N   UNL     1      -2.705  -2.224  -0.318  0.00  0.00    -0.101 NA
ATOM     21  N   UNL     1      -3.240  -1.327   0.429  0.00  0.00    -0.022 NA
ATOM     22  N   UNL     1      -2.392  -0.391   0.684  0.00  0.00    -0.038 NA
BRANCH  18  28
ATOM     23  C   UNL     1      -0.021   1.382   0.016  0.00  0.00    +0.029 A 
ATOM     24  C   UNL     1       1.163   2.092   0.002  0.00  0.00    +0.022 A 
ATOM     25  C   UNL     1       2.373   1.420  -0.022  0.00  0.00    +0.041 A 
ATOM     26  C   UNL     1       2.400   0.037  -0.033  0.00  0.00    +0.022 A 
ATOM     27  C   UNL     1       1.218  -0.677  -0.019  0.00  0.00    +0.029 A 
ATOM     28  C   UNL     1       0.003  -0.006   0.006  0.00  0.00    +0.070 A 
ATOM     29 CL   UNL     1       3.861   2.315  -0.041  0.00  0.00    -0.084 Cl
ENDBRANCH  18  28
ENDBRANCH  17  19
ENDBRANCH  16  17
ENDBRANCH   1  16
TORSDOF 5
