REMARK  Name = ZINC28793853
REMARK  5 active torsions:
REMARK  status: ('A' for Active; 'I' for Inactive)
REMARK    1  A    between atoms: C_9  and  C_11
REMARK    2  A    between atoms: C_11  and  C_12
REMARK    3  A    between atoms: C_12  and  C_13
REMARK    4  A    between atoms: N_15  and  N_16
REMARK    5  A    between atoms: C_17  and  C_19
REMARK                            x       y       z     vdW  Elec       q    Type
REMARK                         _______ _______ _______ _____ _____    ______ ____
ROOT
ATOM      1  C   UNL     1       2.369   1.025  -0.015  0.00  0.00    +0.229 C 
ATOM      2  O   UNL     1       2.385  -0.188  -0.022  0.00  0.00    -0.274 OA
ATOM      3  N   UNL     1       1.193   1.683  -0.000  0.00  0.00    -0.234 N 
ATOM      4  H   UNL     1       1.178   2.783   0.006  0.00  0.00    +0.173 HD
ENDROOT
BRANCH   3   5
ATOM      5  N   UNL     1      -0.011   0.966   0.007  0.00  0.00    -0.231 N 
ATOM      6  C   UNL     1      -1.187   1.624   0.017  0.00  0.00    +0.273 C 
ATOM      7  O   UNL     1      -1.204   2.837   0.023  0.00  0.00    -0.270 OA
ATOM      8  H   UNL     1       0.004  -0.134   0.006  0.00  0.00    +0.173 HD
BRANCH   6   9
ATOM      9  C   UNL     1      -2.482   0.853   0.018  0.00  0.00    +0.297 C 
ATOM     10  C   UNL     1      -2.635   0.094  -1.307  0.00  0.00    +0.283 C 
ATOM     11  O   UNL     1      -3.878  -0.615  -1.277  0.00  0.00    -0.484 OA
ATOM     12  C   UNL     1      -4.967   0.078  -0.845  0.00  0.00    +0.162 A 
ATOM     13  C   UNL     1      -6.236  -0.408  -1.121  0.00  0.00    +0.049 A 
ATOM     14  C   UNL     1      -7.352   0.283  -0.687  0.00  0.00    +0.004 A 
ATOM     15  C   UNL     1      -7.205   1.460   0.025  0.00  0.00    +0.004 A 
ATOM     16  C   UNL     1      -5.943   1.949   0.303  0.00  0.00    +0.049 A 
ATOM     17  C   UNL     1      -4.820   1.262  -0.132  0.00  0.00    +0.163 A 
ATOM     18  O   UNL     1      -3.583   1.758   0.146  0.00  0.00    -0.472 OA
ENDBRANCH   6   9
ENDBRANCH   3   5
BRANCH   1  19
ATOM     19  C   UNL     1       3.663   1.796  -0.023  0.00  0.00    +0.105 C 
BRANCH  19  20
ATOM     20  C   UNL     1       4.840   0.818  -0.040  0.00  0.00    +0.083 C 
BRANCH  20  29
ATOM     21  C   UNL     1      10.175   3.578   0.433  0.00  0.00    +0.002 A 
ATOM     22  C   UNL     1       9.722   4.247  -0.695  0.00  0.00    +0.002 A 
ATOM     23  C   UNL     1       8.497   3.965  -1.228  0.00  0.00    +0.030 A 
ATOM     24  C   UNL     1       7.686   2.993  -0.635  0.00  0.00    +0.089 A 
ATOM     25  C   UNL     1       8.144   2.315   0.508  0.00  0.00    +0.066 A 
ATOM     26  C   UNL     1       9.392   2.615   1.036  0.00  0.00    +0.028 A 
ATOM     27  N   UNL     1       7.138   1.437   0.858  0.00  0.00    -0.342 N 
ATOM     28  H   UNL     1       7.256   0.787   1.738  0.00  0.00    +0.167 HD
ATOM     29  C   UNL     1       6.134   1.589  -0.048  0.00  0.00    +0.109 A 
ATOM     30  N   UNL     1       6.453   2.501  -0.919  0.00  0.00    -0.232 NA
ENDBRANCH  20  29
ENDBRANCH  19  20
ENDBRANCH   1  19
TORSDOF 5
