REMARK  Name = ZINC50672959
REMARK  11 active torsions:
REMARK  status: ('A' for Active; 'I' for Inactive)
REMARK    1  A    between atoms: C_1  and  C_2
REMARK    2  A    between atoms: C_2  and  C_3
REMARK    3  A    between atoms: C_2  and  C_4
REMARK    4  A    between atoms: C_4  and  C_6
REMARK    5  A    between atoms: C_4  and  N_10
REMARK    6  A    between atoms: C_6  and  N_7
REMARK    7  A    between atoms: N_7  and  C_8
REMARK    8  A    between atoms: N_7  and  C_9
REMARK    9  A    between atoms: N_10  and  S_11
REMARK   10  A    between atoms: S_11  and  C_14
REMARK   11  A    between atoms: C_19  and  N_20
REMARK                            x       y       z     vdW  Elec       q    Type
REMARK                         _______ _______ _______ _____ _____    ______ ____
ROOT
ATOM      1  S   UNL     1      -2.104   1.735  -1.819  0.00  0.00    +0.062 S 
ATOM      2  O   UNL     1      -1.376   2.757  -1.152  0.00  0.00    -0.153 OA
ATOM      3  O   UNL     1      -2.121   1.611  -3.234  0.00  0.00    -0.153 OA
ENDROOT
BRANCH   1   4
ATOM      4  C   UNL     1      -3.783   1.898  -1.307  0.00  0.00    +0.146 A 
ATOM      5  C   UNL     1      -4.151   2.889  -0.414  0.00  0.00    +0.048 A 
ATOM      6  C   UNL     1      -5.485   2.980  -0.039  0.00  0.00    +0.038 A 
ATOM      7  C   UNL     1      -6.398   2.086  -0.564  0.00  0.00    +0.128 A 
ATOM      8  N   UNL     1      -6.018   1.151  -1.414  0.00  0.00    -0.238 NA
ATOM      9  C   UNL     1      -4.756   1.036  -1.800  0.00  0.00    +0.143 A 
ATOM     10 BR   UNL     1      -6.045   4.314   1.179  0.00  0.00    -0.049 Br
BRANCH   9  11
ATOM     11  N   UNL     1      -4.401   0.040  -2.703  0.00  0.00    -0.342 N 
ATOM     12  H   UNL     1      -3.468  -0.102  -2.927  0.00  0.00    +0.144 HD
ATOM     13  H   UNL     1      -5.087  -0.513  -3.110  0.00  0.00    +0.144 HD
ENDBRANCH   9  11
ENDBRANCH   1   4
BRANCH   1  14
ATOM     14  N   UNL     1      -1.549   0.293  -1.224  0.00  0.00    -0.188 NA
ATOM     15  H   UNL     1      -1.324  -0.428  -1.832  0.00  0.00    +0.148 HD
BRANCH  14  16
ATOM     16  C   UNL     1      -1.397   0.107   0.222  0.00  0.00    +0.063 C 
BRANCH  16  18
ATOM     17  C   UNL     1       0.612   1.591   0.276  0.00  0.00    +0.009 C 
ATOM     18  C   UNL     1       0.085   0.191   0.594  0.00  0.00    -0.000 C 
ATOM     19  C   UNL     1       0.252  -0.090   2.088  0.00  0.00    +0.009 C 
ENDBRANCH  16  18
BRANCH  16  20
ATOM     20  C   UNL     1      -1.946  -1.265   0.620  0.00  0.00    -0.059 C 
BRANCH  20  21
ATOM     21  N   UNL     1      -3.363  -1.354   0.241  0.00  0.00    +0.377 N 
ATOM     22  C   UNL     1      -3.849  -2.719   0.481  0.00  0.00    -0.097 C 
ATOM     23  C   UNL     1      -4.145  -0.407   1.047  0.00  0.00    -0.097 C 
ATOM     24  H   UNL     1      -3.465  -1.127  -0.737  0.00  0.00    -0.083 HD
ENDBRANCH  20  21
ENDBRANCH  16  20
ENDBRANCH  14  16
ENDBRANCH   1  14
TORSDOF 7
