REMARK  Name = ZINC59819211
REMARK  9 active torsions:
REMARK  status: ('A' for Active; 'I' for Inactive)
REMARK    1  A    between atoms: C_1  and  N_2
REMARK    2  A    between atoms: N_2  and  C_3
REMARK    3  A    between atoms: C_4  and  C_6
REMARK    4  A    between atoms: C_6  and  C_7
REMARK    5  A    between atoms: C_7  and  S_8
REMARK    6  A    between atoms: S_8  and  C_9
REMARK    7  A    between atoms: N_14  and  N_15
REMARK    8  A    between atoms: C_16  and  C_17
REMARK    9  A    between atoms: C_22  and  O_23
REMARK                            x       y       z     vdW  Elec       q    Type
REMARK                         _______ _______ _______ _____ _____    ______ ____
ROOT
ATOM      1  C   UNL     1       0.028  -4.912  -4.344  0.00  0.00    +0.210 A 
ATOM      2  N   UNL     1       0.035  -6.153  -4.841  0.00  0.00    -0.186 NA
ATOM      3  C   UNL     1       0.023  -6.103  -6.157  0.00  0.00    +0.232 A 
ATOM      4  N   UNL     1       0.008  -4.804  -6.525  0.00  0.00    -0.245 N 
ATOM      5  N   UNL     1       0.006  -4.055  -5.337  0.00  0.00    -0.144 NA
ATOM      6  N   UNL     1       0.026  -7.190  -7.012  0.00  0.00    -0.205 N 
ATOM      7  H   UNL     1       0.017  -7.052  -7.972  0.00  0.00    +0.177 HD
ATOM      8  H   UNL     1      -0.003  -4.457  -7.431  0.00  0.00    +0.192 HD
ENDROOT
BRANCH   6   9
ATOM      9  N   UNL     1       0.042  -8.490  -6.491  0.00  0.00    -0.187 NA
ATOM     10  C   UNL     1       0.045  -9.511  -7.294  0.00  0.00    +0.142 C 
BRANCH  10  11
ATOM     11  C   UNL     1       0.062 -10.879  -6.746  0.00  0.00    +0.038 A 
ATOM     12  C   UNL     1       0.071 -11.979  -7.607  0.00  0.00    +0.028 A 
ATOM     13  C   UNL     1       0.087 -13.258  -7.088  0.00  0.00    +0.020 A 
ATOM     14  C   UNL     1       0.094 -13.455  -5.717  0.00  0.00    +0.034 A 
ATOM     15  C   UNL     1       0.086 -12.373  -4.855  0.00  0.00    +0.061 A 
ATOM     16  C   UNL     1       0.076 -11.083  -5.360  0.00  0.00    +0.139 A 
ATOM     17 BR   UNL     1       0.095 -12.655  -2.985  0.00  0.00    -0.046 Br
ATOM     18 BR   UNL     1       0.099 -14.747  -8.253  0.00  0.00    -0.050 Br
BRANCH  16  19
ATOM     19  O   UNL     1       0.073 -10.019  -4.514  0.00  0.00    -0.505 OA
ATOM     20  H   UNL     1      -0.811  -9.719  -4.262  0.00  0.00    +0.292 HD
ENDBRANCH  16  19
ENDBRANCH  10  11
ENDBRANCH   6   9
BRANCH   1  21
ATOM     21  S   UNL     1       0.038  -4.495  -2.632  0.00  0.00    -0.084 S 
BRANCH  21  22
ATOM     22  C   UNL     1       0.014  -2.681  -2.622  0.00  0.00    +0.086 C 
BRANCH  22  23
ATOM     23  C   UNL     1       0.021  -2.178  -1.177  0.00  0.00    +0.107 C 
BRANCH  23  27
ATOM     24  C   UNL     1      -0.018   1.461   0.010  0.00  0.00    +0.131 C 
ATOM     25  N   UNL     1       0.002  -0.004   0.002  0.00  0.00    -0.308 N 
ATOM     26  C   UNL     1       0.024  -0.743   1.267  0.00  0.00    +0.131 C 
ATOM     27  C   UNL     1       0.000  -0.672  -1.169  0.00  0.00    +0.216 C 
ATOM     28  O   UNL     1      -0.018  -0.060  -2.216  0.00  0.00    -0.276 OA
ENDBRANCH  23  27
ENDBRANCH  22  23
ENDBRANCH  21  22
ENDBRANCH   1  21
TORSDOF 7
