REMARK  Name = ZINC22906581
REMARK  7 active torsions:
REMARK  status: ('A' for Active; 'I' for Inactive)
REMARK    1  A    between atoms: C_1  and  C_2
REMARK    2  A    between atoms: C_2  and  C_4
REMARK    3  A    between atoms: C_2  and  N_22
REMARK    4  A    between atoms: C_4  and  C_5
REMARK    5  A    between atoms: N_10  and  C_13
REMARK    6  A    between atoms: C_16  and  N_19
REMARK    7  A    between atoms: C_23  and  C_25
REMARK                            x       y       z     vdW  Elec       q    Type
REMARK                         _______ _______ _______ _____ _____    ______ ____
ROOT
ATOM      1  C   UNL     1       6.916   0.432   2.001  0.00  0.00    +0.217 C 
ATOM      2  O   UNL     1       5.928  -0.058   2.506  0.00  0.00    -0.276 OA
ATOM      3  N   UNL     1       7.743   1.196   2.742  0.00  0.00    -0.298 N 
ATOM      4  C   UNL     1       8.949   1.796   2.151  0.00  0.00    +0.126 C 
ATOM      5  C   UNL     1       8.950   3.297   2.478  0.00  0.00    +0.124 C 
ATOM      6  N   UNL     1       8.815   3.478   3.929  0.00  0.00    -0.327 N 
ATOM      7  C   UNL     1       7.529   2.958   4.413  0.00  0.00    +0.124 C 
ATOM      8  C   UNL     1       7.466   1.447   4.164  0.00  0.00    +0.126 C 
ENDROOT
BRANCH   6   9
ATOM      9  C   UNL     1       8.978   4.819   4.284  0.00  0.00    +0.030 A 
ATOM     10  C   UNL     1       7.984   5.476   4.998  0.00  0.00    +0.025 A 
ATOM     11  C   UNL     1       8.152   6.800   5.352  0.00  0.00    +0.034 A 
ATOM     12  C   UNL     1       9.302   7.475   4.988  0.00  0.00    +0.126 A 
ATOM     13  C   UNL     1      10.291   6.825   4.272  0.00  0.00    +0.034 A 
ATOM     14  C   UNL     1      10.133   5.500   3.920  0.00  0.00    +0.025 A 
BRANCH  12  15
ATOM     15  N   UNL     1       9.476   8.896   5.365  0.00  0.00    +0.056 N 
ATOM     16  O   UNL     1      10.489   9.492   5.045  0.00  0.00    -0.126 OA
ATOM     17  O   UNL     1       8.605   9.470   5.995  0.00  0.00    -0.126 OA
ENDBRANCH  12  15
ENDBRANCH   6   9
BRANCH   1  18
ATOM     18  C   UNL     1       7.219   0.188   0.545  0.00  0.00    +0.118 C 
BRANCH  18  20
ATOM     19  C   UNL     1       6.503  -1.054  -1.502  0.00  0.00    +0.028 C 
ATOM     20  C   UNL     1       6.132  -0.704  -0.059  0.00  0.00    +0.079 C 
BRANCH  20  21
ATOM     21  N   UNL     1       4.852   0.008  -0.044  0.00  0.00    -0.308 N 
ATOM     22  C   UNL     1       3.696  -0.685  -0.036  0.00  0.00    +0.244 C 
ATOM     23  O   UNL     1       3.715  -1.900  -0.043  0.00  0.00    -0.270 OA
ATOM     24  H   UNL     1       4.834   1.108  -0.038  0.00  0.00    +0.149 HD
BRANCH  22  25
ATOM     25  C   UNL     1       2.403   0.034  -0.021  0.00  0.00    +0.037 A 
ATOM     26  C   UNL     1       1.204  -0.681  -0.013  0.00  0.00    +0.013 A 
ATOM     27  C   UNL     1       0.002  -0.004   0.002  0.00  0.00    +0.001 A 
ATOM     28  C   UNL     1      -0.017   1.379   0.010  0.00  0.00    +0.000 A 
ATOM     29  C   UNL     1       1.168   2.094   0.002  0.00  0.00    +0.001 A 
ATOM     30  C   UNL     1       2.377   1.429  -0.013  0.00  0.00    +0.013 A 
ENDBRANCH  22  25
ENDBRANCH  20  21
ENDBRANCH  18  20
ENDBRANCH   1  18
TORSDOF 6
