REMARK  Name = ZINC39684009
REMARK  11 active torsions:
REMARK  status: ('A' for Active; 'I' for Inactive)
REMARK    1  A    between atoms: C_1  and  C_2
REMARK    2  A    between atoms: C_2  and  C_4
REMARK    3  A    between atoms: C_2  and  N_8
REMARK    4  A    between atoms: N_6  and  C_7
REMARK    5  A    between atoms: C_9  and  C_11
REMARK    6  A    between atoms: C_22  and  C_24
REMARK    7  A    between atoms: C_24  and  C_26
REMARK    8  A    between atoms: C_24  and  O_29
REMARK    9  A    between atoms: C_26  and  C_27
REMARK   10  A    between atoms: C_26  and  C_28
REMARK   11  A    between atoms: O_29  and  C_30
REMARK                            x       y       z     vdW  Elec       q    Type
REMARK                         _______ _______ _______ _____ _____    ______ ____
ROOT
ATOM      1  C   UNL     1      -3.611  -0.978  -1.940  0.00  0.00    +0.100 C 
ATOM      2  C   UNL     1      -3.572  -2.362  -1.254  0.00  0.00    +0.121 C 
ATOM      3  N   UNL     1      -4.605  -3.158  -1.958  0.00  0.00    -0.297 N 
ATOM      4  C   UNL     1      -4.469  -2.762  -3.381  0.00  0.00    +0.115 C 
ATOM      5  C   UNL     1      -4.199  -1.245  -3.335  0.00  0.00    -0.004 C 
ATOM      6  C   UNL     1      -3.194  -0.855  -4.415  0.00  0.00    -0.010 C 
ATOM      7  C   UNL     1      -3.823  -1.075  -5.794  0.00  0.00    -0.082 C 
ATOM      8  N   UNL     1      -5.040  -0.262  -5.914  0.00  0.00    +0.379 N 
ATOM      9  C   UNL     1      -6.037  -0.706  -4.932  0.00  0.00    -0.082 C 
ATOM     10  C   UNL     1      -5.501  -0.471  -3.516  0.00  0.00    -0.010 C 
ATOM     11  C   UNL     1      -5.472  -4.041  -1.426  0.00  0.00    +0.257 C 
ATOM     12  O   UNL     1      -5.521  -4.194  -0.224  0.00  0.00    -0.272 OA
ATOM     13  H   UNL     1      -4.814   0.707  -5.747  0.00  0.00    -0.086 HD
ATOM     14  H   UNL     1      -5.419  -0.361  -6.844  0.00  0.00    -0.086 HD
ENDROOT
BRANCH   1  16
ATOM     15  N   UNL     1      -2.041   0.920  -2.169  0.00  0.00    -0.304 N 
ATOM     16  C   UNL     1      -2.219  -0.411  -2.056  0.00  0.00    +0.219 C 
ATOM     17  O   UNL     1      -1.260  -1.153  -2.049  0.00  0.00    -0.275 OA
ATOM     18  H   UNL     1      -2.809   1.513  -2.175  0.00  0.00    +0.149 HD
BRANCH  15  20
ATOM     19  C   UNL     1      -0.244   1.436  -3.746  0.00  0.00    +0.038 C 
ATOM     20  C   UNL     1      -0.689   1.471  -2.282  0.00  0.00    +0.156 C 
BRANCH  20  21
ATOM     21  C   UNL     1      -0.683   2.896  -1.790  0.00  0.00    +0.233 C 
ATOM     22  O   UNL     1      -1.709   3.401  -1.385  0.00  0.00    -0.274 OA
ATOM     23  N   UNL     1       0.461   3.608  -1.801  0.00  0.00    -0.317 N 
ATOM     24  C   UNL     1       0.465   4.993  -1.322  0.00  0.00    +0.128 C 
ATOM     25  H   UNL     1       1.281   3.204  -2.125  0.00  0.00    +0.148 HD
ENDBRANCH  20  21
ENDBRANCH  15  20
ENDBRANCH   1  16
BRANCH  11  26
ATOM     26  C   UNL     1      -6.382  -4.839  -2.325  0.00  0.00    +0.261 C 
BRANCH  26  27
ATOM     27  C   UNL     1      -5.543  -5.769  -3.204  0.00  0.00    +0.033 C 
ATOM     28  C   UNL     1      -4.830  -6.797  -2.323  0.00  0.00    +0.011 C 
ATOM     29  C   UNL     1      -6.454  -6.493  -4.196  0.00  0.00    +0.011 C 
ENDBRANCH  26  27
BRANCH  26  30
ATOM     30  O   UNL     1      -7.277  -5.617  -1.528  0.00  0.00    -0.479 OA
BRANCH  30  31
ATOM     31  C   UNL     1      -8.542  -5.776  -1.997  0.00  0.00    +0.122 A 
ATOM     32  C   UNL     1      -9.468  -6.505  -1.266  0.00  0.00    +0.045 A 
ATOM     33  C   UNL     1     -10.754  -6.665  -1.745  0.00  0.00    +0.004 A 
ATOM     34  C   UNL     1     -11.118  -6.098  -2.953  0.00  0.00    +0.000 A 
ATOM     35  C   UNL     1     -10.197  -5.372  -3.684  0.00  0.00    +0.004 A 
ATOM     36  C   UNL     1      -8.911  -5.204  -3.206  0.00  0.00    +0.045 A 
ENDBRANCH  30  31
ENDBRANCH  26  30
ENDBRANCH  11  26
TORSDOF 7
