REMARK  Name = ZINC10431385
REMARK  9 active torsions:
REMARK  status: ('A' for Active; 'I' for Inactive)
REMARK    1  A    between atoms: C_1  and  C_2
REMARK    2  A    between atoms: C_2  and  N_3
REMARK    3  A    between atoms: N_3  and  C_4
REMARK    4  A    between atoms: N_3  and  C_17
REMARK    5  A    between atoms: C_4  and  C_5
REMARK    6  A    between atoms: C_7  and  C_10
REMARK    7  A    between atoms: C_18  and  N_33
REMARK    8  A    between atoms: N_19  and  C_26
REMARK    9  A    between atoms: C_26  and  C_27
REMARK                            x       y       z     vdW  Elec       q    Type
REMARK                         _______ _______ _______ _____ _____    ______ ____
ROOT
ATOM      1  C   UNL     1      -3.030   5.490  -3.259  0.00  0.00    +0.134 A 
ATOM      2  C   UNL     1      -2.618   5.273  -1.972  0.00  0.00    +0.127 A 
ATOM      3  N   UNL     1      -2.992   4.114  -1.331  0.00  0.00    -0.276 N 
ATOM      4  C   UNL     1      -3.762   3.206  -1.959  0.00  0.00    +0.331 A 
ATOM      5  O   UNL     1      -4.086   2.190  -1.375  0.00  0.00    -0.246 OA
ATOM      6  N   UNL     1      -4.179   3.406  -3.222  0.00  0.00    -0.273 N 
ATOM      7  H   UNL     1      -4.751   2.718  -3.669  0.00  0.00    +0.173 HD
ATOM      8  C   UNL     1      -3.834   4.524  -3.890  0.00  0.00    +0.277 A 
ATOM      9  O   UNL     1      -4.217   4.698  -5.035  0.00  0.00    -0.266 OA
ENDROOT
BRANCH   2  10
ATOM     10  N   UNL     1      -1.835   6.202  -1.327  0.00  0.00    -0.343 N 
ATOM     11  H   UNL     1      -1.543   6.042  -0.415  0.00  0.00    +0.144 HD
ATOM     12  H   UNL     1      -1.575   7.018  -1.783  0.00  0.00    +0.144 HD
ENDBRANCH   2  10
BRANCH   1  13
ATOM     13  N   UNL     1      -2.656   6.671  -3.942  0.00  0.00    -0.314 N 
BRANCH  13  15
ATOM     14  C   UNL     1      -4.402   8.085  -2.967  0.00  0.00    +0.024 C 
ATOM     15  C   UNL     1      -3.833   7.491  -4.258  0.00  0.00    +0.102 C 
ENDBRANCH  13  15
BRANCH  13  16
ATOM     16  C   UNL     1      -1.892   6.357  -5.157  0.00  0.00    +0.204 C 
BRANCH  16  17
ATOM     17  C   UNL     1      -1.305   7.624  -5.722  0.00  0.00    +0.245 A 
ATOM     18  N   UNL     1      -0.137   8.139  -5.428  0.00  0.00    -0.190 NA
ATOM     19  C   UNL     1      -0.039   9.264  -6.172  0.00  0.00    +0.202 A 
ATOM     20  N   UNL     1      -1.145   9.369  -6.861  0.00  0.00    -0.056 NA
ATOM     21  O   UNL     1      -1.880   8.437  -6.614  0.00  0.00    -0.336 OA
BRANCH  19  22
ATOM     22  C   UNL     1       1.107  10.206  -6.196  0.00  0.00    +0.023 A 
ATOM     23  C   UNL     1       2.225   9.968  -5.399  0.00  0.00    +0.014 A 
ATOM     24  C   UNL     1       3.291  10.844  -5.428  0.00  0.00    +0.039 A 
ATOM     25  C   UNL     1       3.246  11.965  -6.242  0.00  0.00    +0.123 A 
ATOM     26  C   UNL     1       2.135  12.208  -7.033  0.00  0.00    +0.039 A 
ATOM     27  C   UNL     1       1.067  11.335  -7.013  0.00  0.00    +0.014 A 
ATOM     28  F   UNL     1       4.290  12.823  -6.264  0.00  0.00    -0.205 F 
ENDBRANCH  19  22
ENDBRANCH  16  17
ENDBRANCH  13  16
ENDBRANCH   1  13
BRANCH   3  29
ATOM     29  C   UNL     1      -2.553   3.869   0.045  0.00  0.00    +0.163 C 
BRANCH  29  30
ATOM     30  C   UNL     1      -1.238   3.133   0.030  0.00  0.00    -0.028 A 
ATOM     31  C   UNL     1      -1.219   1.751   0.017  0.00  0.00    +0.005 A 
ATOM     32  C   UNL     1      -0.013   1.076   0.008  0.00  0.00    +0.000 A 
ATOM     33  C   UNL     1       1.175   1.783   0.000  0.00  0.00    +0.000 A 
ATOM     34  C   UNL     1       1.156   3.165   0.008  0.00  0.00    +0.000 A 
ATOM     35  C   UNL     1      -0.050   3.840   0.022  0.00  0.00    +0.005 A 
ENDBRANCH  29  30
ENDBRANCH   3  29
TORSDOF 8
