REMARK  Name = ZINC45726781
REMARK  15 active torsions:
REMARK  status: ('A' for Active; 'I' for Inactive)
REMARK    1  A    between atoms: C_1  and  C_2
REMARK    2  A    between atoms: C_2  and  O_3
REMARK    3  A    between atoms: O_3  and  C_4
REMARK    4  A    between atoms: C_4  and  C_6
REMARK    5  A    between atoms: C_7  and  C_36
REMARK    6  A    between atoms: C_8  and  C_13
REMARK    7  A    between atoms: C_9  and  C_12
REMARK    8  A    between atoms: C_13  and  C_15
REMARK    9  A    between atoms: C_15  and  O_16
REMARK   10  A    between atoms: O_16  and  C_17
REMARK   11  A    between atoms: C_17  and  C_19
REMARK   12  A    between atoms: C_19  and  N_20
REMARK   13  A    between atoms: C_25  and  C_32
REMARK   14  A    between atoms: C_28  and  C_30
REMARK   15  A    between atoms: C_28  and  C_31
REMARK                            x       y       z     vdW  Elec       q    Type
REMARK                         _______ _______ _______ _____ _____    ______ ____
ROOT
ATOM      1  C   UNL     1       4.802  -6.100   7.354  0.00  0.00    +0.326 C 
ATOM      2  O   UNL     1       5.162  -5.129   7.976  0.00  0.00    -0.249 OA
ENDROOT
BRANCH   1   3
ATOM      3  O   UNL     1       4.032  -5.952   6.264  0.00  0.00    -0.455 OA
BRANCH   3   4
ATOM      4  C   UNL     1       3.677  -4.618   5.897  0.00  0.00    +0.311 C 
BRANCH   4   5
ATOM      5  C   UNL     1       2.818  -4.649   4.660  0.00  0.00    +0.202 C 
ATOM      6  O   UNL     1       2.458  -5.711   4.198  0.00  0.00    -0.288 OA
BRANCH   5   9
ATOM      7  C   UNL     1       2.421  -1.570   2.727  0.00  0.00    +0.128 A 
ATOM      8  C   UNL     1       3.163  -2.664   3.059  0.00  0.00    -0.008 A 
ATOM      9  C   UNL     1       2.417  -3.395   4.014  0.00  0.00    +0.045 A 
ATOM     10  C   UNL     1       1.235  -2.701   4.222  0.00  0.00    +0.024 A 
ATOM     11  N   UNL     1       1.248  -1.605   3.450  0.00  0.00    -0.352 N 
ATOM     12  H   UNL     1       0.541  -0.941   3.406  0.00  0.00    +0.166 HD
ATOM     13  C   UNL     1       0.127  -3.107   5.159  0.00  0.00    +0.064 C 
ATOM     14  C   UNL     1       4.521  -3.026   2.514  0.00  0.00    +0.047 C 
BRANCH   7  15
ATOM     15  C   UNL     1       2.807  -0.530   1.767  0.00  0.00    +0.356 C 
ATOM     16  O   UNL     1       3.872  -0.605   1.185  0.00  0.00    -0.243 OA
BRANCH  15  17
ATOM     17  O   UNL     1       1.980   0.509   1.530  0.00  0.00    -0.460 OA
BRANCH  17  19
ATOM     18  C   UNL     1       1.359   2.579   0.448  0.00  0.00    +0.048 C 
ATOM     19  C   UNL     1       2.420   1.485   0.583  0.00  0.00    +0.229 C 
ENDBRANCH  17  19
ENDBRANCH  15  17
ENDBRANCH   7  15
ENDBRANCH   5   9
ENDBRANCH   4   5
ENDBRANCH   3   4
ENDBRANCH   1   3
BRANCH   1  20
ATOM     20  C   UNL     1       5.217  -7.478   7.802  0.00  0.00    +0.238 C 
BRANCH  20  21
ATOM     21  N   UNL     1       6.046  -7.371   9.005  0.00  0.00    -0.213 N 
ATOM     22  C   UNL     1       7.389  -7.242   8.991  0.00  0.00    +0.247 C 
ATOM     23  O   UNL     1       8.112  -7.194   8.019  0.00  0.00    -0.273 OA
ATOM     24  C   UNL     1       7.803  -7.169  10.443  0.00  0.00    +0.113 C 
ATOM     25  C   UNL     1       8.723  -8.333  10.793  0.00  0.00    +0.038 C 
ATOM     26  C   UNL     1       9.106  -8.258  12.273  0.00  0.00    -0.011 C 
ATOM     27  C   UNL     1       9.809  -6.928  12.550  0.00  0.00    +0.009 C 
ATOM     28  C   UNL     1       8.865  -5.771  12.217  0.00  0.00    -0.032 C 
ATOM     29  C   UNL     1       8.482  -5.836  10.736  0.00  0.00    +0.041 C 
ATOM     30  C   UNL     1       9.566  -4.441  12.504  0.00  0.00    +0.011 C 
ATOM     31  C   UNL     1       7.603  -5.878  13.075  0.00  0.00    +0.011 C 
ATOM     32  C   UNL     1      10.046  -9.414  12.617  0.00  0.00    +0.007 C 
ATOM     33  N   UNL     1       6.537  -7.275  11.180  0.00  0.00    -0.285 N 
ATOM     34  C   UNL     1       5.565  -7.384  10.254  0.00  0.00    +0.310 C 
ATOM     35  O   UNL     1       4.384  -7.487  10.522  0.00  0.00    -0.252 OA
ATOM     36  H   UNL     1       6.423  -7.264  12.143  0.00  0.00    +0.151 HD
ENDBRANCH  20  21
ENDBRANCH   1  20
TORSDOF 9
