REMARK  Name = ZINC20929605
REMARK  10 active torsions:
REMARK  status: ('A' for Active; 'I' for Inactive)
REMARK    1  A    between atoms: C_1  and  C_2
REMARK    2  A    between atoms: C_3  and  C_7
REMARK    3  A    between atoms: N_9  and  N_10
REMARK    4  A    between atoms: C_11  and  C_13
REMARK    5  A    between atoms: C_13  and  C_14
REMARK    6  A    between atoms: N_18  and  C_19
REMARK    7  A    between atoms: C_19  and  C_20
REMARK    8  A    between atoms: N_25  and  C_26
REMARK    9  A    between atoms: C_30  and  O_32
REMARK   10  A    between atoms: O_32  and  C_33
REMARK                            x       y       z     vdW  Elec       q    Type
REMARK                         _______ _______ _______ _____ _____    ______ ____
ROOT
ATOM      1  C   UNL     1      -6.174   1.850   0.013  0.00  0.00    +0.042 A 
ATOM      2  C   UNL     1      -6.746   2.189   1.168  0.00  0.00    +0.070 A 
ATOM      3  S   UNL     1      -7.798   3.548   0.683  0.00  0.00    -0.058 S 
ATOM      4  C   UNL     1      -7.398   3.559  -1.058  0.00  0.00    +0.174 A 
ATOM      5  N   UNL     1      -7.848   4.339  -2.008  0.00  0.00    -0.253 NA
ATOM      6  N   UNL     1      -6.487   2.524  -1.133  0.00  0.00    -0.292 N 
ENDROOT
BRANCH   6   7
ATOM      7  C   UNL     1      -5.897   2.175  -2.353  0.00  0.00    +0.052 A 
ATOM      8  C   UNL     1      -5.243   3.139  -3.111  0.00  0.00    +0.026 A 
ATOM      9  C   UNL     1      -4.657   2.794  -4.313  0.00  0.00    +0.006 A 
ATOM     10  C   UNL     1      -4.729   1.491  -4.771  0.00  0.00    +0.046 A 
ATOM     11  C   UNL     1      -5.385   0.526  -4.021  0.00  0.00    +0.122 A 
ATOM     12  C   UNL     1      -5.970   0.867  -2.811  0.00  0.00    +0.071 A 
BRANCH  11  13
ATOM     13  O   UNL     1      -5.455  -0.754  -4.472  0.00  0.00    -0.495 OA
ATOM     14  C   UNL     1      -4.830  -1.035  -5.726  0.00  0.00    +0.277 C 
ENDBRANCH  11  13
ENDBRANCH   6   7
BRANCH   1  15
ATOM     15  C   UNL     1      -5.185   0.714  -0.030  0.00  0.00    +0.151 C 
BRANCH  15  17
ATOM     16  N   UNL     1      -2.729   0.426   0.059  0.00  0.00    -0.234 N 
ATOM     17  C   UNL     1      -3.785   1.263   0.076  0.00  0.00    +0.235 C 
ATOM     18  O   UNL     1      -3.609   2.459   0.177  0.00  0.00    -0.274 OA
ATOM     19  H   UNL     1      -2.889  -0.659  -0.032  0.00  0.00    +0.173 HD
BRANCH  16  22
ATOM     20  C   UNL     1      -0.373   0.099   0.141  0.00  0.00    +0.263 C 
ATOM     21  O   UNL     1      -0.550  -1.101   0.040  0.00  0.00    -0.269 OA
ATOM     22  N   UNL     1      -1.429   0.936   0.159  0.00  0.00    -0.230 N 
ATOM     23  H   UNL     1      -1.269   2.021   0.250  0.00  0.00    +0.173 HD
BRANCH  20  26
ATOM     24  C   UNL     1       2.283  -1.571   0.133  0.00  0.00    +0.087 C 
ATOM     25  C   UNL     1       2.162  -0.072   0.237  0.00  0.00    +0.114 A 
ATOM     26  C   UNL     1       0.996   0.636   0.240  0.00  0.00    +0.079 A 
ATOM     27  C   UNL     1       1.390   2.047   0.367  0.00  0.00    +0.054 A 
ATOM     28  C   UNL     1       2.730   2.052   0.422  0.00  0.00    +0.196 A 
ATOM     29  O   UNL     1       3.179   0.789   0.341  0.00  0.00    -0.467 OA
ENDBRANCH  20  26
ENDBRANCH  16  22
ENDBRANCH  15  17
ENDBRANCH   1  15
BRANCH   5  30
ATOM     30  C   UNL     1      -8.825   5.386  -1.696  0.00  0.00    +0.218 C 
BRANCH  30  31
ATOM     31  C   UNL     1      -8.251   6.732  -2.056  0.00  0.00    +0.126 A 
ATOM     32  C   UNL     1      -8.365   7.342  -3.250  0.00  0.00    +0.046 A 
ATOM     33  C   UNL     1      -7.684   8.576  -3.146  0.00  0.00    +0.041 A 
ATOM     34  C   UNL     1      -7.188   8.644  -1.897  0.00  0.00    +0.195 A 
ATOM     35  O   UNL     1      -7.534   7.524  -1.242  0.00  0.00    -0.466 OA
ENDBRANCH  30  31
ENDBRANCH   5  30
TORSDOF 8
