REMARK  Name = ZINC36017231
REMARK  13 active torsions:
REMARK  status: ('A' for Active; 'I' for Inactive)
REMARK    1  A    between atoms: C_1  and  C_2
REMARK    2  A    between atoms: C_2  and  C_3
REMARK    3  A    between atoms: N_9  and  C_12
REMARK    4  A    between atoms: C_12  and  C_13
REMARK    5  A    between atoms: C_14  and  C_31
REMARK    6  A    between atoms: C_15  and  C_23
REMARK    7  A    between atoms: N_20  and  C_21
REMARK    8  A    between atoms: C_21  and  C_22
REMARK    9  A    between atoms: C_25  and  C_30
REMARK   10  A    between atoms: C_28  and  C_29
REMARK   11  A    between atoms: C_31  and  O_33
REMARK   12  A    between atoms: O_33  and  C_34
REMARK   13  A    between atoms: C_34  and  C_35
REMARK                            x       y       z     vdW  Elec       q    Type
REMARK                         _______ _______ _______ _____ _____    ______ ____
ROOT
ATOM      1  C   UNL     1      -0.133  -3.857  -6.355  0.00  0.00    +0.010 C 
ATOM      2  C   UNL     1      -0.271  -5.147  -6.727  0.00  0.00    +0.076 C 
ATOM      3  C   UNL     1       0.424  -5.593  -7.997  0.00  0.00    +0.144 C 
ATOM      4  N   UNL     1       1.199  -4.575  -8.727  0.00  0.00    -0.288 N 
ATOM      5  C   UNL     1       1.243  -3.324  -8.228  0.00  0.00    +0.307 C 
ATOM      6  O   UNL     1       1.880  -2.476  -8.823  0.00  0.00    -0.252 OA
ATOM      7  N   UNL     1       0.604  -2.983  -7.102  0.00  0.00    -0.261 N 
ATOM      8  H   UNL     1       1.666  -4.800  -9.547  0.00  0.00    +0.151 HD
ENDROOT
BRANCH   3   9
ATOM      9  C   UNL     1       1.358  -6.722  -7.644  0.00  0.00    -0.019 A 
ATOM     10  C   UNL     1       2.630  -6.446  -7.178  0.00  0.00    +0.009 A 
ATOM     11  C   UNL     1       3.487  -7.481  -6.854  0.00  0.00    -0.050 A 
ATOM     12  C   UNL     1       3.072  -8.792  -6.996  0.00  0.00    +0.003 A 
ATOM     13  C   UNL     1       1.800  -9.068  -7.462  0.00  0.00    +0.004 A 
ATOM     14  C   UNL     1       0.942  -8.033  -7.782  0.00  0.00    -0.045 A 
ATOM     15  C   UNL     1      -0.447  -8.333  -8.284  0.00  0.00    +0.044 C 
ATOM     16  C   UNL     1       4.874  -7.181  -6.346  0.00  0.00    +0.044 C 
ENDBRANCH   3   9
BRANCH   7  17
ATOM     17  C   UNL     1       0.707  -1.596  -6.642  0.00  0.00    +0.111 C 
ATOM     18  C   UNL     1       1.999  -1.417  -5.843  0.00  0.00    +0.025 C 
ENDBRANCH   7  17
BRANCH   2  19
ATOM     19  C   UNL     1      -1.038  -6.052  -5.957  0.00  0.00    +0.339 C 
ATOM     20  O   UNL     1      -2.158  -6.362  -6.319  0.00  0.00    -0.245 OA
BRANCH  19  21
ATOM     21  O   UNL     1      -0.528  -6.572  -4.820  0.00  0.00    -0.462 OA
BRANCH  21  22
ATOM     22  C   UNL     1      -1.310  -7.564  -4.153  0.00  0.00    +0.229 C 
ATOM     23  C   UNL     1      -0.633  -7.945  -2.834  0.00  0.00    +0.048 C 
ENDBRANCH  21  22
ENDBRANCH  19  21
ENDBRANCH   2  19
BRANCH   1  24
ATOM     24  C   UNL     1      -0.807  -3.371  -5.098  0.00  0.00    -0.026 C 
BRANCH  24  31
ATOM     25  C   UNL     1      -5.934  -2.966  -5.225  0.00  0.00    +0.215 C 
ATOM     26  O   UNL     1      -6.127  -3.996  -5.834  0.00  0.00    -0.276 OA
ATOM     27  N   UNL     1      -4.916  -2.155  -5.577  0.00  0.00    -0.303 N 
ATOM     28  C   UNL     1      -4.701  -0.910  -4.813  0.00  0.00    +0.106 C 
ATOM     29  C   UNL     1      -3.202  -0.669  -4.557  0.00  0.00    +0.000 C 
ATOM     30  C   UNL     1      -2.530  -1.984  -4.229  0.00  0.00    -0.077 C 
ATOM     31  N   UNL     1      -1.982  -2.564  -5.453  0.00  0.00    +0.384 N 
ATOM     32  C   UNL     1      -2.879  -3.379  -6.179  0.00  0.00    -0.059 C 
ATOM     33  C   UNL     1      -4.069  -2.540  -6.686  0.00  0.00    +0.089 C 
ATOM     34  H   UNL     1      -1.678  -1.813  -6.053  0.00  0.00    -0.081 HD
BRANCH  25  36
ATOM     35  C   UNL     1      -7.898  -3.672  -3.886  0.00  0.00    +0.013 C 
ATOM     36  C   UNL     1      -6.832  -2.591  -4.074  0.00  0.00    +0.092 C 
ENDBRANCH  25  36
ENDBRANCH  24  31
ENDBRANCH   1  24
TORSDOF 8
