REMARK  Name = ZINC13127586
REMARK  6 active torsions:
REMARK  status: ('A' for Active; 'I' for Inactive)
REMARK    1  A    between atoms: C_1  and  C_2
REMARK    2  A    between atoms: C_2  and  O_3
REMARK    3  A    between atoms: O_3  and  C_4
REMARK    4  A    between atoms: C_7  and  C_10
REMARK    5  A    between atoms: C_13  and  C_20
REMARK    6  A    between atoms: C_23  and  C_26
REMARK                            x       y       z     vdW  Elec       q    Type
REMARK                         _______ _______ _______ _____ _____    ______ ____
ROOT
ATOM      1  C   UNL     1      -2.001  -6.092  -0.011  0.00  0.00    +0.148 C 
ATOM      2  C   UNL     1      -2.800  -6.514  -1.250  0.00  0.00    +0.088 C 
ATOM      3  C   UNL     1      -4.265  -6.234  -1.072  0.00  0.00    +0.055 C 
ATOM      4  N   UNL     1      -4.864  -6.321   0.085  0.00  0.00    -0.214 NA
ATOM      5  C   UNL     1      -4.119  -6.603   1.186  0.00  0.00    +0.270 A 
ATOM      6  N   UNL     1      -2.750  -6.505   1.172  0.00  0.00    -0.202 N 
ATOM      7  N   UNL     1      -2.333  -6.866   2.449  0.00  0.00    -0.042 NA
ATOM      8  N   UNL     1      -3.404  -7.126   3.127  0.00  0.00    -0.021 NA
ATOM      9  N   UNL     1      -4.457  -6.968   2.395  0.00  0.00    -0.088 NA
ENDROOT
BRANCH   3  10
ATOM     10  C   UNL     1      -5.057  -5.846  -2.250  0.00  0.00    -0.004 A 
ATOM     11  C   UNL     1      -4.449  -5.750  -3.506  0.00  0.00    +0.010 A 
ATOM     12  C   UNL     1      -5.199  -5.386  -4.604  0.00  0.00    +0.004 A 
ATOM     13  C   UNL     1      -6.549  -5.116  -4.467  0.00  0.00    -0.050 A 
ATOM     14  C   UNL     1      -7.158  -5.209  -3.227  0.00  0.00    +0.004 A 
ATOM     15  C   UNL     1      -6.424  -5.578  -2.120  0.00  0.00    +0.010 A 
ATOM     16  C   UNL     1      -7.361  -4.718  -5.673  0.00  0.00    +0.044 C 
ENDBRANCH   3  10
BRANCH   1  20
ATOM     17  C   UNL     1      -1.498  -1.848   0.006  0.00  0.00    +0.121 A 
ATOM     18  C   UNL     1      -0.388  -2.679  -0.003  0.00  0.00    +0.046 A 
ATOM     19  C   UNL     1      -0.553  -4.051  -0.008  0.00  0.00    +0.009 A 
ATOM     20  C   UNL     1      -1.823  -4.596  -0.005  0.00  0.00    -0.022 A 
ATOM     21  C   UNL     1      -2.932  -3.769   0.004  0.00  0.00    +0.009 A 
ATOM     22  C   UNL     1      -2.772  -2.397   0.016  0.00  0.00    +0.046 A 
BRANCH  17  23
ATOM     23  O   UNL     1      -1.339  -0.499   0.012  0.00  0.00    -0.492 OA
BRANCH  23  25
ATOM     24  C   UNL     1      -0.019   1.526   0.010  0.00  0.00    +0.048 C 
ATOM     25  C   UNL     1       0.002  -0.004   0.002  0.00  0.00    +0.225 C 
ENDBRANCH  23  25
ENDBRANCH  17  23
ENDBRANCH   1  20
TORSDOF 4
