REMARK  Name = ZINC38624593
REMARK  12 active torsions:
REMARK  status: ('A' for Active; 'I' for Inactive)
REMARK    1  A    between atoms: C_1  and  C_2
REMARK    2  A    between atoms: C_2  and  O_3
REMARK    3  A    between atoms: O_3  and  C_4
REMARK    4  A    between atoms: C_5  and  C_34
REMARK    5  A    between atoms: C_7  and  S_11
REMARK    6  A    between atoms: C_9  and  C_10
REMARK    7  A    between atoms: S_11  and  N_14
REMARK    8  A    between atoms: N_14  and  C_15
REMARK    9  A    between atoms: C_15  and  C_16
REMARK   10  A    between atoms: C_16  and  C_18
REMARK   11  A    between atoms: C_16  and  N_27
REMARK   12  A    between atoms: N_30  and  C_33
REMARK                            x       y       z     vdW  Elec       q    Type
REMARK                         _______ _______ _______ _____ _____    ______ ____
ROOT
ATOM      1  C   UNL     1      -1.626  -7.787   0.684  0.00  0.00    +0.102 C 
ENDROOT
BRANCH   1   2
ATOM      2  C   UNL     1      -3.105  -7.579   0.884  0.00  0.00    -0.025 A 
ATOM      3  C   UNL     1      -3.554  -6.552   1.694  0.00  0.00    +0.009 A 
ATOM      4  C   UNL     1      -4.910  -6.356   1.880  0.00  0.00    +0.050 A 
ATOM      5  C   UNL     1      -5.822  -7.191   1.255  0.00  0.00    +0.166 A 
ATOM      6  C   UNL     1      -5.370  -8.225   0.440  0.00  0.00    +0.167 A 
ATOM      7  C   UNL     1      -4.010  -8.411   0.254  0.00  0.00    +0.054 A 
ATOM      8  O   UNL     1      -6.452  -8.896  -0.053  0.00  0.00    -0.453 OA
ATOM      9  C   UNL     1      -7.556  -8.519   0.790  0.00  0.00    +0.466 C 
ATOM     10  O   UNL     1      -7.187  -7.213   1.273  0.00  0.00    -0.453 OA
ENDBRANCH   1   2
BRANCH   1  11
ATOM     11  N   UNL     1      -0.926  -7.582   1.959  0.00  0.00    -0.298 NA
ATOM     12  C   UNL     1       0.531  -7.649   1.777  0.00  0.00    +0.066 C 
ATOM     13  C   UNL     1       1.223  -7.372   3.114  0.00  0.00    -0.064 C 
ATOM     14  N   UNL     1       0.790  -8.366   4.104  0.00  0.00    +0.379 N 
ATOM     15  C   UNL     1      -0.664  -8.271   4.294  0.00  0.00    -0.064 C 
ATOM     16  C   UNL     1      -1.371  -8.555   2.967  0.00  0.00    +0.066 C 
ATOM     17  C   UNL     1       1.468  -8.111   5.382  0.00  0.00    -0.096 C 
ATOM     18  H   UNL     1       1.026  -9.291   3.778  0.00  0.00    -0.082 HD
ENDBRANCH   1  11
BRANCH   1  19
ATOM     19  C   UNL     1      -1.105  -6.787  -0.350  0.00  0.00    +0.129 C 
BRANCH  19  20
ATOM     20  N   UNL     1      -1.762  -7.029  -1.637  0.00  0.00    -0.188 NA
ATOM     21  H   UNL     1      -2.243  -7.857  -1.788  0.00  0.00    +0.148 HD
BRANCH  20  22
ATOM     22  S   UNL     1      -1.681  -5.888  -2.835  0.00  0.00    +0.058 S 
ATOM     23  O   UNL     1      -2.032  -4.647  -2.238  0.00  0.00    -0.153 OA
ATOM     24  O   UNL     1      -2.381  -6.421  -3.951  0.00  0.00    -0.153 OA
BRANCH  22  28
ATOM     25  C   UNL     1       2.661  -5.549  -4.073  0.00  0.00    +0.126 A 
ATOM     26  C   UNL     1       1.826  -6.457  -4.709  0.00  0.00    -0.007 A 
ATOM     27  C   UNL     1       0.502  -6.558  -4.329  0.00  0.00    +0.035 A 
ATOM     28  C   UNL     1       0.008  -5.756  -3.317  0.00  0.00    +0.106 A 
ATOM     29  C   UNL     1       0.838  -4.851  -2.682  0.00  0.00    +0.035 A 
ATOM     30  C   UNL     1       2.165  -4.750  -3.054  0.00  0.00    -0.007 A 
ATOM     31  C   UNL     1       3.071  -3.767  -2.357  0.00  0.00    +0.047 C 
ATOM     32  C   UNL     1       2.363  -7.330  -5.813  0.00  0.00    +0.047 C 
BRANCH  25  33
ATOM     33  O   UNL     1       3.965  -5.448  -4.445  0.00  0.00    -0.492 OA
BRANCH  33  35
ATOM     34  C   UNL     1       6.305  -6.038  -4.319  0.00  0.00    +0.048 C 
ATOM     35  C   UNL     1       4.899  -6.292  -3.770  0.00  0.00    +0.226 C 
ENDBRANCH  33  35
ENDBRANCH  25  33
ENDBRANCH  22  28
ENDBRANCH  20  22
ENDBRANCH  19  20
ENDBRANCH   1  19
TORSDOF 8
