REMARK  Name = ZINC28924189
REMARK  9 active torsions:
REMARK  status: ('A' for Active; 'I' for Inactive)
REMARK    1  A    between atoms: C_1  and  C_2
REMARK    2  A    between atoms: C_2  and  C_3
REMARK    3  A    between atoms: C_2  and  C_4
REMARK    4  A    between atoms: C_7  and  C_13
REMARK    5  A    between atoms: C_9  and  N_10
REMARK    6  A    between atoms: N_15  and  C_30
REMARK    7  A    between atoms: N_24  and  C_25
REMARK    8  A    between atoms: C_25  and  C_26
REMARK    9  A    between atoms: N_28  and  C_29
REMARK                            x       y       z     vdW  Elec       q    Type
REMARK                         _______ _______ _______ _____ _____    ______ ____
ROOT
ATOM      1  C   UNL     1      -1.363  -0.358   1.232  0.00  0.00    +0.195 C 
ATOM      2  N   UNL     1      -1.828   0.917   1.779  0.00  0.00    -0.278 N 
ATOM      3  C   UNL     1      -1.219   2.068   1.405  0.00  0.00    +0.250 C 
ATOM      4  O   UNL     1      -1.548   3.139   1.876  0.00  0.00    -0.270 OA
ATOM      5  C   UNL     1      -0.140   1.968   0.402  0.00  0.00    +0.058 A 
ATOM      6  C   UNL     1       0.774   3.001   0.213  0.00  0.00    +0.015 A 
ATOM      7  C   UNL     1       1.770   2.864  -0.732  0.00  0.00    +0.001 A 
ATOM      8  C   UNL     1       1.860   1.707  -1.490  0.00  0.00    +0.002 A 
ATOM      9  C   UNL     1       0.959   0.676  -1.313  0.00  0.00    +0.024 A 
ATOM     10  C   UNL     1      -0.051   0.796  -0.367  0.00  0.00    +0.044 A 
ATOM     11  N   UNL     1      -0.971  -0.221  -0.172  0.00  0.00    -0.298 N 
ATOM     12  C   UNL     1      -2.949   0.949   2.722  0.00  0.00    +0.134 C 
ENDROOT
BRANCH   1  16
ATOM     13  C   UNL     1       1.997  -1.710   3.496  0.00  0.00    -0.015 A 
ATOM     14  C   UNL     1       0.910  -2.543   3.308  0.00  0.00    +0.006 A 
ATOM     15  C   UNL     1      -0.180  -2.104   2.580  0.00  0.00    +0.007 A 
ATOM     16  C   UNL     1      -0.177  -0.835   2.030  0.00  0.00    -0.007 A 
ATOM     17  C   UNL     1       0.910  -0.003   2.218  0.00  0.00    +0.040 A 
ATOM     18  C   UNL     1       1.997  -0.440   2.951  0.00  0.00    +0.130 A 
BRANCH  13  20
ATOM     19  C   UNL     1       2.727  -3.244   5.302  0.00  0.00    +0.012 C 
ATOM     20  C   UNL     1       3.183  -2.188   4.294  0.00  0.00    +0.015 C 
ATOM     21  C   UNL     1       4.221  -2.798   3.350  0.00  0.00    +0.012 C 
ENDBRANCH  13  20
BRANCH  18  22
ATOM     22  N   UNL     1       3.162   0.451   3.151  0.00  0.00    +0.057 N 
ATOM     23  O   UNL     1       3.551   1.159   2.240  0.00  0.00    -0.126 OA
ATOM     24  O   UNL     1       3.730   0.477   4.228  0.00  0.00    -0.126 OA
ENDBRANCH  18  22
ENDBRANCH   1  16
BRANCH  11  25
ATOM     25  C   UNL     1      -0.469  -1.494  -0.705  0.00  0.00    +0.202 C 
BRANCH  25  26
ATOM     26  C   UNL     1      -1.598  -2.490  -0.773  0.00  0.00    +0.230 C 
ATOM     27  O   UNL     1      -2.743  -2.120  -0.619  0.00  0.00    -0.274 OA
ATOM     28  N   UNL     1      -1.336  -3.792  -1.006  0.00  0.00    -0.317 N 
ATOM     29  C   UNL     1      -2.434  -4.759  -1.072  0.00  0.00    +0.128 C 
ATOM     30  H   UNL     1      -0.298  -4.127  -1.145  0.00  0.00    +0.148 HD
ENDBRANCH  25  26
ENDBRANCH  11  25
TORSDOF 5
