REMARK  Name = ZINC22240959
REMARK  7 active torsions:
REMARK  status: ('A' for Active; 'I' for Inactive)
REMARK    1  A    between atoms: C_3  and  S_21
REMARK    2  A    between atoms: C_6  and  N_7
REMARK    3  A    between atoms: C_8  and  C_10
REMARK    4  A    between atoms: C_13  and  N_15
REMARK    5  A    between atoms: C_16  and  C_18
REMARK    6  A    between atoms: S_21  and  C_24
REMARK    7  A    between atoms: C_27  and  N_30
REMARK                            x       y       z     vdW  Elec       q    Type
REMARK                         _______ _______ _______ _____ _____    ______ ____
ROOT
ATOM      1  C   UNL     1       2.393  -3.378  -3.747  0.00  0.00    +0.025 A 
ATOM      2  C   UNL     1       2.395  -2.981  -2.424  0.00  0.00    +0.029 A 
ATOM      3  C   UNL     1       1.215  -2.969  -1.703  0.00  0.00    +0.094 A 
ATOM      4  C   UNL     1       0.031  -3.359  -2.301  0.00  0.00    +0.029 A 
ATOM      5  C   UNL     1       0.022  -3.751  -3.626  0.00  0.00    +0.025 A 
ATOM      6  C   UNL     1       1.205  -3.764  -4.353  0.00  0.00    +0.034 A 
ENDROOT
BRANCH   6   7
ATOM      7  N   UNL     1       1.200  -4.166  -5.692  0.00  0.00    -0.281 N 
ATOM      8  C   UNL     1       0.130  -3.905  -6.470  0.00  0.00    +0.255 C 
ATOM      9  O   UNL     1      -0.790  -3.236  -6.035  0.00  0.00    -0.269 OA
ATOM     10  H   UNL     1       2.068  -4.695  -6.111  0.00  0.00    +0.155 HD
BRANCH   8  11
ATOM     11  C   UNL     1       0.075  -4.424  -7.835  0.00  0.00    +0.076 A 
ATOM     12  C   UNL     1      -0.923  -4.271  -8.787  0.00  0.00    +0.022 A 
ATOM     13  C   UNL     1      -0.727  -4.865 -10.004  0.00  0.00    +0.032 A 
ATOM     14  C   UNL     1       0.436  -5.575 -10.215  0.00  0.00    +0.072 A 
ATOM     15  S   UNL     1       1.277  -5.411  -8.708  0.00  0.00    -0.069 S 
BRANCH  14  16
ATOM     16  N   UNL     1       0.839  -6.252 -11.360  0.00  0.00    -0.280 N 
ATOM     17  C   UNL     1       2.023  -6.895 -11.381  0.00  0.00    +0.221 C 
ATOM     18  O   UNL     1       2.737  -6.884 -10.400  0.00  0.00    -0.275 OA
ATOM     19  H   UNL     1       0.191  -6.262 -12.249  0.00  0.00    +0.155 HD
BRANCH  17  20
ATOM     20  C   UNL     1       2.460  -7.630 -12.622  0.00  0.00    +0.075 C 
ATOM     21  C   UNL     1       2.520  -9.157 -12.555  0.00  0.00    +0.013 C 
ATOM     22  C   UNL     1       3.814  -8.340 -12.583  0.00  0.00    +0.013 C 
ENDBRANCH  17  20
ENDBRANCH  14  16
ENDBRANCH   8  11
ENDBRANCH   6   7
BRANCH   3  23
ATOM     23  S   UNL     1       1.222  -2.462  -0.015  0.00  0.00    +0.025 S 
ATOM     24  O   UNL     1       2.542  -2.673   0.467  0.00  0.00    -0.164 OA
ATOM     25  O   UNL     1       0.085  -3.059   0.593  0.00  0.00    -0.164 OA
BRANCH  23  26
ATOM     26  C   UNL     1       0.949  -0.722   0.007  0.00  0.00    +0.094 A 
ATOM     27  C   UNL     1      -0.339  -0.225   0.077  0.00  0.00    +0.029 A 
ATOM     28  C   UNL     1      -0.552   1.141   0.095  0.00  0.00    +0.034 A 
ATOM     29  C   UNL     1       0.522   2.009   0.045  0.00  0.00    +0.126 A 
ATOM     30  C   UNL     1       1.810   1.512  -0.026  0.00  0.00    +0.034 A 
ATOM     31  C   UNL     1       2.024   0.147  -0.044  0.00  0.00    +0.029 A 
BRANCH  29  32
ATOM     32  N   UNL     1       0.293   3.472   0.064  0.00  0.00    +0.056 N 
ATOM     33  O   UNL     1      -0.842   3.910   0.125  0.00  0.00    -0.126 OA
ATOM     34  O   UNL     1       1.239   4.237   0.020  0.00  0.00    -0.126 OA
ENDBRANCH  29  32
ENDBRANCH  23  26
ENDBRANCH   3  23
TORSDOF 7
