REMARK  Name = ZINC12520395
REMARK  10 active torsions:
REMARK  status: ('A' for Active; 'I' for Inactive)
REMARK    1  A    between atoms: C_1  and  N_2
REMARK    2  A    between atoms: C_6  and  S_7
REMARK    3  A    between atoms: S_7  and  C_8
REMARK    4  A    between atoms: C_8  and  C_9
REMARK    5  A    between atoms: C_12  and  C_14
REMARK    6  A    between atoms: N_16  and  N_17
REMARK    7  A    between atoms: C_18  and  C_20
REMARK    8  A    between atoms: C_23  and  C_26
REMARK    9  A    between atoms: C_26  and  O_27
REMARK   10  A    between atoms: O_27  and  C_28
REMARK                            x       y       z     vdW  Elec       q    Type
REMARK                         _______ _______ _______ _____ _____    ______ ____
ROOT
ATOM      1  N   UNL     1       1.608   6.801   0.024  0.00  0.00    -0.230 N 
ATOM      2  C   UNL     1       1.007   8.007   0.036  0.00  0.00    +0.260 C 
ATOM      3  O   UNL     1      -0.206   8.081   0.048  0.00  0.00    -0.269 OA
ATOM      4  H   UNL     1       2.576   6.742   0.015  0.00  0.00    +0.173 HD
ENDROOT
BRANCH   2   5
ATOM      5  C   UNL     1       1.823   9.240   0.035  0.00  0.00    +0.038 A 
ATOM      6  C   UNL     1       3.216   9.158   0.028  0.00  0.00    +0.013 A 
ATOM      7  C   UNL     1       3.972  10.313   0.021  0.00  0.00    +0.008 A 
ATOM      8  C   UNL     1       3.351  11.549   0.034  0.00  0.00    -0.010 A 
ATOM      9  C   UNL     1       1.970  11.637   0.047  0.00  0.00    +0.008 A 
ATOM     10  C   UNL     1       1.203  10.491   0.048  0.00  0.00    +0.013 A 
BRANCH   8  11
ATOM     11  C   UNL     1       4.183  12.806   0.033  0.00  0.00    +0.264 C 
BRANCH  11  12
ATOM     12  O   UNL     1       4.458  13.196   1.380  0.00  0.00    -0.487 OA
BRANCH  12  13
ATOM     13  C   UNL     1       5.204  14.319   1.558  0.00  0.00    +0.121 A 
ATOM     14  C   UNL     1       5.665  15.027   0.458  0.00  0.00    +0.047 A 
ATOM     15  C   UNL     1       6.418  16.170   0.640  0.00  0.00    +0.023 A 
ATOM     16  C   UNL     1       6.722  16.603   1.919  0.00  0.00    +0.041 A 
ATOM     17  C   UNL     1       6.267  15.895   3.017  0.00  0.00    +0.023 A 
ATOM     18  C   UNL     1       5.509  14.754   2.839  0.00  0.00    +0.047 A 
ATOM     19 CL   UNL     1       7.674  18.037   2.145  0.00  0.00    -0.084 Cl
ENDBRANCH  12  13
ENDBRANCH  11  12
ENDBRANCH   8  11
ENDBRANCH   2   5
BRANCH   1  22
ATOM     20  C   UNL     1       1.436   4.427   0.013  0.00  0.00    +0.295 C 
ATOM     21  O   UNL     1       2.651   4.352   0.001  0.00  0.00    -0.265 OA
ATOM     22  N   UNL     1       0.835   5.633   0.025  0.00  0.00    -0.228 N 
ATOM     23  H   UNL     1      -0.133   5.692   0.034  0.00  0.00    +0.173 HD
BRANCH  20  27
ATOM     24  C   UNL     1      -1.110   1.864   0.017  0.00  0.00    +0.116 A 
ATOM     25  C   UNL     1      -0.013   1.076   0.008  0.00  0.00    +0.046 A 
ATOM     26  C   UNL     1       1.105   1.925   0.002  0.00  0.00    +0.055 A 
ATOM     27  C   UNL     1       0.627   3.204   0.013  0.00  0.00    +0.191 A 
ATOM     28  O   UNL     1      -0.721   3.145   0.026  0.00  0.00    -0.454 OA
BRANCH  24  29
ATOM     29  C   UNL     1      -2.538   1.380   0.020  0.00  0.00    +0.151 C 
BRANCH  29  30
ATOM     30  S   UNL     1      -3.102   1.177   1.728  0.00  0.00    -0.080 S 
BRANCH  30  36
ATOM     31  C   UNL     1      -5.457   0.365   3.851  0.00  0.00    +0.151 C 
ATOM     32  N   UNL     1      -5.661   0.305   2.401  0.00  0.00    -0.329 N 
ATOM     33  C   UNL     1      -6.812  -0.080   1.752  0.00  0.00    +0.107 A 
ATOM     34  C   UNL     1      -6.568   0.011   0.433  0.00  0.00    +0.131 A 
ATOM     35  N   UNL     1      -5.307   0.446   0.266  0.00  0.00    -0.230 NA
ATOM     36  C   UNL     1      -4.749   0.621   1.442  0.00  0.00    +0.169 A 
ENDBRANCH  30  36
ENDBRANCH  29  30
ENDBRANCH  24  29
ENDBRANCH  20  27
ENDBRANCH   1  22
TORSDOF 9
