REMARK  Name = ZINC32072078
REMARK  8 active torsions:
REMARK  status: ('A' for Active; 'I' for Inactive)
REMARK    1  A    between atoms: C_1  and  C_2
REMARK    2  A    between atoms: C_10  and  O_13
REMARK    3  A    between atoms: O_13  and  C_14
REMARK    4  A    between atoms: C_19  and  C_21
REMARK    5  A    between atoms: C_24  and  O_27
REMARK    6  A    between atoms: O_27  and  C_28
REMARK    7  A    between atoms: C_28  and  C_29
REMARK    8  A    between atoms: C_28  and  C_30
REMARK                            x       y       z     vdW  Elec       q    Type
REMARK                         _______ _______ _______ _____ _____    ______ ____
ROOT
ATOM      1  C   UNL     1      -0.462   1.713  -0.206  0.00  0.00    +0.068 C 
ATOM      2  C   UNL     1      -0.416   0.212  -0.079  0.00  0.00    +0.066 A 
ATOM      3  C   UNL     1      -0.217  -0.686  -1.117  0.00  0.00    +0.023 A 
ATOM      4  C   UNL     1      -0.238  -1.951  -0.592  0.00  0.00    +0.134 A 
ATOM      5  N   UNL     1      -0.453  -1.838   0.735  0.00  0.00    -0.198 N 
ATOM      6  N   UNL     1      -0.552  -0.469   1.035  0.00  0.00    -0.168 NA
ATOM      7  C   UNL     1      -0.555  -2.893   1.649  0.00  0.00    +0.178 A 
ATOM      8  C   UNL     1      -0.266  -2.682   2.996  0.00  0.00    +0.055 A 
ATOM      9  C   UNL     1      -0.380  -3.756   3.861  0.00  0.00    +0.072 A 
ATOM     10  C   UNL     1      -0.778  -4.983   3.332  0.00  0.00    +0.234 A 
ATOM     11  N   UNL     1      -1.031  -5.090   2.038  0.00  0.00    -0.110 NA
ATOM     12  N   UNL     1      -0.930  -4.093   1.236  0.00  0.00    -0.126 NA
ATOM     13  N   UNL     1      -0.045  -3.082  -1.385  0.00  0.00    -0.270 N 
ATOM     14  C   UNL     1       0.365  -2.902  -2.658  0.00  0.00    +0.219 C 
ATOM     15  O   UNL     1       0.356  -3.849  -3.417  0.00  0.00    -0.275 OA
ATOM     16  C   UNL     1       0.832  -1.567  -3.166  0.00  0.00    +0.109 C 
ATOM     17  C   UNL     1      -0.013  -0.427  -2.588  0.00  0.00    +0.063 C 
ATOM     18  H   UNL     1      -0.202  -3.971  -1.031  0.00  0.00    +0.156 HD
ENDROOT
BRANCH  17  19
ATOM     19  C   UNL     1       0.707   0.883  -2.777  0.00  0.00    -0.039 A 
ATOM     20  C   UNL     1       1.966   1.064  -2.235  0.00  0.00    +0.008 A 
ATOM     21  C   UNL     1       2.628   2.264  -2.407  0.00  0.00    +0.046 A 
ATOM     22  C   UNL     1       2.028   3.289  -3.124  0.00  0.00    +0.121 A 
ATOM     23  C   UNL     1       0.765   3.106  -3.667  0.00  0.00    +0.046 A 
ATOM     24  C   UNL     1       0.110   1.901  -3.498  0.00  0.00    +0.008 A 
BRANCH  22  25
ATOM     25  O   UNL     1       2.677   4.471  -3.294  0.00  0.00    -0.489 OA
BRANCH  25  26
ATOM     26  C   UNL     1       1.954   5.522  -3.939  0.00  0.00    +0.167 C 
ATOM     27  C   UNL     1       2.528   6.874  -3.511  0.00  0.00    +0.051 C 
ATOM     28  C   UNL     1       2.080   5.371  -5.456  0.00  0.00    +0.051 C 
ENDBRANCH  25  26
ENDBRANCH  22  25
ENDBRANCH  17  19
BRANCH  10  29
ATOM     29  O   UNL     1      -0.903  -6.065   4.141  0.00  0.00    -0.479 OA
ATOM     30  C   UNL     1      -1.315  -7.289   3.529  0.00  0.00    +0.279 C 
ENDBRANCH  10  29
TORSDOF 4
