REMARK  Name = ZINC16010016
REMARK  7 active torsions:
REMARK  status: ('A' for Active; 'I' for Inactive)
REMARK    1  A    between atoms: C_1  and  C_2
REMARK    2  A    between atoms: C_4  and  C_37
REMARK    3  A    between atoms: C_6  and  N_8
REMARK    4  A    between atoms: C_13  and  C_32
REMARK    5  A    between atoms: C_25  and  C_30
REMARK    6  A    between atoms: C_32  and  C_33
REMARK    7  A    between atoms: C_33  and  C_34
REMARK                            x       y       z     vdW  Elec       q    Type
REMARK                         _______ _______ _______ _____ _____    ______ ____
ROOT
ATOM      1  N   UNL     1       0.050  -2.798   2.395  0.00  0.00    -0.210 N 
ATOM      2  C   UNL     1      -0.025  -4.133   2.452  0.00  0.00    +0.232 C 
ATOM      3  O   UNL     1      -0.117  -4.870   1.494  0.00  0.00    -0.274 OA
ATOM      4  C   UNL     1       0.022  -4.578   3.896  0.00  0.00    +0.107 C 
ATOM      5  C   UNL     1      -1.342  -5.183   4.288  0.00  0.00    +0.068 C 
ATOM      6  N   UNL     1      -2.164  -4.023   4.723  0.00  0.00    -0.295 NA
ATOM      7  C   UNL     1      -1.216  -3.162   5.454  0.00  0.00    +0.136 C 
ATOM      8  C   UNL     1       0.124  -3.240   4.681  0.00  0.00    +0.123 C 
ATOM      9  C   UNL     1       0.146  -2.196   3.586  0.00  0.00    +0.233 C 
ATOM     10  O   UNL     1       0.234  -1.000   3.761  0.00  0.00    -0.274 OA
ATOM     11  C   UNL     1      -1.050  -3.610   6.879  0.00  0.00    +0.004 A 
ATOM     12  C   UNL     1      -0.632  -4.786   7.461  0.00  0.00    +0.009 A 
ATOM     13  C   UNL     1      -0.585  -4.899   8.839  0.00  0.00    +0.021 A 
ATOM     14  C   UNL     1      -0.959  -3.827   9.630  0.00  0.00    +0.046 A 
ATOM     15  C   UNL     1      -1.378  -2.646   9.051  0.00  0.00    -0.011 A 
ATOM     16  C   UNL     1      -1.429  -2.525   7.665  0.00  0.00    +0.043 A 
ATOM     17  N   UNL     1      -1.812  -1.453   6.856  0.00  0.00    -0.283 N 
ATOM     18  C   UNL     1      -1.717  -1.746   5.545  0.00  0.00    +0.243 C 
ATOM     19  O   UNL     1      -1.982  -1.012   4.617  0.00  0.00    -0.273 OA
ATOM     20  C   UNL     1      -1.783  -1.484   9.922  0.00  0.00    +0.047 C 
ATOM     21 CL   UNL     1      -0.901  -3.968  11.360  0.00  0.00    -0.083 Cl
ATOM     22  H   UNL     1      -2.554  -3.538   3.928  0.00  0.00    +0.123 HD
ATOM     23  H   UNL     1      -2.112  -0.597   7.198  0.00  0.00    +0.155 HD
ENDROOT
BRANCH   1  29
ATOM     24  C   UNL     1       2.382   0.035  -0.880  0.00  0.00    +0.044 C 
ATOM     25  C   UNL     1       1.152  -0.707  -0.424  0.00  0.00    -0.048 A 
ATOM     26  C   UNL     1       0.007  -0.687  -1.199  0.00  0.00    +0.006 A 
ATOM     27  C   UNL     1      -1.124  -1.366  -0.784  0.00  0.00    -0.048 A 
ATOM     28  C   UNL     1      -1.113  -2.066   0.406  0.00  0.00    +0.027 A 
ATOM     29  C   UNL     1       0.035  -2.088   1.186  0.00  0.00    +0.044 A 
ATOM     30  C   UNL     1       1.171  -1.411   0.764  0.00  0.00    +0.027 A 
ATOM     31  C   UNL     1      -2.370  -1.341  -1.631  0.00  0.00    +0.044 C 
ENDBRANCH   1  29
BRANCH   5  32
ATOM     32  C   UNL     1      -1.986  -5.872   3.083  0.00  0.00    +0.028 C 
BRANCH  32  33
ATOM     33  C   UNL     1      -3.274  -6.571   3.522  0.00  0.00    +0.097 C 
BRANCH  33  34
ATOM     34  C   UNL     1      -3.907  -7.249   2.335  0.00  0.00    +0.211 C 
ATOM     35  O   UNL     1      -3.380  -7.181   1.245  0.00  0.00    -0.276 OA
ATOM     36  N   UNL     1      -5.060  -7.932   2.485  0.00  0.00    -0.329 N 
ATOM     37  H   UNL     1      -5.481  -7.986   3.357  0.00  0.00    +0.145 HD
ATOM     38  H   UNL     1      -5.468  -8.369   1.721  0.00  0.00    +0.145 HD
ENDBRANCH  33  34
ENDBRANCH  32  33
ENDBRANCH   5  32
TORSDOF 4
