REMARK  Name = ZINC08789132
REMARK  9 active torsions:
REMARK  status: ('A' for Active; 'I' for Inactive)
REMARK    1  A    between atoms: C_1  and  C_2
REMARK    2  A    between atoms: C_2  and  O_3
REMARK    3  A    between atoms: O_3  and  C_4
REMARK    4  A    between atoms: C_4  and  C_6
REMARK    5  A    between atoms: C_9  and  N_12
REMARK    6  A    between atoms: C_17  and  C_35
REMARK    7  A    between atoms: C_27  and  C_34
REMARK    8  A    between atoms: C_28  and  C_33
REMARK    9  A    between atoms: C_35  and  C_36
REMARK                            x       y       z     vdW  Elec       q    Type
REMARK                         _______ _______ _______ _____ _____    ______ ____
ROOT
ATOM      1  N   UNL     1       2.111   1.716   3.026  0.00  0.00    -0.210 N 
ATOM      2  C   UNL     1       1.441   0.702   2.466  0.00  0.00    +0.228 C 
ATOM      3  O   UNL     1       1.946  -0.237   1.889  0.00  0.00    -0.275 OA
ATOM      4  C   UNL     1      -0.043   0.910   2.664  0.00  0.00    +0.074 C 
ATOM      5  C   UNL     1      -0.705   1.196   1.300  0.00  0.00    -0.049 C 
ATOM      6  C   UNL     1      -0.797   3.225   2.458  0.00  0.00    +0.050 C 
ATOM      7  C   UNL     1      -0.117   2.257   3.436  0.00  0.00    +0.088 C 
ATOM      8  C   UNL     1       1.335   2.643   3.602  0.00  0.00    +0.229 C 
ATOM      9  O   UNL     1       1.736   3.636   4.170  0.00  0.00    -0.275 OA
ATOM     10  C   UNL     1      -0.234   4.613   2.580  0.00  0.00    -0.027 A 
ATOM     11  C   UNL     1       1.029   5.140   2.428  0.00  0.00    +0.005 A 
ATOM     12  C   UNL     1       1.239   6.495   2.610  0.00  0.00    +0.004 A 
ATOM     13  C   UNL     1       0.179   7.317   2.945  0.00  0.00    -0.046 A 
ATOM     14  C   UNL     1      -1.088   6.793   3.099  0.00  0.00    -0.026 A 
ATOM     15  C   UNL     1      -1.309   5.430   2.917  0.00  0.00    +0.039 A 
ATOM     16  N   UNL     1      -2.479   4.674   3.013  0.00  0.00    -0.286 N 
ATOM     17  C   UNL     1      -2.264   3.369   2.758  0.00  0.00    +0.211 C 
ATOM     18  O   UNL     1      -3.091   2.482   2.767  0.00  0.00    -0.277 OA
ATOM     19  C   UNL     1      -2.236   7.699   3.463  0.00  0.00    +0.046 C 
ATOM     20  C   UNL     1       0.408   8.793   3.144  0.00  0.00    +0.044 C 
ATOM     21  H   UNL     1      -3.346   5.045   3.238  0.00  0.00    +0.155 HD
ATOM     22  N   UNL     1      -0.582   2.647   1.142  0.00  0.00    +0.394 N 
ATOM     23  H   UNL     1      -1.288   2.994   0.483  0.00  0.00    -0.083 HD
ATOM     24  H   UNL     1       0.355   2.888   0.797  0.00  0.00    -0.083 HD
ENDROOT
BRANCH   1  28
ATOM     25  C   UNL     1       6.271   1.971   2.979  0.00  0.00    +0.059 A 
ATOM     26  C   UNL     1       5.596   1.769   4.186  0.00  0.00    +0.017 A 
ATOM     27  C   UNL     1       4.221   1.685   4.197  0.00  0.00    +0.025 A 
ATOM     28  C   UNL     1       3.506   1.802   3.011  0.00  0.00    +0.044 A 
ATOM     29  C   UNL     1       4.175   1.998   1.807  0.00  0.00    +0.025 A 
ATOM     30  C   UNL     1       5.549   2.088   1.789  0.00  0.00    +0.017 A 
BRANCH  25  31
ATOM     31  C   UNL     1       7.744   2.062   2.963  0.00  0.00    +0.339 C 
ATOM     32  O   UNL     1       8.370   1.959   3.999  0.00  0.00    -0.245 OA
BRANCH  31  33
ATOM     33  O   UNL     1       8.394   2.257   1.799  0.00  0.00    -0.461 OA
BRANCH  33  35
ATOM     34  C   UNL     1      10.399   2.558   0.450  0.00  0.00    +0.048 C 
ATOM     35  C   UNL     1       9.842   2.335   1.858  0.00  0.00    +0.229 C 
ENDBRANCH  33  35
ENDBRANCH  31  33
ENDBRANCH  25  31
ENDBRANCH   1  28
BRANCH   5  36
ATOM     36  C   UNL     1       0.028   0.449   0.185  0.00  0.00    +0.080 C 
BRANCH  36  37
ATOM     37  C   UNL     1      -0.685   0.673  -1.123  0.00  0.00    +0.209 C 
ATOM     38  O   UNL     1      -1.681   1.364  -1.160  0.00  0.00    -0.276 OA
ATOM     39  N   UNL     1      -0.215   0.107  -2.253  0.00  0.00    -0.329 N 
ATOM     40  H   UNL     1       0.582  -0.445  -2.223  0.00  0.00    +0.145 HD
ATOM     41  H   UNL     1      -0.674   0.252  -3.095  0.00  0.00    +0.145 HD
ENDBRANCH  36  37
ENDBRANCH   5  36
TORSDOF 6
