REMARK  Name = ZINC45604942
REMARK  10 active torsions:
REMARK  status: ('A' for Active; 'I' for Inactive)
REMARK    1  A    between atoms: C_1  and  C_2
REMARK    2  A    between atoms: C_6  and  N_28
REMARK    3  A    between atoms: C_7  and  C_8
REMARK    4  A    between atoms: C_8  and  O_10
REMARK    5  A    between atoms: O_10  and  C_11
REMARK    6  A    between atoms: C_11  and  C_13
REMARK    7  A    between atoms: C_11  and  C_14
REMARK    8  A    between atoms: N_16  and  C_17
REMARK    9  A    between atoms: C_17  and  C_19
REMARK   10  A    between atoms: C_17  and  C_20
REMARK                            x       y       z     vdW  Elec       q    Type
REMARK                         _______ _______ _______ _____ _____    ______ ____
ROOT
ATOM      1  C   UNL     1       1.119   1.065   4.311  0.00  0.00    +0.259 C 
ATOM      2  C   UNL     1       1.069   2.571   4.045  0.00  0.00    +0.062 C 
ENDROOT
BRANCH   1   3
ATOM      3  C   UNL     1       2.334   0.742   5.142  0.00  0.00    +0.254 C 
ATOM      4  O   UNL     1       3.222   0.059   4.678  0.00  0.00    -0.272 OA
ATOM      5  N   UNL     1       2.433   1.212   6.402  0.00  0.00    -0.306 N 
ATOM      6  H   UNL     1       1.723   1.758   6.773  0.00  0.00    +0.149 HD
BRANCH   5   7
ATOM      7  C   UNL     1       3.614   0.897   7.210  0.00  0.00    +0.102 C 
ATOM      8  C   UNL     1       3.422  -0.461   7.888  0.00  0.00    +0.033 C 
BRANCH   7   9
ATOM      9  C   UNL     1       3.802   1.961   8.260  0.00  0.00    -0.009 A 
ATOM     10  C   UNL     1       2.718   2.698   8.698  0.00  0.00    +0.008 A 
ATOM     11  C   UNL     1       2.889   3.674   9.662  0.00  0.00    +0.020 A 
ATOM     12  C   UNL     1       4.146   3.914  10.188  0.00  0.00    +0.042 A 
ATOM     13  C   UNL     1       5.231   3.177   9.751  0.00  0.00    +0.040 A 
ATOM     14  C   UNL     1       5.058   2.196   8.790  0.00  0.00    +0.047 A 
ATOM     15 CL   UNL     1       6.418   1.266   8.244  0.00  0.00    -0.083 Cl
ATOM     16 CL   UNL     1       4.361   5.141  11.398  0.00  0.00    -0.083 Cl
ENDBRANCH   7   9
ENDBRANCH   5   7
ENDBRANCH   1   3
BRANCH   1  17
ATOM     17  O   UNL     1       1.192   0.364   3.068  0.00  0.00    -0.449 OA
BRANCH  17  18
ATOM     18  C   UNL     1       0.025   0.017   2.492  0.00  0.00    +0.342 C 
ATOM     19  O   UNL     1      -1.026   0.300   3.031  0.00  0.00    -0.245 OA
BRANCH  18  26
ATOM     20  C   UNL     1      -0.018   1.503   0.010  0.00  0.00    +0.044 C 
ATOM     21  C   UNL     1       0.002  -0.004   0.002  0.00  0.00    -0.034 A 
ATOM     22  C   UNL     1       0.006  -0.689  -1.196  0.00  0.00    +0.004 A 
ATOM     23  C   UNL     1       0.025  -2.072  -1.205  0.00  0.00    +0.003 A 
ATOM     24  C   UNL     1       0.040  -2.779  -0.015  0.00  0.00    +0.033 A 
ATOM     25  C   UNL     1       0.037  -2.107   1.189  0.00  0.00    +0.140 A 
ATOM     26  C   UNL     1       0.023  -0.710   1.206  0.00  0.00    +0.092 A 
BRANCH  25  27
ATOM     27  N   UNL     1       0.052  -2.864   2.461  0.00  0.00    +0.057 N 
ATOM     28  O   UNL     1       0.068  -4.072   2.445  0.00  0.00    -0.126 OA
ATOM     29  O   UNL     1       0.050  -2.273   3.516  0.00  0.00    -0.126 OA
ENDBRANCH  25  27
ENDBRANCH  18  26
ENDBRANCH  17  18
ENDBRANCH   1  17
TORSDOF 7
