REMARK  Name = ZINC08845703
REMARK  10 active torsions:
REMARK  status: ('A' for Active; 'I' for Inactive)
REMARK    1  A    between atoms: C_1  and  C_2
REMARK    2  A    between atoms: C_2  and  O_3
REMARK    3  A    between atoms: O_3  and  C_4
REMARK    4  A    between atoms: C_6  and  C_18
REMARK    5  A    between atoms: C_9  and  O_10
REMARK    6  A    between atoms: O_10  and  C_11
REMARK    7  A    between atoms: C_11  and  C_12
REMARK    8  A    between atoms: C_21  and  C_32
REMARK    9  A    between atoms: C_27  and  N_31
REMARK   10  A    between atoms: C_28  and  C_29
REMARK                            x       y       z     vdW  Elec       q    Type
REMARK                         _______ _______ _______ _____ _____    ______ ____
ROOT
ATOM      1  C   UNL     1      -1.498  -1.849   0.006  0.00  0.00    +0.162 A 
ATOM      2  C   UNL     1      -0.389  -2.680  -0.003  0.00  0.00    +0.054 A 
ATOM      3  C   UNL     1      -0.553  -4.052  -0.008  0.00  0.00    -0.031 A 
ATOM      4  C   UNL     1      -1.823  -4.600  -0.005  0.00  0.00    +0.008 A 
ATOM      5  C   UNL     1      -2.934  -3.777   0.004  0.00  0.00    +0.050 A 
ATOM      6  C   UNL     1      -2.776  -2.400   0.016  0.00  0.00    +0.162 A 
ENDROOT
BRANCH   3   7
ATOM      7  C   UNL     1       0.654  -4.954  -0.018  0.00  0.00    +0.101 C 
ATOM      8  C   UNL     1       0.635  -5.843   1.199  0.00  0.00    +0.049 A 
ATOM      9  C   UNL     1       0.864  -5.538   2.485  0.00  0.00    +0.041 A 
ATOM     10  N   UNL     1       0.728  -6.676   3.206  0.00  0.00    -0.278 N 
ATOM     11  H   UNL     1       0.836  -6.757   4.167  0.00  0.00    +0.189 HD
ATOM     12  N   UNL     1       0.405  -7.717   2.322  0.00  0.00    -0.135 NA
ATOM     13  C   UNL     1       0.348  -7.224   1.119  0.00  0.00    +0.245 A 
ATOM     14  O   UNL     1       0.075  -7.836  -0.064  0.00  0.00    -0.421 OA
ATOM     15  C   UNL     1       0.347  -7.153  -1.194  0.00  0.00    +0.201 C 
ATOM     16  C   UNL     1       0.623  -5.832  -1.243  0.00  0.00    +0.098 C 
ATOM     17  C   UNL     1       1.208  -4.176   3.029  0.00  0.00    +0.065 C 
BRANCH  15  18
ATOM     18  N   UNL     1       0.344  -7.849  -2.377  0.00  0.00    -0.328 N 
ATOM     19  H   UNL     1       0.149  -8.800  -2.381  0.00  0.00    +0.145 HD
ATOM     20  H   UNL     1       0.535  -7.390  -3.210  0.00  0.00    +0.145 HD
ENDBRANCH  15  18
BRANCH  16  21
ATOM     21  C   UNL     1       0.898  -5.238  -2.517  0.00  0.00    +0.101 C 
ATOM     22  N   UNL     1       1.117  -4.767  -3.527  0.00  0.00    -0.191 NA
ENDBRANCH  16  21
ENDBRANCH   3   7
BRANCH   1  23
ATOM     23  O   UNL     1      -1.339  -0.499   0.012  0.00  0.00    -0.489 OA
BRANCH  23  25
ATOM     24  C   UNL     1      -0.019   1.526   0.010  0.00  0.00    +0.048 C 
ATOM     25  C   UNL     1       0.002  -0.004   0.002  0.00  0.00    +0.226 C 
ENDBRANCH  23  25
ENDBRANCH   1  23
BRANCH   6  26
ATOM     26  O   UNL     1      -3.868  -1.589   0.030  0.00  0.00    -0.484 OA
BRANCH  26  27
ATOM     27  C   UNL     1      -5.148  -2.225   0.039  0.00  0.00    +0.264 C 
BRANCH  27  28
ATOM     28  C   UNL     1      -6.229  -1.175   0.055  0.00  0.00    -0.010 A 
ATOM     29  C   UNL     1      -6.710  -0.696   1.259  0.00  0.00    +0.007 A 
ATOM     30  C   UNL     1      -7.702   0.266   1.274  0.00  0.00    +0.000 A 
ATOM     31  C   UNL     1      -8.213   0.750   0.084  0.00  0.00    +0.000 A 
ATOM     32  C   UNL     1      -7.732   0.272  -1.120  0.00  0.00    +0.000 A 
ATOM     33  C   UNL     1      -6.737  -0.688  -1.135  0.00  0.00    +0.007 A 
ENDBRANCH  27  28
ENDBRANCH  26  27
ENDBRANCH   6  26
TORSDOF 8
