REMARK  Name = ZINC09283956
REMARK  11 active torsions:
REMARK  status: ('A' for Active; 'I' for Inactive)
REMARK    1  A    between atoms: C_1  and  C_2
REMARK    2  A    between atoms: C_6  and  C_9
REMARK    3  A    between atoms: C_7  and  C_8
REMARK    4  A    between atoms: C_9  and  O_11
REMARK    5  A    between atoms: O_11  and  C_12
REMARK    6  A    between atoms: C_12  and  C_14
REMARK    7  A    between atoms: C_12  and  C_15
REMARK    8  A    between atoms: N_17  and  C_18
REMARK    9  A    between atoms: C_21  and  S_24
REMARK   10  A    between atoms: S_24  and  N_27
REMARK   11  A    between atoms: N_27  and  C_28
REMARK                            x       y       z     vdW  Elec       q    Type
REMARK                         _______ _______ _______ _____ _____    ______ ____
ROOT
ATOM      1  C   UNL     1       0.046  -5.646   2.131  0.00  0.00    +0.258 C 
ATOM      2  O   UNL     1       0.099  -5.907   0.948  0.00  0.00    -0.271 OA
ATOM      3  N   UNL     1       0.393  -6.576   3.042  0.00  0.00    -0.282 N 
ATOM      4  H   UNL     1       0.279  -6.394   3.989  0.00  0.00    +0.155 HD
ENDROOT
BRANCH   3   5
ATOM      5  C   UNL     1       0.916  -7.805   2.624  0.00  0.00    +0.034 A 
ATOM      6  C   UNL     1       0.634  -8.961   3.340  0.00  0.00    +0.025 A 
ATOM      7  C   UNL     1       1.152 -10.172   2.924  0.00  0.00    +0.031 A 
ATOM      8  C   UNL     1       1.950 -10.234   1.796  0.00  0.00    +0.111 A 
ATOM      9  C   UNL     1       2.233  -9.084   1.082  0.00  0.00    +0.031 A 
ATOM     10  C   UNL     1       1.713  -7.871   1.489  0.00  0.00    +0.025 A 
BRANCH   8  11
ATOM     11  S   UNL     1       2.609 -11.781   1.269  0.00  0.00    +0.094 S 
ATOM     12  O   UNL     1       3.769 -11.488   0.502  0.00  0.00    -0.148 OA
ATOM     13  O   UNL     1       2.646 -12.618   2.417  0.00  0.00    -0.148 OA
BRANCH  11  14
ATOM     14  N   UNL     1       1.510 -12.452   0.228  0.00  0.00    -0.058 NA
BRANCH  14  15
ATOM     15  C   UNL     1       1.766 -13.684  -0.349  0.00  0.00    +0.257 A 
ATOM     16  N   UNL     1       2.893 -14.314  -0.053  0.00  0.00    -0.220 NA
ATOM     17  C   UNL     1       3.168 -15.493  -0.587  0.00  0.00    +0.116 A 
ATOM     18  C   UNL     1       2.261 -16.066  -1.464  0.00  0.00    +0.039 A 
ATOM     19  C   UNL     1       1.092 -15.379  -1.751  0.00  0.00    +0.116 A 
ATOM     20  N   UNL     1       0.876 -14.206  -1.179  0.00  0.00    -0.220 NA
ENDBRANCH  14  15
ENDBRANCH  11  14
ENDBRANCH   8  11
ENDBRANCH   3   5
BRANCH   1  21
ATOM     21  C   UNL     1      -0.407  -4.281   2.583  0.00  0.00    +0.259 C 
ATOM     22  C   UNL     1      -1.653  -4.422   3.459  0.00  0.00    +0.062 C 
BRANCH  21  23
ATOM     23  O   UNL     1      -0.716  -3.480   1.440  0.00  0.00    -0.449 OA
BRANCH  23  24
ATOM     24  C   UNL     1      -0.533  -2.151   1.558  0.00  0.00    +0.340 C 
ATOM     25  O   UNL     1      -0.122  -1.684   2.602  0.00  0.00    -0.245 OA
BRANCH  24  31
ATOM     26  C   UNL     1      -0.466   2.392  -0.504  0.00  0.00    +0.044 C 
ATOM     27  C   UNL     1      -0.802   0.925  -0.579  0.00  0.00    -0.047 A 
ATOM     28  C   UNL     1      -1.393   0.409  -1.719  0.00  0.00    +0.003 A 
ATOM     29  C   UNL     1      -1.704  -0.936  -1.797  0.00  0.00    +0.001 A 
ATOM     30  C   UNL     1      -1.428  -1.774  -0.736  0.00  0.00    +0.015 A 
ATOM     31  C   UNL     1      -0.832  -1.260   0.418  0.00  0.00    +0.062 A 
ATOM     32  C   UNL     1      -0.515   0.098   0.487  0.00  0.00    -0.034 A 
ATOM     33  C   UNL     1       0.134   0.660   1.725  0.00  0.00    +0.045 C 
ENDBRANCH  24  31
ENDBRANCH  23  24
ENDBRANCH  21  23
ENDBRANCH   1  21
TORSDOF 8
