REMARK  Name = ZINC09226938
REMARK  7 active torsions:
REMARK  status: ('A' for Active; 'I' for Inactive)
REMARK    1  A    between atoms: C_1  and  C_2
REMARK    2  A    between atoms: C_5  and  N_11
REMARK    3  A    between atoms: C_6  and  N_8
REMARK    4  A    between atoms: C_12  and  C_14
REMARK    5  A    between atoms: N_19  and  C_21
REMARK    6  A    between atoms: C_24  and  O_27
REMARK    7  A    between atoms: O_27  and  C_28
REMARK                            x       y       z     vdW  Elec       q    Type
REMARK                         _______ _______ _______ _____ _____    ______ ____
ROOT
ATOM      1  N   UNL     1      -1.102  -0.717   0.003  0.00  0.00    -0.283 N 
ATOM      2  C   UNL     1      -2.270  -0.059   0.143  0.00  0.00    +0.222 C 
ATOM      3  O   UNL     1      -2.283   1.153   0.173  0.00  0.00    -0.275 OA
ATOM      4  H   UNL     1      -1.097  -1.681  -0.103  0.00  0.00    +0.155 HD
ENDROOT
BRANCH   1   9
ATOM      5  C   UNL     1       3.791   2.154   0.036  0.00  0.00    +0.044 C 
ATOM      6  C   UNL     1       2.492   1.391   0.027  0.00  0.00    -0.048 A 
ATOM      7  C   UNL     1       1.381   1.913   0.665  0.00  0.00    +0.005 A 
ATOM      8  C   UNL     1       0.188   1.217   0.658  0.00  0.00    +0.026 A 
ATOM      9  C   UNL     1       0.105  -0.009   0.011  0.00  0.00    +0.064 A 
ATOM     10  C   UNL     1       1.222  -0.530  -0.628  0.00  0.00    +0.148 A 
ATOM     11  C   UNL     1       2.412   0.171  -0.618  0.00  0.00    +0.038 A 
BRANCH  10  12
ATOM     12  N   UNL     1       1.138  -1.837  -1.318  0.00  0.00    +0.058 N 
ATOM     13  O   UNL     1       2.140  -2.340  -1.794  0.00  0.00    -0.126 OA
ATOM     14  O   UNL     1       0.067  -2.409  -1.411  0.00  0.00    -0.126 OA
ENDBRANCH  10  12
ENDBRANCH   1   9
BRANCH   2  15
ATOM     15  C   UNL     1      -3.559  -0.831   0.263  0.00  0.00    +0.102 C 
ATOM     16  C   UNL     1      -3.548  -1.736   1.516  0.00  0.00    +0.110 C 
ATOM     17  C   UNL     1      -4.970  -1.675   2.030  0.00  0.00    +0.221 C 
ATOM     18  O   UNL     1      -5.455  -2.452   2.824  0.00  0.00    -0.275 OA
ATOM     19  N   UNL     1      -5.616  -0.633   1.479  0.00  0.00    -0.271 N 
ATOM     20  C   UNL     1      -4.742   0.115   0.567  0.00  0.00    +0.127 C 
BRANCH  19  21
ATOM     21  C   UNL     1      -6.952  -0.304   1.741  0.00  0.00    +0.036 A 
ATOM     22  C   UNL     1      -7.732  -1.139   2.529  0.00  0.00    +0.027 A 
ATOM     23  C   UNL     1      -9.047  -0.811   2.792  0.00  0.00    +0.047 A 
ATOM     24  C   UNL     1      -9.594   0.347   2.258  0.00  0.00    +0.120 A 
ATOM     25  C   UNL     1      -8.817   1.179   1.465  0.00  0.00    +0.047 A 
ATOM     26  C   UNL     1      -7.500   0.855   1.207  0.00  0.00    +0.027 A 
BRANCH  24  27
ATOM     27  O   UNL     1     -10.891   0.666   2.512  0.00  0.00    -0.495 OA
ATOM     28  C   UNL     1     -11.632  -0.236   3.336  0.00  0.00    +0.277 C 
ENDBRANCH  24  27
ENDBRANCH  19  21
ENDBRANCH   2  15
TORSDOF 5
