REMARK  Name = ZINC20113958
REMARK  8 active torsions:
REMARK  status: ('A' for Active; 'I' for Inactive)
REMARK    1  A    between atoms: C_1  and  O_2
REMARK    2  A    between atoms: O_2  and  C_3
REMARK    3  A    between atoms: C_8  and  O_9
REMARK    4  A    between atoms: O_9  and  C_10
REMARK    5  A    between atoms: C_11  and  C_16
REMARK    6  A    between atoms: N_21  and  C_24
REMARK    7  A    between atoms: C_24  and  C_25
REMARK    8  A    between atoms: C_25  and  C_26
REMARK                            x       y       z     vdW  Elec       q    Type
REMARK                         _______ _______ _______ _____ _____    ______ ____
ROOT
ATOM      1  C   UNL     1      -0.708   1.567   1.255  0.00  0.00    +0.072 A 
ATOM      2  C   UNL     1      -1.110   0.679   2.209  0.00  0.00    +0.258 A 
ATOM      3  N   UNL     1      -1.741   1.139   3.337  0.00  0.00    -0.302 N 
ATOM      4  C   UNL     1      -1.965   2.455   3.504  0.00  0.00    +0.163 A 
ATOM      5  S   UNL     1      -2.756   3.003   4.920  0.00  0.00    -0.013 S 
ATOM      6  N   UNL     1      -1.576   3.347   2.574  0.00  0.00    -0.288 N 
ATOM      7  C   UNL     1      -0.947   2.938   1.455  0.00  0.00    +0.260 A 
ATOM      8  O   UNL     1      -0.592   3.751   0.619  0.00  0.00    -0.267 OA
ATOM      9  O   UNL     1      -0.887  -0.642   2.045  0.00  0.00    -0.267 OA
ATOM     10  H   UNL     1      -2.068   0.430   4.112  0.00  0.00    +0.171 HD
ENDROOT
BRANCH   1  17
ATOM     11  C   UNL     1       4.018   2.528   0.062  0.00  0.00    +0.162 A 
ATOM     12  C   UNL     1       3.294   2.560  -1.116  0.00  0.00    +0.053 A 
ATOM     13  C   UNL     1       1.987   2.099  -1.149  0.00  0.00    -0.044 A 
ATOM     14  C   UNL     1       1.403   1.602  -0.003  0.00  0.00    -0.050 A 
ATOM     15  C   UNL     1       2.124   1.569   1.182  0.00  0.00    +0.052 A 
ATOM     16  C   UNL     1       3.429   2.030   1.220  0.00  0.00    +0.162 A 
ATOM     17  C   UNL     1      -0.013   1.086   0.008  0.00  0.00    +0.001 C 
ATOM     18  N   UNL     1      -0.744   1.566  -1.169  0.00  0.00    +0.387 N 
ATOM     19  C   UNL     1       0.007   1.257  -2.396  0.00  0.00    -0.077 C 
ATOM     20  C   UNL     1       1.236   2.164  -2.455  0.00  0.00    +0.016 C 
ATOM     21  H   UNL     1      -1.727   1.075  -1.215  0.00  0.00    -0.085 HD
ATOM     22  H   UNL     1      -0.881   2.655  -1.096  0.00  0.00    -0.085 HD
BRANCH  11  24
ATOM     23  C   UNL     1       5.839   3.478  -1.138  0.00  0.00    +0.277 C 
ATOM     24  O   UNL     1       5.300   2.981   0.089  0.00  0.00    -0.491 OA
ENDBRANCH  11  24
BRANCH  16  25
ATOM     25  O   UNL     1       4.131   1.995   2.384  0.00  0.00    -0.491 OA
ATOM     26  C   UNL     1       3.460   1.470   3.531  0.00  0.00    +0.277 C 
ENDBRANCH  16  25
ENDBRANCH   1  17
BRANCH   6  27
ATOM     27  C   UNL     1      -1.833   4.774   2.784  0.00  0.00    +0.131 C 
BRANCH  27  28
ATOM     28  C   UNL     1      -0.647   5.404   3.518  0.00  0.00    +0.052 C 
BRANCH  28  29
ATOM     29  C   UNL     1      -0.911   6.871   3.733  0.00  0.00    -0.072 C 
ATOM     30  C   UNL     1      -1.422   7.236   4.865  0.00  0.00    -0.028 C 
ATOM     31  C   UNL     1      -1.749   8.657   5.221  0.00  0.00    +0.027 C 
ATOM     32  C   UNL     1      -1.023   9.617   4.277  0.00  0.00    +0.004 C 
ATOM     33  C   UNL     1      -1.272   9.160   2.834  0.00  0.00    +0.005 C 
ATOM     34  C   UNL     1      -0.559   7.820   2.625  0.00  0.00    +0.030 C 
ENDBRANCH  28  29
ENDBRANCH  27  28
ENDBRANCH   6  27
TORSDOF 6
