REMARK  Name = ZINC63637969
REMARK  5 active torsions:
REMARK  status: ('A' for Active; 'I' for Inactive)
REMARK    1  A    between atoms: C_4  and  N_16
REMARK    2  A    between atoms: C_5  and  C_7
REMARK    3  A    between atoms: C_17  and  C_19
REMARK    4  A    between atoms: C_19  and  O_20
REMARK    5  A    between atoms: O_20  and  C_21
REMARK                            x       y       z     vdW  Elec       q    Type
REMARK                         _______ _______ _______ _____ _____    ______ ____
ROOT
ATOM      1  C   UNL     1      -0.082   1.370  -0.039  0.00  0.00    +0.001 A 
ATOM      2  C   UNL     1       1.096   2.095  -0.057  0.00  0.00    +0.002 A 
ATOM      3  C   UNL     1       2.312   1.440  -0.057  0.00  0.00    +0.024 A 
ATOM      4  C   UNL     1       2.351   0.052  -0.038  0.00  0.00    +0.040 A 
ATOM      5  C   UNL     1       1.167  -0.673  -0.020  0.00  0.00    +0.016 A 
ATOM      6  C   UNL     1      -0.046  -0.012  -0.021  0.00  0.00    +0.009 A 
ENDROOT
BRANCH   5   7
ATOM      7  C   UNL     1       1.204  -2.179   0.001  0.00  0.00    +0.208 C 
ATOM      8  N   UNL     1       2.230  -2.645   0.942  0.00  0.00    -0.360 N 
ATOM      9  C   UNL     1       1.630  -3.352   1.856  0.00  0.00    +0.060 A 
ATOM     10  C   UNL     1       2.114  -4.068   3.044  0.00  0.00    +0.027 A 
ATOM     11  C   UNL     1       1.237  -4.731   3.825  0.00  0.00    +0.002 A 
ATOM     12  C   UNL     1      -0.142  -4.769   3.553  0.00  0.00    +0.002 A 
ATOM     13  C   UNL     1      -0.691  -4.146   2.490  0.00  0.00    +0.027 A 
ATOM     14  C   UNL     1       0.170  -3.392   1.567  0.00  0.00    +0.060 A 
ATOM     15  N   UNL     1      -0.076  -2.709   0.487  0.00  0.00    -0.360 N 
ATOM     16  H   UNL     1       3.181  -2.460   0.893  0.00  0.00    +0.162 HD
ATOM     17  H   UNL     1      -0.945  -2.575   0.078  0.00  0.00    +0.162 HD
ENDBRANCH   5   7
BRANCH   4  18
ATOM     18  N   UNL     1       3.581  -0.615  -0.038  0.00  0.00    -0.282 N 
ATOM     19  C   UNL     1       4.681  -0.001   0.441  0.00  0.00    +0.255 C 
ATOM     20  O   UNL     1       4.587   1.090   0.963  0.00  0.00    -0.272 OA
ATOM     21  H   UNL     1       3.642  -1.520  -0.384  0.00  0.00    +0.155 HD
BRANCH  19  22
ATOM     22  C   UNL     1       6.027  -0.669   0.328  0.00  0.00    +0.324 C 
BRANCH  22  23
ATOM     23  O   UNL     1       7.027   0.174   0.904  0.00  0.00    -0.483 OA
BRANCH  23  24
ATOM     24  C   UNL     1       8.306  -0.284   0.883  0.00  0.00    +0.121 A 
ATOM     25  C   UNL     1       8.594  -1.516   0.316  0.00  0.00    +0.047 A 
ATOM     26  C   UNL     1       9.895  -1.980   0.296  0.00  0.00    +0.023 A 
ATOM     27  C   UNL     1      10.911  -1.216   0.843  0.00  0.00    +0.041 A 
ATOM     28  C   UNL     1      10.626   0.013   1.410  0.00  0.00    +0.023 A 
ATOM     29  C   UNL     1       9.327   0.483   1.426  0.00  0.00    +0.047 A 
ATOM     30 CL   UNL     1      12.545  -1.802   0.817  0.00  0.00    -0.084 Cl
ENDBRANCH  23  24
ENDBRANCH  22  23
ENDBRANCH  19  22
ENDBRANCH   4  18
TORSDOF 5
