REMARK  Name = ZINC20704242
REMARK  8 active torsions:
REMARK  status: ('A' for Active; 'I' for Inactive)
REMARK    1  A    between atoms: C_1  and  C_2
REMARK    2  A    between atoms: C_2  and  N_3
REMARK    3  A    between atoms: N_3  and  C_4
REMARK    4  A    between atoms: N_3  and  S_6
REMARK    5  A    between atoms: C_4  and  C_5
REMARK    6  A    between atoms: S_6  and  C_9
REMARK    7  A    between atoms: C_22  and  C_25
REMARK    8  A    between atoms: C_29  and  N_31
REMARK                            x       y       z     vdW  Elec       q    Type
REMARK                         _______ _______ _______ _____ _____    ______ ____
ROOT
ATOM      1  C   UNL     1      -0.022   1.758   0.012  0.00  0.00    +0.106 A 
ATOM      2  C   UNL     1      -1.231   2.430   0.021  0.00  0.00    +0.030 A 
ATOM      3  C   UNL     1      -1.246   3.810   0.033  0.00  0.00    +0.025 A 
ATOM      4  C   UNL     1      -0.050   4.519   0.024  0.00  0.00    +0.031 A 
ATOM      5  C   UNL     1       1.163   3.849   0.010  0.00  0.00    -0.018 A 
ATOM      6  C   UNL     1       1.165   2.461   0.004  0.00  0.00    +0.034 A 
ATOM      7  C   UNL     1       2.475   4.569   0.003  0.00  0.00    +0.049 C 
ATOM      8  C   UNL     1       3.123   4.523  -1.360  0.00  0.00    -0.023 C 
ATOM      9  C   UNL     1       3.745   5.650  -1.605  0.00  0.00    -0.030 C 
ATOM     10  C   UNL     1       3.600   6.602  -0.433  0.00  0.00    +0.033 C 
ATOM     11  C   UNL     1       2.336   6.074   0.306  0.00  0.00    +0.029 C 
ATOM     12  C   UNL     1       1.113   6.642  -0.418  0.00  0.00    +0.105 C 
ATOM     13  N   UNL     1      -0.082   5.917   0.027  0.00  0.00    -0.336 N 
ATOM     14  H   UNL     1      -0.973   6.474   0.352  0.00  0.00    +0.147 HD
ENDROOT
BRANCH  12  15
ATOM     15  C   UNL     1       1.283   6.470  -1.906  0.00  0.00    -0.025 A 
ATOM     16  C   UNL     1       1.019   5.247  -2.494  0.00  0.00    +0.007 A 
ATOM     17  C   UNL     1       1.174   5.088  -3.858  0.00  0.00    +0.022 A 
ATOM     18  C   UNL     1       1.594   6.154  -4.635  0.00  0.00    +0.071 A 
ATOM     19  C   UNL     1       1.858   7.377  -4.046  0.00  0.00    +0.145 A 
ATOM     20  C   UNL     1       1.696   7.536  -2.682  0.00  0.00    +0.039 A 
ATOM     21 CL   UNL     1       1.790   5.955  -6.349  0.00  0.00    -0.081 Cl
BRANCH  19  22
ATOM     22  N   UNL     1       2.306   8.517  -4.876  0.00  0.00    +0.058 N 
ATOM     23  O   UNL     1       2.538   9.594  -4.357  0.00  0.00    -0.126 OA
ATOM     24  O   UNL     1       2.443   8.379  -6.078  0.00  0.00    -0.126 OA
ENDBRANCH  19  22
ENDBRANCH  12  15
BRANCH   1  25
ATOM     25  S   UNL     1       0.002  -0.004   0.002  0.00  0.00    +0.061 S 
ATOM     26  O   UNL     1      -1.243  -0.424  -0.539  0.00  0.00    -0.153 OA
ATOM     27  O   UNL     1       1.248  -0.390  -0.563  0.00  0.00    -0.153 OA
BRANCH  25  28
ATOM     28  N   UNL     1       0.024  -0.502   1.581  0.00  0.00    -0.177 NA
BRANCH  28  30
ATOM     29  C   UNL     1      -1.595  -2.225   2.210  0.00  0.00    +0.022 C 
ATOM     30  C   UNL     1      -1.235  -0.740   2.292  0.00  0.00    +0.106 C 
ENDBRANCH  28  30
BRANCH  28  31
ATOM     31  C   UNL     1       1.302  -0.705   2.268  0.00  0.00    +0.106 C 
ATOM     32  C   UNL     1       1.671   0.561   3.043  0.00  0.00    +0.022 C 
ENDBRANCH  28  31
ENDBRANCH  25  28
ENDBRANCH   1  25
TORSDOF 6
