REMARK  Name = ZINC10135572
REMARK  8 active torsions:
REMARK  status: ('A' for Active; 'I' for Inactive)
REMARK    1  A    between atoms: C_2  and  C_3
REMARK    2  A    between atoms: C_3  and  N_4
REMARK    3  A    between atoms: C_7  and  C_10
REMARK    4  A    between atoms: C_10  and  O_12
REMARK    5  A    between atoms: O_12  and  C_13
REMARK    6  A    between atoms: C_13  and  C_14
REMARK    7  A    between atoms: N_16  and  C_17
REMARK    8  A    between atoms: C_20  and  N_24
REMARK                            x       y       z     vdW  Elec       q    Type
REMARK                         _______ _______ _______ _____ _____    ______ ____
ROOT
ATOM      1  C   UNL     1      -3.702   2.128  -0.184  0.00  0.00    +0.328 C 
ENDROOT
BRANCH   1   2
ATOM      2  C   UNL     1      -2.394   1.385  -0.081  0.00  0.00    +0.255 C 
ATOM      3  O   UNL     1      -2.384   0.173  -0.088  0.00  0.00    -0.272 OA
ATOM      4  N   UNL     1      -1.237   2.069   0.019  0.00  0.00    -0.282 N 
ATOM      5  H   UNL     1      -1.251   3.035   0.105  0.00  0.00    +0.155 HD
BRANCH   4   6
ATOM      6  C   UNL     1      -0.016   1.385  -0.001  0.00  0.00    +0.048 A 
ATOM      7  C   UNL     1       0.076   0.144  -0.617  0.00  0.00    +0.026 A 
ATOM      8  C   UNL     1       1.283  -0.526  -0.640  0.00  0.00    +0.034 A 
ATOM      9  C   UNL     1       2.401   0.038  -0.052  0.00  0.00    +0.127 A 
ATOM     10  C   UNL     1       2.313   1.274   0.561  0.00  0.00    +0.049 A 
ATOM     11  C   UNL     1       1.108   1.950   0.589  0.00  0.00    +0.041 A 
ATOM     12 BR   UNL     1       0.989   3.640   1.428  0.00  0.00    -0.048 Br
BRANCH   9  13
ATOM     13  N   UNL     1       3.693  -0.682  -0.080  0.00  0.00    +0.056 N 
ATOM     14  O   UNL     1       3.772  -1.771  -0.620  0.00  0.00    -0.126 OA
ATOM     15  O   UNL     1       4.678  -0.187   0.437  0.00  0.00    -0.126 OA
ENDBRANCH   9  13
ENDBRANCH   4   6
ENDBRANCH   1   2
BRANCH   1  16
ATOM     16  O   UNL     1      -4.793   1.175  -0.280  0.00  0.00    -0.451 OA
BRANCH  16  17
ATOM     17  C   UNL     1      -6.039   1.680  -0.380  0.00  0.00    +0.359 C 
ATOM     18  O   UNL     1      -6.209   2.884  -0.387  0.00  0.00    -0.243 OA
BRANCH  17  22
ATOM     19  N   UNL     1      -8.053  -2.758  -0.575  0.00  0.00    -0.320 N 
ATOM     20  C   UNL     1      -8.043  -1.373  -0.565  0.00  0.00    +0.159 A 
ATOM     21  N   UNL     1      -7.018  -0.550  -0.481  0.00  0.00    -0.218 NA
ATOM     22  C   UNL     1      -7.193   0.774  -0.481  0.00  0.00    +0.157 A 
ATOM     23  C   UNL     1      -8.467   1.277  -0.583  0.00  0.00    +0.083 A 
ATOM     24  S   UNL     1      -9.416  -0.235  -0.671  0.00  0.00    -0.060 S 
ATOM     25  H   UNL     1      -7.219  -3.249  -0.509  0.00  0.00    +0.148 HD
BRANCH  19  26
ATOM     26  C   UNL     1      -9.322  -3.481  -0.684  0.00  0.00    +0.130 C 
BRANCH  26  28
ATOM     27  C   UNL     1      -9.658  -5.729   0.207  0.00  0.00    +0.005 C 
ATOM     28  C   UNL     1      -9.058  -4.964  -0.671  0.00  0.00    -0.016 C 
ENDBRANCH  26  28
ENDBRANCH  19  26
ENDBRANCH  17  22
ENDBRANCH  16  17
ENDBRANCH   1  16
TORSDOF 8
