REMARK  Name = ZINC08928053
REMARK  8 active torsions:
REMARK  status: ('A' for Active; 'I' for Inactive)
REMARK    1  A    between atoms: C_1  and  C_2
REMARK    2  A    between atoms: C_2  and  C_3
REMARK    3  A    between atoms: C_2  and  C_4
REMARK    4  A    between atoms: C_14  and  C_16
REMARK    5  A    between atoms: N_21  and  S_22
REMARK    6  A    between atoms: S_22  and  C_25
REMARK    7  A    between atoms: C_28  and  O_31
REMARK    8  A    between atoms: O_31  and  C_32
REMARK                            x       y       z     vdW  Elec       q    Type
REMARK                         _______ _______ _______ _____ _____    ______ ____
ROOT
ATOM      1  C   UNL     1       1.157   2.107   0.002  0.00  0.00    -0.044 A 
ATOM      2  C   UNL     1      -0.017   1.366   0.010  0.00  0.00    +0.006 A 
ATOM      3  C   UNL     1       0.002  -0.004   0.002  0.00  0.00    +0.029 A 
ATOM      4  C   UNL     1       1.227  -0.710  -0.013  0.00  0.00    +0.080 A 
ATOM      5  C   UNL     1       2.401   0.077  -0.020  0.00  0.00    +0.041 A 
ATOM      6  C   UNL     1       2.373   1.450  -0.013  0.00  0.00    +0.021 A 
ATOM      7  S   UNL     1       3.682  -1.153  -0.039  0.00  0.00    -0.052 S 
ATOM      8  C   UNL     1       2.616  -2.587  -0.036  0.00  0.00    +0.165 A 
ATOM      9  N   UNL     1       1.420  -2.047  -0.022  0.00  0.00    -0.225 NA
ATOM     10  N   UNL     1       2.963  -3.929  -0.046  0.00  0.00    -0.263 N 
ATOM     11  C   UNL     1       2.002  -4.874  -0.042  0.00  0.00    +0.238 C 
ATOM     12  O   UNL     1       0.833  -4.550  -0.029  0.00  0.00    -0.274 OA
ATOM     13  H   UNL     1       3.898  -4.188  -0.057  0.00  0.00    +0.157 HD
ENDROOT
BRANCH  11  14
ATOM     14  C   UNL     1       2.380  -6.332  -0.053  0.00  0.00    +0.166 C 
ATOM     15  C   UNL     1       3.179  -6.678   1.221  0.00  0.00    +0.031 C 
ATOM     16  C   UNL     1       2.096  -7.272   2.160  0.00  0.00    +0.019 C 
ATOM     17  C   UNL     1       1.188  -8.021   1.153  0.00  0.00    +0.110 C 
ATOM     18  N   UNL     1       1.166  -7.163  -0.046  0.00  0.00    -0.165 NA
BRANCH  18  19
ATOM     19  S   UNL     1      -0.027  -7.138  -1.194  0.00  0.00    +0.062 S 
ATOM     20  O   UNL     1      -1.206  -7.621  -0.565  0.00  0.00    -0.153 OA
ATOM     21  O   UNL     1       0.036  -5.863  -1.818  0.00  0.00    -0.153 OA
BRANCH  19  22
ATOM     22  C   UNL     1       0.408  -8.323  -2.424  0.00  0.00    +0.106 A 
ATOM     23  C   UNL     1       1.172  -7.939  -3.511  0.00  0.00    +0.032 A 
ATOM     24  C   UNL     1       1.519  -8.867  -4.474  0.00  0.00    +0.047 A 
ATOM     25  C   UNL     1       1.092 -10.182  -4.355  0.00  0.00    +0.120 A 
ATOM     26  C   UNL     1       0.322 -10.563  -3.266  0.00  0.00    +0.047 A 
ATOM     27  C   UNL     1      -0.018  -9.632  -2.303  0.00  0.00    +0.032 A 
BRANCH  25  28
ATOM     28  O   UNL     1       1.429 -11.095  -5.303  0.00  0.00    -0.495 OA
ATOM     29  C   UNL     1       2.224 -10.633  -6.397  0.00  0.00    +0.277 C 
ENDBRANCH  25  28
ENDBRANCH  19  22
ENDBRANCH  18  19
ENDBRANCH  11  14
BRANCH   1  31
ATOM     30  C   UNL     1       0.356   4.105  -1.230  0.00  0.00    +0.012 C 
ATOM     31  C   UNL     1       1.105   3.613   0.010  0.00  0.00    +0.013 C 
ATOM     32  C   UNL     1       0.379   4.092   1.269  0.00  0.00    +0.012 C 
ENDBRANCH   1  31
TORSDOF 5
