REMARK  Name = ZINC12727802
REMARK  11 active torsions:
REMARK  status: ('A' for Active; 'I' for Inactive)
REMARK    1  A    between atoms: C_1  and  C_2
REMARK    2  A    between atoms: C_2  and  O_3
REMARK    3  A    between atoms: O_3  and  C_4
REMARK    4  A    between atoms: C_4  and  C_6
REMARK    5  A    between atoms: C_7  and  C_32
REMARK    6  A    between atoms: N_8  and  C_24
REMARK    7  A    between atoms: C_12  and  C_14
REMARK    8  A    between atoms: C_17  and  C_20
REMARK    9  A    between atoms: C_20  and  C_21
REMARK   10  A    between atoms: C_20  and  C_22
REMARK   11  A    between atoms: C_20  and  C_23
REMARK                            x       y       z     vdW  Elec       q    Type
REMARK                         _______ _______ _______ _____ _____    ______ ____
ROOT
ATOM      1  C   UNL     1       1.064   3.290  -0.214  0.00  0.00    +0.078 C 
ATOM      2  C   UNL     1      -0.171   3.771   0.047  0.00  0.00    +0.024 C 
ATOM      3  N   UNL     1      -1.222   2.930   0.275  0.00  0.00    -0.254 N 
ATOM      4  C   UNL     1      -1.122   1.595   0.254  0.00  0.00    +0.307 C 
ATOM      5  O   UNL     1      -2.116   0.927   0.465  0.00  0.00    -0.252 OA
ATOM      6  N   UNL     1       0.046   0.966   0.014  0.00  0.00    -0.288 N 
ATOM      7  C   UNL     1       1.242   1.785  -0.245  0.00  0.00    +0.143 C 
ATOM      8  C   UNL     1      -0.392   5.261   0.087  0.00  0.00    +0.061 C 
ATOM      9  H   UNL     1       0.096  -0.003   0.007  0.00  0.00    +0.151 HD
ENDROOT
BRANCH   3  10
ATOM     10  C   UNL     1      -2.533   3.521   0.552  0.00  0.00    +0.105 C 
ATOM     11  C   UNL     1      -3.556   3.023  -0.483  0.00  0.00    +0.047 C 
ATOM     12  C   UNL     1      -4.990   3.377  -0.019  0.00  0.00    +0.168 C 
ATOM     13  S   UNL     1      -4.827   3.407   1.812  0.00  0.00    -0.029 S 
ATOM     14  O   UNL     1      -5.102   4.720   2.279  0.00  0.00    -0.174 OA
ATOM     15  O   UNL     1      -5.541   2.307   2.358  0.00  0.00    -0.174 OA
ATOM     16  C   UNL     1      -3.019   3.084   1.963  0.00  0.00    +0.188 C 
ENDBRANCH   3  10
BRANCH   7  17
ATOM     17  C   UNL     1       1.778   1.409  -1.602  0.00  0.00    -0.022 A 
ATOM     18  C   UNL     1       0.906   1.161  -2.646  0.00  0.00    +0.006 A 
ATOM     19  C   UNL     1       1.397   0.820  -3.892  0.00  0.00    +0.004 A 
ATOM     20  C   UNL     1       2.761   0.717  -4.092  0.00  0.00    -0.042 A 
ATOM     21  C   UNL     1       3.634   0.959  -3.047  0.00  0.00    +0.004 A 
ATOM     22  C   UNL     1       3.142   1.305  -1.802  0.00  0.00    +0.006 A 
BRANCH  20  23
ATOM     23  C   UNL     1       3.297   0.341  -5.449  0.00  0.00    -0.013 C 
ATOM     24  C   UNL     1       4.107  -0.953  -5.337  0.00  0.00    +0.015 C 
ATOM     25  C   UNL     1       2.132   0.130  -6.418  0.00  0.00    +0.015 C 
ATOM     26  C   UNL     1       4.197   1.462  -5.971  0.00  0.00    +0.015 C 
ENDBRANCH  20  23
ENDBRANCH   7  17
BRANCH   1  27
ATOM     27  C   UNL     1       2.154   4.160  -0.450  0.00  0.00    +0.339 C 
ATOM     28  O   UNL     1       1.967   5.359  -0.533  0.00  0.00    -0.245 OA
BRANCH  27  29
ATOM     29  O   UNL     1       3.400   3.660  -0.583  0.00  0.00    -0.462 OA
BRANCH  29  31
ATOM     30  C   UNL     1       5.782   3.849  -0.942  0.00  0.00    +0.048 C 
ATOM     31  C   UNL     1       4.453   4.597  -0.820  0.00  0.00    +0.229 C 
ENDBRANCH  29  31
ENDBRANCH  27  29
ENDBRANCH   1  27
TORSDOF 6
