REMARK  Name = ZINC40547753
REMARK  11 active torsions:
REMARK  status: ('A' for Active; 'I' for Inactive)
REMARK    1  A    between atoms: C_1  and  C_2
REMARK    2  A    between atoms: C_2  and  C_3
REMARK    3  A    between atoms: C_3  and  C_4
REMARK    4  A    between atoms: C_4  and  C_5
REMARK    5  A    between atoms: C_5  and  C_6
REMARK    6  A    between atoms: C_6  and  O_7
REMARK    7  A    between atoms: O_7  and  C_8
REMARK    8  A    between atoms: C_11  and  C_14
REMARK    9  A    between atoms: C_17  and  C_33
REMARK   10  A    between atoms: N_24  and  C_25
REMARK   11  A    between atoms: C_38  and  O_39
REMARK                            x       y       z     vdW  Elec       q    Type
REMARK                         _______ _______ _______ _____ _____    ______ ____
ROOT
ATOM      1  C   UNL     1       2.670 -10.091   4.248  0.00  0.00    +0.142 C 
ATOM      2  C   UNL     1       1.754 -10.592   5.332  0.00  0.00    +0.035 A 
ATOM      3  C   UNL     1       0.443 -10.726   5.799  0.00  0.00    +0.102 A 
ATOM      4  N   UNL     1       0.498 -11.354   6.957  0.00  0.00    -0.173 NA
ATOM      5  N   UNL     1       1.715 -11.629   7.267  0.00  0.00    -0.272 N 
ATOM      6  H   UNL     1       1.994 -12.089   8.075  0.00  0.00    +0.189 HD
ATOM      7  C   UNL     1       2.558 -11.179   6.291  0.00  0.00    +0.126 A 
ATOM      8  C   UNL     1       3.955 -11.072   5.858  0.00  0.00    +0.266 C 
ATOM      9  O   UNL     1       4.910 -11.493   6.484  0.00  0.00    -0.268 OA
ATOM     10  N   UNL     1       4.032 -10.441   4.671  0.00  0.00    -0.280 N 
ENDROOT
BRANCH  10  11
ATOM     11  C   UNL     1       5.262 -10.153   3.929  0.00  0.00    +0.100 C 
ATOM     12  C   UNL     1       6.185  -9.276   4.791  0.00  0.00    +0.047 C 
ATOM     13  C   UNL     1       7.589  -9.247   4.122  0.00  0.00    +0.168 C 
ATOM     14  S   UNL     1       7.750 -11.007   3.600  0.00  0.00    -0.029 S 
ATOM     15  O   UNL     1       8.410 -11.734   4.627  0.00  0.00    -0.174 OA
ATOM     16  O   UNL     1       8.258 -11.051   2.274  0.00  0.00    -0.174 OA
ATOM     17  C   UNL     1       5.974 -11.481   3.578  0.00  0.00    +0.188 C 
ENDBRANCH  10  11
BRANCH   1  21
ATOM     18  C   UNL     1       2.295  -5.853   3.850  0.00  0.00    +0.121 A 
ATOM     19  C   UNL     1       1.834  -6.689   2.843  0.00  0.00    +0.046 A 
ATOM     20  C   UNL     1       1.957  -8.059   2.974  0.00  0.00    +0.009 A 
ATOM     21  C   UNL     1       2.538  -8.597   4.108  0.00  0.00    -0.022 A 
ATOM     22  C   UNL     1       2.998  -7.766   5.113  0.00  0.00    +0.009 A 
ATOM     23  C   UNL     1       2.883  -6.395   4.984  0.00  0.00    +0.046 A 
BRANCH  18  24
ATOM     24  O   UNL     1       2.176  -4.505   3.723  0.00  0.00    -0.492 OA
BRANCH  24  25
ATOM     25  C   UNL     1       1.561  -4.018   2.529  0.00  0.00    +0.229 C 
BRANCH  25  26
ATOM     26  C   UNL     1       1.516  -2.489   2.566  0.00  0.00    +0.041 C 
BRANCH  26  27
ATOM     27  C   UNL     1       0.857  -1.967   1.287  0.00  0.00    +0.003 C 
BRANCH  27  28
ATOM     28  C   UNL     1       0.812  -0.438   1.324  0.00  0.00    -0.000 C 
BRANCH  28  30
ATOM     29  C   UNL     1       0.108   1.613   0.083  0.00  0.00    +0.004 C 
ATOM     30  C   UNL     1       0.153   0.084   0.046  0.00  0.00    -0.003 C 
ENDBRANCH  28  30
ENDBRANCH  27  28
ENDBRANCH  26  27
ENDBRANCH  25  26
ENDBRANCH  24  25
ENDBRANCH  18  24
ENDBRANCH   1  21
BRANCH   3  31
ATOM     31  C   UNL     1      -0.786 -10.249   5.116  0.00  0.00    +0.044 A 
ATOM     32  C   UNL     1      -0.710  -9.716   3.832  0.00  0.00    +0.014 A 
ATOM     33  C   UNL     1      -1.856  -9.274   3.202  0.00  0.00    +0.001 A 
ATOM     34  C   UNL     1      -3.080  -9.358   3.841  0.00  0.00    +0.004 A 
ATOM     35  C   UNL     1      -3.166  -9.886   5.115  0.00  0.00    +0.046 A 
ATOM     36  C   UNL     1      -2.025 -10.339   5.757  0.00  0.00    +0.126 A 
BRANCH  36  37
ATOM     37  O   UNL     1      -2.109 -10.864   7.008  0.00  0.00    -0.506 OA
ATOM     38  H   UNL     1      -2.013 -10.212   7.715  0.00  0.00    +0.292 HD
ENDBRANCH  36  37
ENDBRANCH   3  31
TORSDOF 10
