REMARK  Name = ZINC51267628
REMARK  7 active torsions:
REMARK  status: ('A' for Active; 'I' for Inactive)
REMARK    1  A    between atoms: C_1  and  C_2
REMARK    2  A    between atoms: C_2  and  C_3
REMARK    3  A    between atoms: C_2  and  C_4
REMARK    4  A    between atoms: C_2  and  N_21
REMARK    5  A    between atoms: C_4  and  N_5
REMARK    6  A    between atoms: C_12  and  C_15
REMARK    7  A    between atoms: N_17  and  C_18
REMARK                            x       y       z     vdW  Elec       q    Type
REMARK                         _______ _______ _______ _____ _____    ______ ____
ROOT
ATOM      1  N   UNL     1      -1.892  -1.550   0.267  0.00  0.00    -0.301 N 
ATOM      2  C   UNL     1      -3.187  -1.907   0.375  0.00  0.00    +0.302 C 
ATOM      3  O   UNL     1      -4.062  -1.073   0.244  0.00  0.00    -0.253 OA
ATOM      4  N   UNL     1      -3.513  -3.190   0.628  0.00  0.00    -0.285 N 
ATOM      5  C   UNL     1      -2.476  -4.229   0.684  0.00  0.00    +0.109 C 
ATOM      6  C   UNL     1      -2.599  -4.977   2.015  0.00  0.00    +0.020 C 
ATOM      7  C   UNL     1      -4.027  -5.506   2.169  0.00  0.00    +0.016 C 
ATOM      8  C   UNL     1      -5.009  -4.332   2.182  0.00  0.00    +0.092 C 
ATOM      9  C   UNL     1      -4.912  -3.576   0.858  0.00  0.00    +0.122 C 
ATOM     10  H   UNL     1      -1.198  -2.226   0.297  0.00  0.00    +0.150 HD
ENDROOT
BRANCH   8  11
ATOM     11  C   UNL     1      -6.411  -4.852   2.366  0.00  0.00    +0.218 C 
ATOM     12  O   UNL     1      -6.607  -6.044   2.476  0.00  0.00    -0.275 OA
ATOM     13  N   UNL     1      -7.448  -3.992   2.408  0.00  0.00    -0.312 N 
ATOM     14  H   UNL     1      -7.292  -3.039   2.320  0.00  0.00    +0.149 HD
BRANCH  13  15
ATOM     15  C   UNL     1      -8.812  -4.497   2.587  0.00  0.00    +0.073 C 
ATOM     16  C   UNL     1      -9.910  -3.892   1.711  0.00  0.00    +0.024 C 
ATOM     17  C   UNL     1      -9.842  -3.547   3.200  0.00  0.00    +0.024 C 
ENDBRANCH  13  15
ENDBRANCH   8  11
BRANCH   1  18
ATOM     18  C   UNL     1      -1.533  -0.139   0.105  0.00  0.00    +0.093 C 
BRANCH  18  20
ATOM     19  C   UNL     1       0.363   1.466  -0.162  0.00  0.00    -0.008 C 
ATOM     20  C   UNL     1      -0.012  -0.007   0.008  0.00  0.00    -0.055 C 
ATOM     21  C   UNL     1       0.629  -0.553   1.285  0.00  0.00    -0.008 C 
BRANCH  20  22
ATOM     22  N   UNL     1       0.472  -0.772  -1.149  0.00  0.00    +0.387 N 
ATOM     23  C   UNL     1       1.910  -0.523  -1.337  0.00  0.00    -0.073 C 
ATOM     24  C   UNL     1       2.456  -1.546  -2.334  0.00  0.00    +0.017 C 
ATOM     25  C   UNL     1       1.596  -1.561  -3.571  0.00  0.00    -0.048 A 
ATOM     26  C   UNL     1       2.098  -2.150  -4.722  0.00  0.00    +0.004 A 
ATOM     27  C   UNL     1       1.338  -2.186  -5.874  0.00  0.00    +0.000 A 
ATOM     28  C   UNL     1       0.071  -1.633  -5.880  0.00  0.00    +0.000 A 
ATOM     29  C   UNL     1      -0.429  -1.045  -4.735  0.00  0.00    +0.002 A 
ATOM     30  C   UNL     1       0.334  -1.006  -3.577  0.00  0.00    -0.061 A 
ATOM     31  C   UNL     1      -0.247  -0.348  -2.354  0.00  0.00    -0.042 C 
ATOM     32  H   UNL     1       0.317  -1.757  -0.992  0.00  0.00    -0.080 HD
ENDBRANCH  20  22
ENDBRANCH  18  20
ENDBRANCH   1  18
TORSDOF 5
