REMARK  Name = ZINC09158549
REMARK  13 active torsions:
REMARK  status: ('A' for Active; 'I' for Inactive)
REMARK    1  A    between atoms: C_1  and  C_2
REMARK    2  A    between atoms: C_2  and  O_3
REMARK    3  A    between atoms: O_3  and  C_4
REMARK    4  A    between atoms: C_4  and  C_6
REMARK    5  A    between atoms: C_7  and  C_32
REMARK    6  A    between atoms: C_8  and  C_13
REMARK    7  A    between atoms: C_11  and  C_12
REMARK    8  A    between atoms: C_13  and  O_15
REMARK    9  A    between atoms: O_15  and  C_16
REMARK   10  A    between atoms: C_16  and  C_18
REMARK   11  A    between atoms: C_16  and  C_19
REMARK   12  A    between atoms: N_21  and  C_22
REMARK   13  A    between atoms: C_24  and  N_29
REMARK                            x       y       z     vdW  Elec       q    Type
REMARK                         _______ _______ _______ _____ _____    ______ ____
ROOT
ATOM      1  O   UNL     1       2.775  -0.004  -0.044  0.00  0.00    -0.448 OA
ENDROOT
BRANCH   1   2
ATOM      2  C   UNL     1       2.492   1.315  -0.045  0.00  0.00    +0.357 C 
ATOM      3  O   UNL     1       3.394   2.130  -0.055  0.00  0.00    -0.243 OA
BRANCH   2   6
ATOM      4  C   UNL     1      -0.737   3.040  -0.024  0.00  0.00    +0.083 A 
ATOM      5  C   UNL     1       0.676   3.063  -0.035  0.00  0.00    -0.005 A 
ATOM      6  C   UNL     1       1.097   1.765  -0.035  0.00  0.00    +0.128 A 
ATOM      7  N   UNL     1      -0.015   0.950  -0.024  0.00  0.00    -0.352 N 
ATOM      8  H   UNL     1      -0.000  -0.019  -0.022  0.00  0.00    +0.166 HD
ATOM      9  C   UNL     1      -1.121   1.711  -0.022  0.00  0.00    +0.028 A 
ATOM     10  C   UNL     1      -2.540   1.203  -0.017  0.00  0.00    +0.064 C 
ATOM     11  C   UNL     1       1.552   4.289  -0.046  0.00  0.00    +0.047 C 
BRANCH   4  12
ATOM     12  C   UNL     1      -1.631   4.209  -0.021  0.00  0.00    +0.341 C 
ATOM     13  O   UNL     1      -2.009   4.688  -1.072  0.00  0.00    -0.245 OA
BRANCH  12  14
ATOM     14  O   UNL     1      -2.032   4.748   1.147  0.00  0.00    -0.461 OA
BRANCH  14  16
ATOM     15  C   UNL     1      -3.257   6.369   2.489  0.00  0.00    +0.048 C 
ATOM     16  C   UNL     1      -2.913   5.900   1.074  0.00  0.00    +0.229 C 
ENDBRANCH  14  16
ENDBRANCH  12  14
ENDBRANCH   4  12
ENDBRANCH   2   6
ENDBRANCH   1   2
BRANCH   1  17
ATOM     17  C   UNL     1       4.178  -0.377  -0.054  0.00  0.00    +0.259 C 
ATOM     18  C   UNL     1       4.659  -0.513  -1.500  0.00  0.00    +0.062 C 
BRANCH  17  19
ATOM     19  C   UNL     1       4.353  -1.693   0.659  0.00  0.00    +0.258 C 
ATOM     20  O   UNL     1       3.381  -2.305   1.050  0.00  0.00    -0.271 OA
ATOM     21  N   UNL     1       5.589  -2.191   0.862  0.00  0.00    -0.281 N 
ATOM     22  H   UNL     1       6.362  -1.735   0.493  0.00  0.00    +0.155 HD
BRANCH  21  23
ATOM     23  C   UNL     1       5.758  -3.365   1.605  0.00  0.00    +0.054 A 
ATOM     24  C   UNL     1       4.809  -4.376   1.533  0.00  0.00    +0.057 A 
ATOM     25  C   UNL     1       4.979  -5.534   2.268  0.00  0.00    +0.128 A 
ATOM     26  C   UNL     1       6.092  -5.687   3.074  0.00  0.00    +0.034 A 
ATOM     27  C   UNL     1       7.038  -4.682   3.149  0.00  0.00    +0.024 A 
ATOM     28  C   UNL     1       6.878  -3.523   2.412  0.00  0.00    +0.062 A 
ATOM     29 CL   UNL     1       8.070  -2.264   2.501  0.00  0.00    -0.082 Cl
BRANCH  25  30
ATOM     30  N   UNL     1       3.967  -6.612   2.191  0.00  0.00    +0.056 N 
ATOM     31  O   UNL     1       2.987  -6.478   1.481  0.00  0.00    -0.126 OA
ATOM     32  O   UNL     1       4.116  -7.633   2.838  0.00  0.00    -0.126 OA
ENDBRANCH  25  30
ENDBRANCH  21  23
ENDBRANCH  17  19
ENDBRANCH   1  17
TORSDOF 9
