REMARK  Name = ZINC16779020
REMARK  10 active torsions:
REMARK  status: ('A' for Active; 'I' for Inactive)
REMARK    1  A    between atoms: C_1  and  C_2
REMARK    2  A    between atoms: C_2  and  O_3
REMARK    3  A    between atoms: O_3  and  C_4
REMARK    4  A    between atoms: C_4  and  C_6
REMARK    5  A    between atoms: C_9  and  N_12
REMARK    6  A    between atoms: C_13  and  C_15
REMARK    7  A    between atoms: C_15  and  C_16
REMARK    8  A    between atoms: N_22  and  N_23
REMARK    9  A    between atoms: C_26  and  C_27
REMARK   10  A    between atoms: C_26  and  C_28
REMARK                            x       y       z     vdW  Elec       q    Type
REMARK                         _______ _______ _______ _____ _____    ______ ____
ROOT
ATOM      1  C   UNL     1       0.478   4.017   7.674  0.00  0.00    +0.149 C 
ATOM      2  C   UNL     1      -1.025   4.227   7.593  0.00  0.00    +0.233 C 
ATOM      3  O   UNL     1      -1.687   4.525   8.565  0.00  0.00    -0.274 OA
ATOM      4  N   UNL     1      -1.565   4.070   6.397  0.00  0.00    -0.263 N 
ATOM      5  C   UNL     1      -0.817   3.725   5.289  0.00  0.00    +0.183 C 
ATOM      6  N   UNL     1      -1.232   3.536   4.056  0.00  0.00    -0.125 NA
ATOM      7  S   UNL     1       0.849   3.604   5.923  0.00  0.00    -0.075 S 
ATOM      8  H   UNL     1      -2.647   4.214   6.259  0.00  0.00    +0.157 HD
ENDROOT
BRANCH   6   9
ATOM      9  N   UNL     1      -2.590   3.677   3.744  0.00  0.00    -0.131 NA
ATOM     10  C   UNL     1      -2.990   3.593   2.497  0.00  0.00    +0.162 C 
ATOM     11  C   UNL     1      -2.207   2.874   1.467  0.00  0.00    +0.058 C 
ATOM     12  C   UNL     1      -1.040   2.224   1.586  0.00  0.00    -0.058 C 
ATOM     13  C   UNL     1      -0.205   1.945   0.362  0.00  0.00    +0.040 C 
ATOM     14  C   UNL     1      -0.564   1.771   2.942  0.00  0.00    +0.040 C 
ATOM     15  S   UNL     1      -3.238   3.099   0.026  0.00  0.00    -0.028 S 
ATOM     16  C   UNL     1      -4.540   4.057   0.781  0.00  0.00    +0.282 C 
ATOM     17  O   UNL     1      -5.542   4.505   0.257  0.00  0.00    -0.262 OA
ATOM     18  N   UNL     1      -4.154   4.168   2.066  0.00  0.00    -0.259 N 
ATOM     19  H   UNL     1      -4.785   4.728   2.772  0.00  0.00    +0.157 HD
ENDBRANCH   6   9
BRANCH   1  20
ATOM     20  C   UNL     1       0.826   2.853   8.604  0.00  0.00    +0.120 C 
BRANCH  20  22
ATOM     21  N   UNL     1       2.857   1.660   9.358  0.00  0.00    -0.285 N 
ATOM     22  C   UNL     1       2.318   2.639   8.606  0.00  0.00    +0.219 C 
ATOM     23  O   UNL     1       3.032   3.349   7.930  0.00  0.00    -0.275 OA
ATOM     24  H   UNL     1       2.205   0.968   9.910  0.00  0.00    +0.155 HD
BRANCH  21  28
ATOM     25  C   UNL     1       6.997   1.257   9.595  0.00  0.00    +0.059 A 
ATOM     26  C   UNL     1       6.199   0.957  10.703  0.00  0.00    +0.017 A 
ATOM     27  C   UNL     1       4.832   1.092  10.621  0.00  0.00    +0.024 A 
ATOM     28  C   UNL     1       4.243   1.526   9.437  0.00  0.00    +0.033 A 
ATOM     29  C   UNL     1       5.033   1.819   8.330  0.00  0.00    +0.024 A 
ATOM     30  C   UNL     1       6.402   1.693   8.407  0.00  0.00    +0.017 A 
BRANCH  25  31
ATOM     31  C   UNL     1       8.462   1.115   9.678  0.00  0.00    +0.339 C 
ATOM     32  O   UNL     1       8.977   0.736  10.711  0.00  0.00    -0.245 OA
BRANCH  31  33
ATOM     33  O   UNL     1       9.229   1.404   8.609  0.00  0.00    -0.461 OA
BRANCH  33  35
ATOM     34  C   UNL     1      11.363   1.613   7.455  0.00  0.00    +0.048 C 
ATOM     35  C   UNL     1      10.664   1.240   8.764  0.00  0.00    +0.229 C 
ENDBRANCH  33  35
ENDBRANCH  31  33
ENDBRANCH  25  31
ENDBRANCH  21  28
ENDBRANCH  20  22
ENDBRANCH   1  20
TORSDOF 7
