REMARK  Name = ZINC06659507
REMARK  2 active torsions:
REMARK  status: ('A' for Active; 'I' for Inactive)
REMARK    1  A    between atoms: C_4  and  N_7
REMARK    2  A    between atoms: C_11  and  C_16
REMARK                            x       y       z     vdW  Elec       q    Type
REMARK                         _______ _______ _______ _____ _____    ______ ____
ROOT
ATOM      1  N   UNL     1       2.354   3.888   0.001  0.00  0.00    -0.292 N 
ATOM      2  C   UNL     1       2.334   5.271  -0.096  0.00  0.00    +0.186 A 
ATOM      3  N   UNL     1       3.337   6.101  -0.202  0.00  0.00    -0.140 NA
ATOM      4  N   UNL     1       3.131   7.471  -0.294  0.00  0.00    -0.184 N 
ATOM      5  C   UNL     1       3.860   8.646  -0.415  0.00  0.00    +0.192 A 
ATOM      6  N   UNL     1       3.005   9.646  -0.442  0.00  0.00    -0.126 NA
ATOM      7  N   UNL     1       1.802   9.196  -0.347  0.00  0.00    -0.120 NA
ATOM      8  C   UNL     1       1.828   7.899  -0.256  0.00  0.00    +0.220 A 
ATOM      9  S   UNL     1       0.930   6.375  -0.101  0.00  0.00    -0.011 S 
ATOM     10  H   UNL     1       3.200   3.420   0.084  0.00  0.00    +0.154 HD
ENDROOT
BRANCH   1  14
ATOM     11  C   UNL     1      -1.217   1.747  -0.059  0.00  0.00    +0.000 A 
ATOM     12  C   UNL     1      -1.097   2.909  -0.799  0.00  0.00    +0.002 A 
ATOM     13  C   UNL     1       0.085   3.623  -0.780  0.00  0.00    +0.023 A 
ATOM     14  C   UNL     1       1.156   3.169  -0.021  0.00  0.00    +0.033 A 
ATOM     15  C   UNL     1       1.034   1.998   0.717  0.00  0.00    +0.023 A 
ATOM     16  C   UNL     1      -0.151   1.289   0.693  0.00  0.00    +0.002 A 
ENDBRANCH   1  14
BRANCH   5  17
ATOM     17  C   UNL     1       5.325   8.755  -0.499  0.00  0.00    +0.058 A 
ATOM     18  C   UNL     1       6.092   9.822  -0.892  0.00  0.00    +0.019 A 
ATOM     19  C   UNL     1       7.463   9.687  -0.889  0.00  0.00    +0.008 A 
ATOM     20  C   UNL     1       8.011   8.508  -0.499  0.00  0.00    +0.046 A 
ATOM     21  S   UNL     1       6.568   7.533  -0.110  0.00  0.00    -0.093 S 
ENDBRANCH   5  17
TORSDOF 2
