REMARK  Name = ZINC04695560
REMARK  7 active torsions:
REMARK  status: ('A' for Active; 'I' for Inactive)
REMARK    1  A    between atoms: C_1  and  C_2
REMARK    2  A    between atoms: C_2  and  C_3
REMARK    3  A    between atoms: C_2  and  C_4
REMARK    4  A    between atoms: C_7  and  C_10
REMARK    5  A    between atoms: C_11  and  C_12
REMARK    6  A    between atoms: N_14  and  C_15
REMARK    7  A    between atoms: C_20  and  N_21
REMARK                            x       y       z     vdW  Elec       q    Type
REMARK                         _______ _______ _______ _____ _____    ______ ____
ROOT
ATOM      1  C   UNL     1      -1.296   1.384   0.056  0.00  0.00    +0.241 C 
ATOM      2  O   UNL     1      -1.490   2.583  -0.020  0.00  0.00    -0.270 OA
ATOM      3  N   UNL     1      -0.038   0.901   0.021  0.00  0.00    -0.280 N 
ATOM      4  H   UNL     1       0.114  -0.057   0.016  0.00  0.00    +0.155 HD
ENDROOT
BRANCH   3   5
ATOM      5  C   UNL     1       1.047   1.782  -0.014  0.00  0.00    +0.064 A 
ATOM      6  C   UNL     1       0.951   2.978  -0.713  0.00  0.00    +0.025 A 
ATOM      7  C   UNL     1       2.023   3.848  -0.743  0.00  0.00    +0.002 A 
ATOM      8  C   UNL     1       3.196   3.523  -0.085  0.00  0.00    +0.002 A 
ATOM      9  C   UNL     1       3.297   2.331   0.607  0.00  0.00    +0.034 A 
ATOM     10  C   UNL     1       2.227   1.459   0.644  0.00  0.00    +0.147 A 
BRANCH  10  11
ATOM     11  N   UNL     1       2.336   0.182   1.385  0.00  0.00    +0.058 N 
ATOM     12  O   UNL     1       3.336  -0.060   2.036  0.00  0.00    -0.126 OA
ATOM     13  O   UNL     1       1.425  -0.626   1.344  0.00  0.00    -0.126 OA
ENDBRANCH  10  11
ENDBRANCH   3   5
BRANCH   1  15
ATOM     14  C   UNL     1      -3.688   0.948   0.220  0.00  0.00    +0.013 C 
ATOM     15  C   UNL     1      -2.429   0.466   0.185  0.00  0.00    +0.068 C 
BRANCH  14  19
ATOM     16  C   UNL     1      -6.970  -1.712   0.594  0.00  0.00    -0.045 A 
ATOM     17  C   UNL     1      -7.195  -0.349   0.508  0.00  0.00    +0.004 A 
ATOM     18  C   UNL     1      -6.133   0.522   0.386  0.00  0.00    +0.008 A 
ATOM     19  C   UNL     1      -4.827   0.025   0.350  0.00  0.00    -0.025 A 
ATOM     20  C   UNL     1      -4.608  -1.354   0.431  0.00  0.00    +0.008 A 
ATOM     21  C   UNL     1      -5.680  -2.212   0.558  0.00  0.00    +0.004 A 
BRANCH  16  23
ATOM     22  C   UNL     1      -8.145  -3.627  -0.457  0.00  0.00    +0.012 C 
ATOM     23  C   UNL     1      -8.136  -2.658   0.727  0.00  0.00    +0.013 C 
ATOM     24  C   UNL     1      -8.007  -3.447   2.031  0.00  0.00    +0.012 C 
ENDBRANCH  16  23
ENDBRANCH  14  19
ENDBRANCH   1  15
TORSDOF 5
