REMARK  Name = ZINC09796018
REMARK  11 active torsions:
REMARK  status: ('A' for Active; 'I' for Inactive)
REMARK    1  A    between atoms: C_1  and  C_2
REMARK    2  A    between atoms: C_5  and  C_8
REMARK    3  A    between atoms: C_11  and  C_14
REMARK    4  A    between atoms: C_19  and  C_21
REMARK    5  A    between atoms: C_21  and  N_66
REMARK    6  A    between atoms: C_22  and  C_23
REMARK    7  A    between atoms: C_22  and  N_66
REMARK    8  A    between atoms: C_23  and  O_24
REMARK    9  A    between atoms: O_24  and  C_25
REMARK   10  A    between atoms: C_26  and  C_27
REMARK   11  A    between atoms: C_26  and  N_66
REMARK                            x       y       z     vdW  Elec       q    Type
REMARK                         _______ _______ _______ _____ _____    ______ ____
ROOT
ATOM      1  C   UNL     1       0.762   7.096   0.041  0.00  0.00    +0.021 C 
ENDROOT
BRANCH   1   7
ATOM      2  C   UNL     1      -0.539  10.953   1.065  0.00  0.00    +0.069 C 
ATOM      3  N   UNL     1      -0.028   9.796   0.821  0.00  0.00    -0.181 NA
ATOM      4  N   UNL     1      -0.953   8.843   0.399  0.00  0.00    -0.184 N 
ATOM      5  C   UNL     1      -2.289   9.458   0.366  0.00  0.00    +0.172 C 
ATOM      6  C   UNL     1      -2.030  10.908   0.820  0.00  0.00    +0.090 C 
ATOM      7  C   UNL     1      -0.670   7.564   0.079  0.00  0.00    +0.219 C 
ATOM      8  O   UNL     1      -1.568   6.791  -0.179  0.00  0.00    -0.276 OA
BRANCH   2  13
ATOM      9  C   UNL     1       2.396  15.569   2.839  0.00  0.00    +0.044 C 
ATOM     10  C   UNL     1       1.627  14.360   2.374  0.00  0.00    -0.050 A 
ATOM     11  C   UNL     1       2.293  13.169   2.139  0.00  0.00    +0.004 A 
ATOM     12  C   UNL     1       1.595  12.058   1.714  0.00  0.00    +0.010 A 
ATOM     13  C   UNL     1       0.214  12.136   1.520  0.00  0.00    -0.002 A 
ATOM     14  C   UNL     1      -0.450  13.343   1.754  0.00  0.00    +0.010 A 
ATOM     15  C   UNL     1       0.259  14.444   2.185  0.00  0.00    +0.004 A 
ENDBRANCH   2  13
BRANCH   5  16
ATOM     16  C   UNL     1      -2.852   9.429  -1.032  0.00  0.00    +0.128 A 
ATOM     17  C   UNL     1      -4.144   9.241  -1.356  0.00  0.00    +0.046 A 
ATOM     18  C   UNL     1      -4.223   9.287  -2.767  0.00  0.00    +0.041 A 
ATOM     19  C   UNL     1      -2.975   9.500  -3.221  0.00  0.00    +0.195 A 
ATOM     20  O   UNL     1      -2.149   9.591  -2.165  0.00  0.00    -0.466 OA
ENDBRANCH   5  16
ENDBRANCH   1   7
BRANCH   1  21
ATOM     21  N   UNL     1       0.791   5.697  -0.435  0.00  0.00    +0.392 N 
ATOM     22  H   UNL     1       0.183   5.611  -1.257  0.00  0.00    -0.080 HD
BRANCH  21  23
ATOM     23  C   UNL     1       2.169   5.322  -0.816  0.00  0.00    -0.049 C 
BRANCH  23  24
ATOM     24  C   UNL     1       2.493   5.955  -2.171  0.00  0.00    +0.141 C 
BRANCH  24  25
ATOM     25  O   UNL     1       2.720   7.355  -2.001  0.00  0.00    -0.385 OA
ATOM     26  C   UNL     1       2.924   8.064  -3.224  0.00  0.00    +0.193 C 
ENDBRANCH  24  25
ENDBRANCH  23  24
ENDBRANCH  21  23
BRANCH  21  27
ATOM     27  C   UNL     1       0.297   4.793   0.625  0.00  0.00    -0.002 C 
BRANCH  27  28
ATOM     28  C   UNL     1       0.129   3.412   0.046  0.00  0.00    +0.094 A 
ATOM     29  N   UNL     1      -0.338   2.426   0.856  0.00  0.00    -0.312 N 
ATOM     30  H   UNL     1      -0.552   2.625   1.781  0.00  0.00    +0.170 HD
ATOM     31  C   UNL     1      -0.507   1.168   0.384  0.00  0.00    +0.259 A 
ATOM     32  O   UNL     1      -0.925   0.276   1.098  0.00  0.00    -0.267 OA
ATOM     33  C   UNL     1      -0.167   0.923  -1.025  0.00  0.00    +0.065 A 
ATOM     34  C   UNL     1      -0.305  -0.335  -1.609  0.00  0.00    +0.015 A 
ATOM     35  C   UNL     1       0.029  -0.509  -2.934  0.00  0.00    +0.001 A 
ATOM     36  C   UNL     1       0.499   0.557  -3.690  0.00  0.00    +0.002 A 
ATOM     37  C   UNL     1       0.643   1.808  -3.132  0.00  0.00    +0.028 A 
ATOM     38  C   UNL     1       0.312   2.009  -1.791  0.00  0.00    +0.078 A 
ATOM     39  N   UNL     1       0.437   3.225  -1.202  0.00  0.00    -0.236 NA
ENDBRANCH  27  28
ENDBRANCH  21  27
ENDBRANCH   1  21
TORSDOF 9
