REMARK  Name = ZINC46018333
REMARK  5 active torsions:
REMARK  status: ('A' for Active; 'I' for Inactive)
REMARK    1  A    between atoms: C_1  and  C_2
REMARK    2  A    between atoms: C_5  and  C_8
REMARK    3  A    between atoms: N_16  and  C_17
REMARK    4  A    between atoms: C_20  and  C_26
REMARK    5  A    between atoms: C_22  and  N_23
REMARK                            x       y       z     vdW  Elec       q    Type
REMARK                         _______ _______ _______ _____ _____    ______ ____
ROOT
ATOM      1  C   UNL     1       0.061  -4.284  -0.025  0.00  0.00    +0.108 C 
ATOM      2  C   UNL     1      -1.354  -4.846   0.229  0.00  0.00    +0.029 C 
ATOM      3  C   UNL     1      -1.081  -6.087   1.119  0.00  0.00    +0.021 C 
ATOM      4  C   UNL     1       0.116  -5.599   1.973  0.00  0.00    +0.110 C 
ATOM      5  N   UNL     1       0.931  -4.781   1.051  0.00  0.00    -0.278 N 
ATOM      6  C   UNL     1       2.249  -4.532   1.174  0.00  0.00    +0.307 C 
ATOM      7  O   UNL     1       2.817  -3.841   0.349  0.00  0.00    -0.252 OA
ATOM      8  N   UNL     1       2.939  -5.048   2.210  0.00  0.00    -0.267 N 
ATOM      9  H   UNL     1       2.473  -5.529   2.911  0.00  0.00    +0.156 HD
ENDROOT
BRANCH   1  14
ATOM     10  C   UNL     1      -0.075   1.492   0.065  0.00  0.00    +0.044 C 
ATOM     11  C   UNL     1      -0.039  -0.014   0.042  0.00  0.00    -0.050 A 
ATOM     12  C   UNL     1      -0.024  -0.686  -1.166  0.00  0.00    +0.004 A 
ATOM     13  C   UNL     1       0.008  -2.068  -1.188  0.00  0.00    +0.006 A 
ATOM     14  C   UNL     1       0.026  -2.778  -0.002  0.00  0.00    -0.027 A 
ATOM     15  C   UNL     1       0.012  -2.106   1.206  0.00  0.00    +0.006 A 
ATOM     16  C   UNL     1      -0.016  -0.724   1.228  0.00  0.00    +0.004 A 
ENDBRANCH   1  14
BRANCH   8  17
ATOM     17  C   UNL     1       4.328  -4.888   2.275  0.00  0.00    +0.065 A 
ATOM     18  C   UNL     1       5.061  -4.695   1.111  0.00  0.00    +0.026 A 
ATOM     19  C   UNL     1       6.432  -4.538   1.179  0.00  0.00    +0.005 A 
ATOM     20  C   UNL     1       7.074  -4.572   2.403  0.00  0.00    -0.048 A 
ATOM     21  C   UNL     1       6.347  -4.764   3.563  0.00  0.00    +0.038 A 
ATOM     22  C   UNL     1       4.975  -4.916   3.503  0.00  0.00    +0.148 A 
ATOM     23  C   UNL     1       8.569  -4.399   2.473  0.00  0.00    +0.044 C 
BRANCH  22  24
ATOM     24  N   UNL     1       4.197  -5.115   4.746  0.00  0.00    +0.058 N 
ATOM     25  O   UNL     1       4.747  -5.051   5.821  0.00  0.00    -0.126 OA
ATOM     26  O   UNL     1       3.010  -5.342   4.687  0.00  0.00    -0.126 OA
ENDBRANCH  22  24
ENDBRANCH   8  17
TORSDOF 3
