REMARK  Name = ZINC64066717
REMARK  6 active torsions:
REMARK  status: ('A' for Active; 'I' for Inactive)
REMARK    1  A    between atoms: C_1  and  N_2
REMARK    2  A    between atoms: N_2  and  C_3
REMARK    3  A    between atoms: C_3  and  C_4
REMARK    4  A    between atoms: C_13  and  C_15
REMARK    5  A    between atoms: N_21  and  C_23
REMARK    6  A    between atoms: C_23  and  C_24
REMARK                            x       y       z     vdW  Elec       q    Type
REMARK                         _______ _______ _______ _____ _____    ______ ____
ROOT
ATOM      1  C   UNL     1      -0.018   1.461   0.010  0.00  0.00    +0.132 C 
ATOM      2  N   UNL     1       0.002  -0.004   0.002  0.00  0.00    -0.301 N 
ATOM      3  C   UNL     1       0.000  -0.672  -1.169  0.00  0.00    +0.220 C 
ATOM      4  O   UNL     1       0.017  -1.884  -1.175  0.00  0.00    -0.275 OA
ENDROOT
BRANCH   3   5
ATOM      5  C   UNL     1      -0.023   0.089  -2.470  0.00  0.00    +0.093 C 
ATOM      6  C   UNL     1       1.220   0.983  -2.565  0.00  0.00    +0.023 C 
ATOM      7  C   UNL     1       1.081   1.874  -3.801  0.00  0.00    +0.097 C 
ATOM      8  C   UNL     1       0.701   1.041  -4.992  0.00  0.00    +0.216 C 
ATOM      9  O   UNL     1       0.863   1.513  -6.097  0.00  0.00    -0.276 OA
ATOM     10  N   UNL     1       0.196  -0.189  -4.898  0.00  0.00    -0.300 N 
ATOM     11  C   UNL     1      -0.012  -0.896  -3.640  0.00  0.00    +0.120 C 
BRANCH  10  12
ATOM     12  C   UNL     1      -0.177  -0.874  -6.138  0.00  0.00    +0.111 C 
BRANCH  12  13
ATOM     13  C   UNL     1       1.022  -1.665  -6.665  0.00  0.00    +0.006 C 
ATOM     14  C   UNL     1       2.139  -0.697  -7.058  0.00  0.00    +0.005 C 
ATOM     15  C   UNL     1       3.338  -1.488  -7.585  0.00  0.00    +0.000 C 
ATOM     16  C   UNL     1       2.914  -2.301  -8.809  0.00  0.00    +0.000 C 
ATOM     17  C   UNL     1       1.797  -3.270  -8.416  0.00  0.00    +0.000 C 
ATOM     18  C   UNL     1       0.598  -2.479  -7.889  0.00  0.00    +0.005 C 
ENDBRANCH  12  13
ENDBRANCH  10  12
ENDBRANCH   3   5
BRANCH   2  19
ATOM     19  C   UNL     1       0.024  -0.743   1.267  0.00  0.00    +0.154 C 
BRANCH  19  20
ATOM     20  C   UNL     1      -1.411  -1.020   1.720  0.00  0.00    +0.192 C 
ATOM     21  N   UNL     1      -2.136  -1.755   0.677  0.00  0.00    -0.362 N 
ATOM     22  C   UNL     1      -3.145  -1.018   0.310  0.00  0.00    +0.060 A 
ATOM     23  C   UNL     1      -4.215  -1.210  -0.679  0.00  0.00    +0.027 A 
ATOM     24  C   UNL     1      -5.146  -0.250  -0.845  0.00  0.00    +0.002 A 
ATOM     25  C   UNL     1      -5.143   0.946  -0.105  0.00  0.00    +0.002 A 
ATOM     26  C   UNL     1      -4.208   1.222   0.825  0.00  0.00    +0.027 A 
ATOM     27  C   UNL     1      -3.142   0.248   1.093  0.00  0.00    +0.060 A 
ATOM     28  N   UNL     1      -2.131   0.244   1.914  0.00  0.00    -0.362 N 
ATOM     29  H   UNL     1      -1.906  -2.629   0.325  0.00  0.00    +0.162 HD
ATOM     30  H   UNL     1      -1.897   0.949   2.539  0.00  0.00    +0.162 HD
ENDBRANCH  19  20
ENDBRANCH   2  19
TORSDOF 5
