REMARK  Name = ZINC19130137
REMARK  9 active torsions:
REMARK  status: ('A' for Active; 'I' for Inactive)
REMARK    1  A    between atoms: C_1  and  C_2
REMARK    2  A    between atoms: C_2  and  O_3
REMARK    3  A    between atoms: O_3  and  C_4
REMARK    4  A    between atoms: C_4  and  C_6
REMARK    5  A    between atoms: C_7  and  C_19
REMARK    6  A    between atoms: C_12  and  C_14
REMARK    7  A    between atoms: C_19  and  O_20
REMARK    8  A    between atoms: O_20  and  C_21
REMARK    9  A    between atoms: C_21  and  C_23
REMARK                            x       y       z     vdW  Elec       q    Type
REMARK                         _______ _______ _______ _____ _____    ______ ____
ROOT
ATOM      1  C   UNL     1       3.948  -3.105  -1.153  0.00  0.00    +0.084 C 
ATOM      2  C   UNL     1       3.751  -2.424  -0.004  0.00  0.00    +0.061 C 
ATOM      3  N   UNL     1       3.285  -3.051   1.117  0.00  0.00    -0.269 N 
ATOM      4  C   UNL     1       2.984  -4.355   1.167  0.00  0.00    +0.305 C 
ATOM      5  O   UNL     1       2.571  -4.823   2.209  0.00  0.00    -0.252 OA
ATOM      6  N   UNL     1       3.128  -5.166   0.100  0.00  0.00    -0.285 N 
ATOM      7  C   UNL     1       3.630  -4.587  -1.158  0.00  0.00    +0.179 C 
ATOM      8  H   UNL     1       3.163  -2.522   1.920  0.00  0.00    +0.156 HD
ATOM      9  H   UNL     1       2.907  -6.108   0.159  0.00  0.00    +0.151 HD
ENDROOT
BRANCH   7  10
ATOM     10  C   UNL     1       4.883  -5.329  -1.544  0.00  0.00    +0.130 A 
ATOM     11  C   UNL     1       5.163  -5.818  -2.766  0.00  0.00    +0.047 A 
ATOM     12  C   UNL     1       6.432  -6.434  -2.679  0.00  0.00    +0.041 A 
ATOM     13  C   UNL     1       6.852  -6.286  -1.410  0.00  0.00    +0.195 A 
ATOM     14  O   UNL     1       5.912  -5.611  -0.728  0.00  0.00    -0.466 OA
ENDBRANCH   7  10
BRANCH   1  15
ATOM     15  C   UNL     1       4.434  -2.458  -2.313  0.00  0.00    +0.339 C 
ATOM     16  O   UNL     1       3.666  -2.147  -3.203  0.00  0.00    -0.245 OA
BRANCH  15  17
ATOM     17  O   UNL     1       5.750  -2.184  -2.431  0.00  0.00    -0.462 OA
BRANCH  17  19
ATOM     18  C   UNL     1       7.684  -1.305  -3.583  0.00  0.00    +0.048 C 
ATOM     19  C   UNL     1       6.172  -1.529  -3.629  0.00  0.00    +0.229 C 
ENDBRANCH  17  19
ENDBRANCH  15  17
ENDBRANCH   1  15
BRANCH   2  20
ATOM     20  C   UNL     1       4.054  -0.949   0.045  0.00  0.00    +0.283 C 
BRANCH  20  21
ATOM     21  O   UNL     1       2.825  -0.208   0.265  0.00  0.00    -0.455 OA
BRANCH  21  22
ATOM     22  C   UNL     1       2.923   1.134   0.334  0.00  0.00    +0.341 C 
ATOM     23  O   UNL     1       4.006   1.671   0.214  0.00  0.00    -0.245 OA
BRANCH  22  24
ATOM     24  C   UNL     1       1.715   1.952   0.556  0.00  0.00    +0.077 A 
ATOM     25  C   UNL     1       0.467   1.338   0.694  0.00  0.00    +0.018 A 
ATOM     26  C   UNL     1      -0.658   2.107   0.896  0.00  0.00    +0.021 A 
ATOM     27  C   UNL     1      -0.554   3.487   0.973  0.00  0.00    +0.042 A 
ATOM     28  C   UNL     1       0.678   4.103   0.837  0.00  0.00    +0.040 A 
ATOM     29  C   UNL     1       1.813   3.344   0.629  0.00  0.00    +0.056 A 
ATOM     30 CL   UNL     1       3.358   4.118   0.458  0.00  0.00    -0.083 Cl
ATOM     31 CL   UNL     1      -1.976   4.448   1.234  0.00  0.00    -0.083 Cl
ENDBRANCH  22  24
ENDBRANCH  21  22
ENDBRANCH  20  21
ENDBRANCH   2  20
TORSDOF 8
