REMARK  Name = ZINC12399214
REMARK  11 active torsions:
REMARK  status: ('A' for Active; 'I' for Inactive)
REMARK    1  A    between atoms: C_1  and  N_2
REMARK    2  A    between atoms: N_2  and  C_3
REMARK    3  A    between atoms: C_6  and  C_11
REMARK    4  A    between atoms: C_11  and  O_12
REMARK    5  A    between atoms: O_12  and  C_13
REMARK    6  A    between atoms: C_13  and  C_15
REMARK    7  A    between atoms: C_20  and  S_21
REMARK    8  A    between atoms: S_21  and  C_22
REMARK    9  A    between atoms: C_22  and  C_23
REMARK   10  A    between atoms: N_25  and  C_26
REMARK   11  A    between atoms: C_26  and  C_27
REMARK                            x       y       z     vdW  Elec       q    Type
REMARK                         _______ _______ _______ _____ _____    ______ ____
ROOT
ATOM      1  C   UNL     1      -0.018   1.468   0.010  0.00  0.00    +0.072 A 
ATOM      2  C   UNL     1      -1.235   2.155   0.020  0.00  0.00    +0.016 A 
ATOM      3  C   UNL     1      -1.247   3.532   0.032  0.00  0.00    +0.001 A 
ATOM      4  C   UNL     1      -0.057   4.244   0.024  0.00  0.00    +0.001 A 
ATOM      5  C   UNL     1       1.153   3.582   0.010  0.00  0.00    +0.015 A 
ATOM      6  C   UNL     1       1.186   2.192   0.003  0.00  0.00    +0.022 A 
ENDROOT
BRANCH   1   7
ATOM      7  C   UNL     1       0.002  -0.004   0.002  0.00  0.00    +0.341 C 
ATOM      8  O   UNL     1       1.063  -0.597  -0.011  0.00  0.00    -0.245 OA
BRANCH   7   9
ATOM      9  O   UNL     1      -1.156  -0.694   0.009  0.00  0.00    -0.453 OA
BRANCH   9  10
ATOM     10  C   UNL     1      -1.060  -2.143   0.001  0.00  0.00    +0.308 C 
BRANCH  10  16
ATOM     11  C   UNL     1      -4.264  -3.484  -3.589  0.00  0.00    +0.132 C 
ATOM     12  N   UNL     1      -4.927  -3.782  -2.317  0.00  0.00    -0.306 N 
ATOM     13  C   UNL     1      -6.273  -4.361  -2.311  0.00  0.00    +0.132 C 
ATOM     14  C   UNL     1      -4.284  -3.517  -1.125  0.00  0.00    +0.222 A 
ATOM     15  N   UNL     1      -3.061  -2.991  -1.130  0.00  0.00    -0.196 NA
ATOM     16  C   UNL     1      -2.445  -2.737   0.011  0.00  0.00    +0.173 A 
ATOM     17  N   UNL     1      -3.037  -3.009   1.161  0.00  0.00    -0.196 NA
ATOM     18  C   UNL     1      -4.262  -3.530   1.173  0.00  0.00    +0.217 A 
ATOM     19  N   UNL     1      -4.885  -3.787   0.028  0.00  0.00    -0.181 NA
ATOM     20  N   UNL     1      -4.882  -3.808   2.375  0.00  0.00    -0.327 N 
ATOM     21  H   UNL     1      -5.773  -4.191   2.383  0.00  0.00    +0.145 HD
ATOM     22  H   UNL     1      -4.426  -3.620   3.210  0.00  0.00    +0.145 HD
ENDBRANCH  10  16
ENDBRANCH   9  10
ENDBRANCH   7   9
ENDBRANCH   1   7
BRANCH   6  23
ATOM     23  S   UNL     1       2.730   1.343  -0.017  0.00  0.00    -0.115 S 
BRANCH  23  24
ATOM     24  C   UNL     1       3.865   2.753  -0.020  0.00  0.00    +0.170 C 
BRANCH  24  25
ATOM     25  C   UNL     1       5.286   2.254  -0.036  0.00  0.00    +0.223 C 
ATOM     26  O   UNL     1       5.511   1.062  -0.045  0.00  0.00    -0.275 OA
ATOM     27  N   UNL     1       6.309   3.132  -0.041  0.00  0.00    -0.314 N 
ATOM     28  H   UNL     1       6.129   4.085  -0.035  0.00  0.00    +0.149 HD
BRANCH  27  29
ATOM     29  C   UNL     1       7.691   2.647  -0.057  0.00  0.00    +0.107 C 
BRANCH  29  30
ATOM     30  C   UNL     1       8.650   3.839  -0.060  0.00  0.00    +0.006 C 
ATOM     31  C   UNL     1       8.482   4.625  -1.361  0.00  0.00    +0.005 C 
ATOM     32  C   UNL     1       9.441   5.818  -1.364  0.00  0.00    +0.000 C 
ATOM     33  C   UNL     1      10.882   5.314  -1.255  0.00  0.00    +0.000 C 
ATOM     34  C   UNL     1      11.050   4.527   0.047  0.00  0.00    +0.000 C 
ATOM     35  C   UNL     1      10.091   3.335   0.049  0.00  0.00    +0.005 C 
ENDBRANCH  29  30
ENDBRANCH  27  29
ENDBRANCH  24  25
ENDBRANCH  23  24
ENDBRANCH   6  23
TORSDOF 9
