REMARK  Name = ZINC66195922
REMARK  11 active torsions:
REMARK  status: ('A' for Active; 'I' for Inactive)
REMARK    1  A    between atoms: C_1  and  C_2
REMARK    2  A    between atoms: C_2  and  C_3
REMARK    3  A    between atoms: C_3  and  C_5
REMARK    4  A    between atoms: C_3  and  N_6
REMARK    5  A    between atoms: N_6  and  C_7
REMARK    6  A    between atoms: N_6  and  C_8
REMARK    7  A    between atoms: C_8  and  C_9
REMARK    8  A    between atoms: C_9  and  N_10
REMARK    9  A    between atoms: N_13  and  C_14
REMARK   10  A    between atoms: N_13  and  C_15
REMARK   11  A    between atoms: N_18  and  C_21
REMARK                            x       y       z     vdW  Elec       q    Type
REMARK                         _______ _______ _______ _____ _____    ______ ____
ROOT
ATOM      1  N   UNL     1       3.381   3.408  -0.538  0.00  0.00    -0.301 N 
ATOM      2  C   UNL     1       4.536   4.066  -0.313  0.00  0.00    +0.302 C 
ATOM      3  O   UNL     1       5.589   3.458  -0.303  0.00  0.00    -0.253 OA
ATOM      4  N   UNL     1       4.523   5.396  -0.099  0.00  0.00    -0.286 N 
ATOM      5  C   UNL     1       3.255   6.128  -0.112  0.00  0.00    +0.134 C 
ATOM      6  H   UNL     1       2.541   3.893  -0.546  0.00  0.00    +0.150 HD
ENDROOT
BRANCH   4   7
ATOM      7  C   UNL     1       5.779   6.111   0.145  0.00  0.00    +0.074 C 
ATOM      8  C   UNL     1       5.723   6.790   1.517  0.00  0.00    +0.004 C 
ATOM      9  C   UNL     1       7.003   7.599   1.732  0.00  0.00    -0.077 C 
ATOM     10  N   UNL     1       7.124   8.619   0.684  0.00  0.00    +0.382 N 
ATOM     11  C   UNL     1       7.251   7.973  -0.628  0.00  0.00    -0.077 C 
ATOM     12  C   UNL     1       5.979   7.178  -0.934  0.00  0.00    +0.004 C 
ATOM     13  H   UNL     1       6.303   9.206   0.691  0.00  0.00    -0.081 HD
BRANCH  10  14
ATOM     14  C   UNL     1       8.313   9.443   0.939  0.00  0.00    -0.064 C 
ATOM     15  C   UNL     1       8.175  10.135   2.299  0.00  0.00    +0.013 C 
ATOM     16  C   UNL     1       9.381  11.052   2.521  0.00  0.00    +0.158 C 
ATOM     17  O   UNL     1       9.460  11.999   1.454  0.00  0.00    -0.380 OA
ATOM     18  C   UNL     1       9.638  11.411   0.164  0.00  0.00    +0.158 C 
ATOM     19  C   UNL     1       8.442  10.509  -0.153  0.00  0.00    +0.013 C 
ENDBRANCH  10  14
ENDBRANCH   4   7
BRANCH   1  20
ATOM     20  C   UNL     1       3.395   1.962  -0.771  0.00  0.00    +0.087 C 
BRANCH  20  21
ATOM     21  C   UNL     1       1.964   1.468  -0.998  0.00  0.00    -0.060 C 
BRANCH  21  22
ATOM     22  N   UNL     1       1.978   0.018  -1.231  0.00  0.00    +0.381 N 
ATOM     23  C   UNL     1       2.671  -0.268  -2.494  0.00  0.00    -0.096 C 
ATOM     24  H   UNL     1       2.460  -0.440  -0.472  0.00  0.00    -0.082 HD
BRANCH  22  25
ATOM     25  C   UNL     1       0.598  -0.479  -1.306  0.00  0.00    -0.072 C 
ATOM     26  C   UNL     1      -0.092   0.115  -2.535  0.00  0.00    -0.013 C 
BRANCH  25  28
ATOM     27  C   UNL     1       1.185  -2.604  -0.130  0.00  0.00    +0.002 C 
ATOM     28  C   UNL     1       0.610  -2.005  -1.415  0.00  0.00    -0.019 C 
ENDBRANCH  25  28
ENDBRANCH  22  25
ENDBRANCH  21  22
ENDBRANCH  20  21
ENDBRANCH   1  20
TORSDOF 7
