REMARK  Name = ZINC12603538
REMARK  10 active torsions:
REMARK  status: ('A' for Active; 'I' for Inactive)
REMARK    1  A    between atoms: C_6  and  C_7
REMARK    2  A    between atoms: C_7  and  N_8
REMARK    3  A    between atoms: C_9  and  C_11
REMARK    4  A    between atoms: C_11  and  C_12
REMARK    5  A    between atoms: C_14  and  O_34
REMARK    6  A    between atoms: C_16  and  O_33
REMARK    7  A    between atoms: C_18  and  C_21
REMARK    8  A    between atoms: C_21  and  N_22
REMARK    9  A    between atoms: N_22  and  S_23
REMARK   10  A    between atoms: S_23  and  C_26
REMARK                            x       y       z     vdW  Elec       q    Type
REMARK                         _______ _______ _______ _____ _____    ______ ____
ROOT
ATOM      1  C   UNL     1       1.760   2.527  -2.158  0.00  0.00    +0.158 C 
ATOM      2  C   UNL     1       2.020   1.244  -1.327  0.00  0.00    +0.175 C 
ATOM      3  C   UNL     1       1.286   1.562  -0.002  0.00  0.00    +0.175 C 
ATOM      4  C   UNL     1       1.171   3.098   0.007  0.00  0.00    +0.165 C 
ATOM      5  O   UNL     1       1.827   3.583  -1.176  0.00  0.00    -0.366 OA
ENDROOT
BRANCH   3   6
ATOM      6  O   UNL     1      -0.011   0.963   0.007  0.00  0.00    -0.387 OA
ATOM      7  H   UNL     1       0.002  -0.004   0.002  0.00  0.00    +0.210 HD
ENDBRANCH   3   6
BRANCH   2   8
ATOM      8  O   UNL     1       1.450   0.100  -1.965  0.00  0.00    -0.387 OA
ATOM      9  H   UNL     1       1.508  -0.712  -1.441  0.00  0.00    +0.210 HD
ENDBRANCH   2   8
BRANCH   1  10
ATOM     10  C   UNL     1       2.845   2.710  -3.221  0.00  0.00    +0.130 C 
BRANCH  10  12
ATOM     11  N   UNL     1       3.388   4.319  -5.020  0.00  0.00    -0.311 N 
ATOM     12  C   UNL     1       2.559   3.955  -4.021  0.00  0.00    +0.216 C 
ATOM     13  O   UNL     1       1.585   4.630  -3.765  0.00  0.00    -0.276 OA
ATOM     14  H   UNL     1       4.167   3.779  -5.224  0.00  0.00    +0.149 HD
BRANCH  11  15
ATOM     15  C   UNL     1       3.111   5.529  -5.797  0.00  0.00    +0.139 C 
BRANCH  15  21
ATOM     16  C   UNL     1       5.315   6.442  -6.553  0.00  0.00    +0.008 A 
ATOM     17  C   UNL     1       6.298   6.603  -7.511  0.00  0.00    +0.038 A 
ATOM     18  C   UNL     1       6.140   6.041  -8.766  0.00  0.00    +0.123 A 
ATOM     19  C   UNL     1       4.999   5.312  -9.059  0.00  0.00    +0.038 A 
ATOM     20  C   UNL     1       4.020   5.147  -8.097  0.00  0.00    +0.008 A 
ATOM     21  C   UNL     1       4.179   5.710  -6.844  0.00  0.00    -0.030 A 
ATOM     22  F   UNL     1       7.097   6.203  -9.706  0.00  0.00    -0.205 F 
ENDBRANCH  15  21
ENDBRANCH  11  15
ENDBRANCH  10  12
ENDBRANCH   1  10
BRANCH   4  23
ATOM     23  C   UNL     1       1.855   3.664   1.254  0.00  0.00    +0.140 C 
BRANCH  23  24
ATOM     24  N   UNL     1       1.638   5.111   1.316  0.00  0.00    -0.187 NA
ATOM     25  H   UNL     1       1.321   5.588   0.533  0.00  0.00    +0.148 HD
BRANCH  24  26
ATOM     26  S   UNL     1       1.935   5.934   2.722  0.00  0.00    +0.058 S 
ATOM     27  O   UNL     1       1.659   7.302   2.458  0.00  0.00    -0.153 OA
ATOM     28  O   UNL     1       1.284   5.212   3.759  0.00  0.00    -0.153 OA
BRANCH  26  29
ATOM     29  C   UNL     1       3.664   5.820   3.038  0.00  0.00    +0.105 A 
ATOM     30  C   UNL     1       4.162   4.773   3.792  0.00  0.00    +0.030 A 
ATOM     31  C   UNL     1       5.519   4.680   4.035  0.00  0.00    +0.022 A 
ATOM     32  C   UNL     1       6.379   5.641   3.533  0.00  0.00    +0.041 A 
ATOM     33  C   UNL     1       5.880   6.691   2.783  0.00  0.00    +0.022 A 
ATOM     34  C   UNL     1       4.523   6.780   2.536  0.00  0.00    +0.030 A 
ATOM     35 CL   UNL     1       8.083   5.529   3.843  0.00  0.00    -0.084 Cl
ENDBRANCH  26  29
ENDBRANCH  24  26
ENDBRANCH  23  24
ENDBRANCH   4  23
TORSDOF 10
