REMARK  Name = ZINC10586889
REMARK  11 active torsions:
REMARK  status: ('A' for Active; 'I' for Inactive)
REMARK    1  A    between atoms: C_1  and  C_2
REMARK    2  A    between atoms: C_6  and  N_33
REMARK    3  A    between atoms: C_7  and  N_8
REMARK    4  A    between atoms: C_9  and  C_11
REMARK    5  A    between atoms: C_11  and  O_12
REMARK    6  A    between atoms: O_12  and  C_13
REMARK    7  A    between atoms: C_13  and  C_15
REMARK    8  A    between atoms: C_15  and  C_17
REMARK    9  A    between atoms: C_15  and  N_24
REMARK   10  A    between atoms: C_17  and  C_18
REMARK   11  A    between atoms: C_25  and  C_27
REMARK                            x       y       z     vdW  Elec       q    Type
REMARK                         _______ _______ _______ _____ _____    ______ ____
ROOT
ATOM      1  C   UNL     1       7.616   1.466  -0.001  0.00  0.00    +0.328 C 
ATOM      2  O   UNL     1       7.122   1.939   0.995  0.00  0.00    -0.249 OA
ENDROOT
BRANCH   1   3
ATOM      3  O   UNL     1       8.873   0.997   0.031  0.00  0.00    -0.454 OA
BRANCH   3   4
ATOM      4  C   UNL     1       9.579   1.089   1.296  0.00  0.00    +0.328 C 
BRANCH   4   6
ATOM      5  N   UNL     1      11.807   0.496   2.193  0.00  0.00    -0.281 N 
ATOM      6  C   UNL     1      10.965   0.517   1.141  0.00  0.00    +0.255 C 
ATOM      7  O   UNL     1      11.322   0.075   0.069  0.00  0.00    -0.272 OA
ATOM      8  H   UNL     1      11.542   0.898   3.035  0.00  0.00    +0.155 HD
BRANCH   5  15
ATOM      9  C   UNL     1      11.928  -2.197   1.282  0.00  0.00    +0.046 C 
ATOM     10  C   UNL     1      13.169  -1.417   1.630  0.00  0.00    -0.027 A 
ATOM     11  C   UNL     1      14.413  -2.005   1.504  0.00  0.00    +0.005 A 
ATOM     12  C   UNL     1      15.552  -1.292   1.828  0.00  0.00    +0.003 A 
ATOM     13  C   UNL     1      15.452   0.013   2.273  0.00  0.00    +0.034 A 
ATOM     14  C   UNL     1      14.212   0.609   2.395  0.00  0.00    +0.148 A 
ATOM     15  C   UNL     1      13.065  -0.104   2.070  0.00  0.00    +0.067 A 
BRANCH  14  16
ATOM     16  N   UNL     1      14.105   2.007   2.870  0.00  0.00    +0.058 N 
ATOM     17  O   UNL     1      15.112   2.664   3.060  0.00  0.00    -0.126 OA
ATOM     18  O   UNL     1      13.009   2.499   3.072  0.00  0.00    -0.126 OA
ENDBRANCH  14  16
ENDBRANCH   5  15
ENDBRANCH   4   6
ENDBRANCH   3   4
ENDBRANCH   1   3
BRANCH   1  19
ATOM     19  C   UNL     1       6.821   1.405  -1.280  0.00  0.00    +0.186 C 
BRANCH  19  20
ATOM     20  N   UNL     1       5.490   1.975  -1.055  0.00  0.00    -0.298 N 
ATOM     21  C   UNL     1       4.456   1.601  -1.834  0.00  0.00    +0.245 C 
ATOM     22  O   UNL     1       4.628   0.789  -2.723  0.00  0.00    -0.270 OA
ATOM     23  H   UNL     1       5.354   2.623  -0.346  0.00  0.00    +0.150 HD
BRANCH  21  24
ATOM     24  C   UNL     1       3.114   2.177  -1.608  0.00  0.00    +0.037 A 
ATOM     25  C   UNL     1       2.041   1.791  -2.413  0.00  0.00    +0.013 A 
ATOM     26  C   UNL     1       0.790   2.332  -2.196  0.00  0.00    +0.001 A 
ATOM     27  C   UNL     1       0.599   3.255  -1.183  0.00  0.00    +0.000 A 
ATOM     28  C   UNL     1       1.658   3.642  -0.382  0.00  0.00    +0.001 A 
ATOM     29  C   UNL     1       2.914   3.108  -0.588  0.00  0.00    +0.013 A 
ENDBRANCH  21  24
ENDBRANCH  19  20
BRANCH  19  30
ATOM     30  C   UNL     1       7.542   2.203  -2.368  0.00  0.00    +0.069 C 
BRANCH  30  31
ATOM     31  C   UNL     1       6.812   2.040  -3.676  0.00  0.00    -0.045 A 
ATOM     32  C   UNL     1       7.154   1.013  -4.535  0.00  0.00    +0.004 A 
ATOM     33  C   UNL     1       6.482   0.861  -5.734  0.00  0.00    +0.000 A 
ATOM     34  C   UNL     1       5.475   1.743  -6.078  0.00  0.00    +0.000 A 
ATOM     35  C   UNL     1       5.136   2.773  -5.221  0.00  0.00    +0.000 A 
ATOM     36  C   UNL     1       5.805   2.922  -4.020  0.00  0.00    +0.004 A 
ENDBRANCH  30  31
ENDBRANCH  19  30
ENDBRANCH   1  19
TORSDOF 10
