REMARK  Name = ZINC40111611
REMARK  8 active torsions:
REMARK  status: ('A' for Active; 'I' for Inactive)
REMARK    1  A    between atoms: C_1  and  C_2
REMARK    2  A    between atoms: C_4  and  N_27
REMARK    3  A    between atoms: C_7  and  N_8
REMARK    4  A    between atoms: C_9  and  C_11
REMARK    5  A    between atoms: N_13  and  C_20
REMARK    6  A    between atoms: C_14  and  C_17
REMARK    7  A    between atoms: N_27  and  C_28
REMARK    8  A    between atoms: N_27  and  C_29
REMARK                            x       y       z     vdW  Elec       q    Type
REMARK                         _______ _______ _______ _____ _____    ______ ____
ROOT
ATOM      1  C   UNL     1      -0.164   0.039   4.844  0.00  0.00    +0.123 C 
ATOM      2  N   UNL     1      -0.195   1.327   4.965  0.00  0.00    -0.178 NA
ATOM      3  N   UNL     1      -0.302   1.770   6.282  0.00  0.00    -0.212 N 
ATOM      4  C   UNL     1      -0.349   0.602   7.175  0.00  0.00    +0.189 C 
ATOM      5  C   UNL     1      -0.262  -0.598   6.212  0.00  0.00    +0.096 C 
ENDROOT
BRANCH   3   6
ATOM      6  C   UNL     1      -0.356   3.105   6.688  0.00  0.00    +0.053 A 
ATOM      7  C   UNL     1      -0.457   3.419   8.037  0.00  0.00    +0.028 A 
ATOM      8  C   UNL     1      -0.509   4.740   8.436  0.00  0.00    +0.040 A 
ATOM      9  C   UNL     1      -0.462   5.752   7.492  0.00  0.00    +0.124 A 
ATOM     10  C   UNL     1      -0.361   5.442   6.146  0.00  0.00    +0.040 A 
ATOM     11  C   UNL     1      -0.302   4.122   5.742  0.00  0.00    +0.028 A 
ATOM     12  F   UNL     1      -0.514   7.043   7.885  0.00  0.00    -0.205 F 
ENDBRANCH   3   6
BRANCH   4  13
ATOM     13  C   UNL     1       0.820   0.615   8.126  0.00  0.00    +0.233 C 
ATOM     14  O   UNL     1       1.795   1.292   7.879  0.00  0.00    -0.274 OA
ATOM     15  N   UNL     1       0.782  -0.127   9.251  0.00  0.00    -0.328 N 
ATOM     16  H   UNL     1       0.002  -0.668   9.449  0.00  0.00    +0.145 HD
ATOM     17  H   UNL     1       1.535  -0.118   9.863  0.00  0.00    +0.145 HD
ENDBRANCH   4  13
BRANCH   1  19
ATOM     18  N   UNL     1       0.025  -0.011   2.417  0.00  0.00    -0.280 N 
ATOM     19  C   UNL     1      -0.056  -0.689   3.579  0.00  0.00    +0.264 C 
ATOM     20  O   UNL     1      -0.040  -1.906   3.577  0.00  0.00    -0.268 OA
ATOM     21  H   UNL     1       0.079   0.958   2.423  0.00  0.00    +0.155 HD
BRANCH  18  28
ATOM     22  C   UNL     1      -1.265   1.184   0.183  0.00  0.00    +0.046 C 
ATOM     23  C   UNL     1      -0.585  -0.158   0.085  0.00  0.00    -0.027 A 
ATOM     24  C   UNL     1      -0.572  -0.839  -1.116  0.00  0.00    +0.028 A 
ATOM     25  C   UNL     1       0.054  -2.075  -1.206  0.00  0.00    +0.030 A 
ATOM     26  C   UNL     1       0.668  -2.626  -0.088  0.00  0.00    +0.025 A 
ATOM     27  C   UNL     1       0.655  -1.944   1.113  0.00  0.00    +0.025 A 
ATOM     28  C   UNL     1       0.033  -0.705   1.201  0.00  0.00    +0.037 A 
BRANCH  25  29
ATOM     29  N   UNL     1       0.067  -2.766  -2.422  0.00  0.00    -0.336 N 
ATOM     30  C   UNL     1      -0.581  -2.186  -3.601  0.00  0.00    +0.129 C 
ATOM     31  C   UNL     1       0.728  -4.070  -2.517  0.00  0.00    +0.129 C 
ENDBRANCH  25  29
ENDBRANCH  18  28
ENDBRANCH   1  19
TORSDOF 5
