REMARK  Name = ZINC22926782
REMARK  14 active torsions:
REMARK  status: ('A' for Active; 'I' for Inactive)
REMARK    1  A    between atoms: C_1  and  C_2
REMARK    2  A    between atoms: C_2  and  O_3
REMARK    3  A    between atoms: O_3  and  C_4
REMARK    4  A    between atoms: C_4  and  C_6
REMARK    5  A    between atoms: C_7  and  C_29
REMARK    6  A    between atoms: C_8  and  C_28
REMARK    7  A    between atoms: C_10  and  N_11
REMARK    8  A    between atoms: C_12  and  C_14
REMARK    9  A    between atoms: C_14  and  N_15
REMARK   10  A    between atoms: N_18  and  C_21
REMARK   11  A    between atoms: C_21  and  C_22
REMARK   12  A    between atoms: N_24  and  C_25
REMARK   13  A    between atoms: C_25  and  C_26
REMARK   14  A    between atoms: C_32  and  C_35
REMARK                            x       y       z     vdW  Elec       q    Type
REMARK                         _______ _______ _______ _____ _____    ______ ____
ROOT
ATOM      1  N   UNL     1      -1.517   2.074  -2.463  0.00  0.00    -0.278 N 
ATOM      2  C   UNL     1      -2.274   2.506  -3.491  0.00  0.00    +0.232 C 
ATOM      3  O   UNL     1      -3.316   3.087  -3.275  0.00  0.00    -0.274 OA
ATOM      4  H   UNL     1      -0.572   1.546  -2.660  0.00  0.00    +0.155 HD
ENDROOT
BRANCH   1   9
ATOM      5  C   UNL     1      -1.291   1.927   0.019  0.00  0.00    +0.095 A 
ATOM      6  C   UNL     1      -1.949   2.291   1.259  0.00  0.00    +0.008 A 
ATOM      7  C   UNL     1      -3.130   2.953   1.152  0.00  0.00    -0.003 A 
ATOM      8  S   UNL     1      -3.365   3.089  -0.608  0.00  0.00    -0.077 S 
ATOM      9  C   UNL     1      -1.929   2.294  -1.159  0.00  0.00    +0.087 A 
ATOM     10  C   UNL     1      -4.026   3.450   2.256  0.00  0.00    +0.052 C 
BRANCH   6  11
ATOM     11  C   UNL     1      -1.361   1.959   2.578  0.00  0.00    -0.016 A 
ATOM     12  C   UNL     1      -1.226   0.627   2.969  0.00  0.00    +0.009 A 
ATOM     13  C   UNL     1      -0.674   0.323   4.196  0.00  0.00    +0.004 A 
ATOM     14  C   UNL     1      -0.264   1.337   5.043  0.00  0.00    -0.050 A 
ATOM     15  C   UNL     1      -0.400   2.661   4.663  0.00  0.00    +0.004 A 
ATOM     16  C   UNL     1      -0.946   2.976   3.436  0.00  0.00    +0.009 A 
ATOM     17  C   UNL     1       0.334   0.999   6.384  0.00  0.00    +0.044 C 
ENDBRANCH   6  11
BRANCH   5  18
ATOM     18  C   UNL     1      -0.014   1.212   0.009  0.00  0.00    +0.342 C 
ATOM     19  O   UNL     1       0.002  -0.004   0.002  0.00  0.00    -0.245 OA
BRANCH  18  20
ATOM     20  O   UNL     1       1.145   1.903   0.001  0.00  0.00    -0.461 OA
BRANCH  20  22
ATOM     21  C   UNL     1       3.573   2.077  -0.021  0.00  0.00    +0.048 C 
ATOM     22  C   UNL     1       2.373   1.129  -0.015  0.00  0.00    +0.229 C 
ENDBRANCH  20  22
ENDBRANCH  18  20
ENDBRANCH   5  18
ENDBRANCH   1   9
BRANCH   2  23
ATOM     23  C   UNL     1      -1.825   2.266  -4.910  0.00  0.00    +0.180 C 
BRANCH  23  24
ATOM     24  N   UNL     1      -2.816   2.828  -5.838  0.00  0.00    -0.298 NA
ATOM     25  C   UNL     1      -4.091   2.103  -5.750  0.00  0.00    +0.066 C 
ATOM     26  C   UNL     1      -5.117   2.767  -6.672  0.00  0.00    -0.063 C 
ATOM     27  N   UNL     1      -4.607   2.766  -8.050  0.00  0.00    +0.387 N 
ATOM     28  C   UNL     1      -3.332   3.491  -8.137  0.00  0.00    -0.063 C 
ATOM     29  C   UNL     1      -2.306   2.827  -7.216  0.00  0.00    +0.066 C 
ATOM     30  H   UNL     1      -4.425   1.722  -8.344  0.00  0.00    -0.081 HD
BRANCH  27  31
ATOM     31  C   UNL     1      -5.597   3.328  -8.978  0.00  0.00    +0.019 C 
BRANCH  31  32
ATOM     32  C   UNL     1      -6.798   2.419  -9.043  0.00  0.00    +0.197 C 
ATOM     33  O   UNL     1      -6.825   1.403  -8.381  0.00  0.00    -0.278 OA
ATOM     34  N   UNL     1      -7.840   2.736  -9.836  0.00  0.00    -0.313 N 
ATOM     35  H   UNL     1      -7.815   3.657 -10.436  0.00  0.00    +0.149 HD
BRANCH  34  36
ATOM     36  C   UNL     1      -9.007   1.852  -9.899  0.00  0.00    +0.131 C 
BRANCH  36  37
ATOM     37  C   UNL     1     -10.023   2.429 -10.851  0.00  0.00    -0.016 C 
ATOM     38  C   UNL     1     -10.468   1.708 -11.850  0.00  0.00    +0.005 C 
ENDBRANCH  36  37
ENDBRANCH  34  36
ENDBRANCH  31  32
ENDBRANCH  27  31
ENDBRANCH  23  24
ENDBRANCH   2  23
TORSDOF 11
