REMARK  Name = ZINC24966533
REMARK  9 active torsions:
REMARK  status: ('A' for Active; 'I' for Inactive)
REMARK    1  A    between atoms: C_1  and  C_2
REMARK    2  A    between atoms: C_2  and  C_4
REMARK    3  A    between atoms: C_2  and  S_14
REMARK    4  A    between atoms: N_10  and  C_11
REMARK    5  A    between atoms: N_10  and  C_12
REMARK    6  A    between atoms: S_14  and  C_15
REMARK    7  A    between atoms: C_18  and  C_27
REMARK    8  A    between atoms: N_19  and  C_20
REMARK    9  A    between atoms: C_20  and  C_21
REMARK                            x       y       z     vdW  Elec       q    Type
REMARK                         _______ _______ _______ _____ _____    ______ ____
ROOT
ATOM      1  C   UNL     1       2.121   2.325  -1.095  0.00  0.00    +0.193 A 
ATOM      2  N   UNL     1       3.284   2.750  -0.656  0.00  0.00    -0.122 NA
ATOM      3  N   UNL     1       3.301   2.744   0.629  0.00  0.00    -0.128 NA
ATOM      4  C   UNL     1       2.145   2.320   1.091  0.00  0.00    +0.172 A 
ATOM      5  N   UNL     1       1.356   2.033   0.000  0.00  0.00    -0.299 N 
ENDROOT
BRANCH   4   6
ATOM      6  C   UNL     1       1.768   2.177   2.507  0.00  0.00    +0.056 A 
ATOM      7  C   UNL     1       2.572   2.170   3.619  0.00  0.00    +0.019 A 
ATOM      8  C   UNL     1       1.986   2.024   4.856  0.00  0.00    +0.008 A 
ATOM      9  C   UNL     1       0.637   1.881   4.938  0.00  0.00    +0.046 A 
ATOM     10  S   UNL     1       0.148   1.959   3.223  0.00  0.00    -0.094 S 
ENDBRANCH   4   6
BRANCH   1  11
ATOM     11  S   UNL     1       1.637   2.162  -2.781  0.00  0.00    -0.075 S 
BRANCH  11  13
ATOM     12  C   UNL     1       3.382   4.205  -3.274  0.00  0.00    +0.028 C 
ATOM     13  C   UNL     1       3.149   2.728  -3.599  0.00  0.00    +0.119 C 
BRANCH  13  14
ATOM     14  C   UNL     1       3.008   2.557  -5.090  0.00  0.00    +0.149 A 
ATOM     15  N   UNL     1       1.892   2.928  -5.693  0.00  0.00    -0.198 NA
ATOM     16  C   UNL     1       1.764   2.779  -7.009  0.00  0.00    +0.217 A 
ATOM     17  N   UNL     1       2.760   2.257  -7.717  0.00  0.00    -0.181 NA
ATOM     18  C   UNL     1       3.880   1.885  -7.107  0.00  0.00    +0.222 A 
ATOM     19  N   UNL     1       4.003   2.042  -5.791  0.00  0.00    -0.198 NA
ATOM     20  N   UNL     1       4.917   1.343  -7.838  0.00  0.00    -0.306 N 
ATOM     21  C   UNL     1       4.784   1.176  -9.287  0.00  0.00    +0.132 C 
ATOM     22  C   UNL     1       6.152   0.933  -7.164  0.00  0.00    +0.132 C 
ATOM     23  N   UNL     1       0.599   3.167  -7.638  0.00  0.00    -0.327 N 
ATOM     24  H   UNL     1       0.493   3.043  -8.726  0.00  0.00    +0.145 HD
ATOM     25  H   UNL     1      -0.226   3.599  -7.051  0.00  0.00    +0.145 HD
ENDBRANCH  13  14
ENDBRANCH  11  13
ENDBRANCH   1  11
BRANCH   5  26
ATOM     26  C   UNL     1      -0.019   1.526   0.010  0.00  0.00    +0.157 C 
BRANCH  26  27
ATOM     27  C   UNL     1       0.002  -0.004   0.002  0.00  0.00    +0.138 C 
ATOM     28  C   UNL     1      -1.439  -0.547  -0.103  0.00  0.00    +0.035 C 
ATOM     29  C   UNL     1      -1.401  -1.771   0.852  0.00  0.00    +0.031 C 
ATOM     30  C   UNL     1      -0.420  -1.265   1.939  0.00  0.00    +0.160 C 
ATOM     31  O   UNL     1       0.559  -0.489   1.229  0.00  0.00    -0.375 OA
ENDBRANCH  26  27
ENDBRANCH   5  26
TORSDOF 6
