REMARK  Name = ZINC32731220
REMARK  8 active torsions:
REMARK  status: ('A' for Active; 'I' for Inactive)
REMARK    1  A    between atoms: C_1  and  C_2
REMARK    2  A    between atoms: C_2  and  C_4
REMARK    3  A    between atoms: C_2  and  N_22
REMARK    4  A    between atoms: N_9  and  C_12
REMARK    5  A    between atoms: C_12  and  C_13
REMARK    6  A    between atoms: C_23  and  O_25
REMARK    7  A    between atoms: O_25  and  C_26
REMARK    8  A    between atoms: C_26  and  C_27
REMARK                            x       y       z     vdW  Elec       q    Type
REMARK                         _______ _______ _______ _____ _____    ______ ____
ROOT
ATOM      1  C   UNL     1       8.988  -3.472  -0.274  0.00  0.00    +0.236 C 
ATOM      2  O   UNL     1      10.153  -3.227  -0.042  0.00  0.00    -0.274 OA
ATOM      3  N   UNL     1       8.048  -2.526  -0.073  0.00  0.00    -0.298 N 
ATOM      4  C   UNL     1       8.396  -1.232   0.532  0.00  0.00    +0.123 C 
ATOM      5  C   UNL     1       7.435  -0.964   1.696  0.00  0.00    +0.103 C 
ATOM      6  N   UNL     1       6.051  -1.074   1.218  0.00  0.00    -0.295 NA
ATOM      7  C   UNL     1       5.755  -2.434   0.749  0.00  0.00    +0.103 C 
ATOM      8  C   UNL     1       6.647  -2.763  -0.453  0.00  0.00    +0.123 C 
ENDROOT
BRANCH   1  10
ATOM      9  C   UNL     1       8.507  -4.797  -2.313  0.00  0.00    +0.038 C 
ATOM     10  C   UNL     1       8.591  -4.832  -0.786  0.00  0.00    +0.159 C 
BRANCH  10  11
ATOM     11  N   UNL     1       9.591  -5.820  -0.374  0.00  0.00    -0.270 N 
ATOM     12  C   UNL     1       9.248  -7.118  -0.256  0.00  0.00    +0.401 C 
ATOM     13  O   UNL     1       8.108  -7.468  -0.491  0.00  0.00    -0.226 OA
ATOM     14  H   UNL     1      10.623  -5.502  -0.162  0.00  0.00    +0.153 HD
BRANCH  12  15
ATOM     15  O   UNL     1      10.167  -8.026   0.122  0.00  0.00    -0.446 OA
BRANCH  15  16
ATOM     16  C   UNL     1       9.726  -9.405   0.228  0.00  0.00    +0.269 C 
BRANCH  16  17
ATOM     17  C   UNL     1      10.883 -10.270   0.660  0.00  0.00    -0.010 A 
ATOM     18  C   UNL     1      11.702 -10.853  -0.289  0.00  0.00    +0.007 A 
ATOM     19  C   UNL     1      12.765 -11.642   0.108  0.00  0.00    +0.000 A 
ATOM     20  C   UNL     1      13.003 -11.857   1.452  0.00  0.00    +0.000 A 
ATOM     21  C   UNL     1      12.181 -11.278   2.401  0.00  0.00    +0.000 A 
ATOM     22  C   UNL     1      11.120 -10.485   2.005  0.00  0.00    +0.007 A 
ENDBRANCH  16  17
ENDBRANCH  15  16
ENDBRANCH  12  15
ENDBRANCH  10  11
ENDBRANCH   1  10
BRANCH   6  23
ATOM     23  C   UNL     1       5.100  -0.657   2.257  0.00  0.00    +0.119 C 
BRANCH  23  24
ATOM     24  C   UNL     1       3.720  -0.547   1.662  0.00  0.00    -0.030 A 
ATOM     25  C   UNL     1       2.881  -1.645   1.659  0.00  0.00    +0.009 A 
ATOM     26  C   UNL     1       1.614  -1.549   1.114  0.00  0.00    +0.050 A 
ATOM     27  C   UNL     1       1.183  -0.350   0.568  0.00  0.00    +0.166 A 
ATOM     28  C   UNL     1       2.029   0.756   0.571  0.00  0.00    +0.167 A 
ATOM     29  C   UNL     1       3.297   0.652   1.119  0.00  0.00    +0.054 A 
ATOM     30  O   UNL     1       1.380   1.803  -0.017  0.00  0.00    -0.453 OA
ATOM     31  C   UNL     1      -0.014   1.443  -0.011  0.00  0.00    +0.466 C 
ATOM     32  O   UNL     1       0.004   0.004  -0.022  0.00  0.00    -0.453 OA
ENDBRANCH  23  24
ENDBRANCH   6  23
TORSDOF 7
