REMARK  Name = ZINC09434425
REMARK  13 active torsions:
REMARK  status: ('A' for Active; 'I' for Inactive)
REMARK    1  A    between atoms: C_1  and  C_2
REMARK    2  A    between atoms: C_2  and  O_3
REMARK    3  A    between atoms: O_3  and  C_4
REMARK    4  A    between atoms: C_6  and  C_21
REMARK    5  A    between atoms: C_9  and  O_10
REMARK    6  A    between atoms: O_10  and  C_11
REMARK    7  A    between atoms: C_11  and  C_12
REMARK    8  A    between atoms: C_12  and  O_13
REMARK    9  A    between atoms: O_13  and  C_14
REMARK   10  A    between atoms: C_17  and  C_20
REMARK   11  A    between atoms: N_28  and  C_31
REMARK   12  A    between atoms: C_34  and  O_37
REMARK   13  A    between atoms: O_37  and  C_38
REMARK                            x       y       z     vdW  Elec       q    Type
REMARK                         _______ _______ _______ _____ _____    ______ ____
ROOT
ATOM      1  C   UNL     1      -2.196   3.578  -2.250  0.00  0.00    +0.162 A 
ATOM      2  C   UNL     1      -1.520   2.506  -1.707  0.00  0.00    +0.057 A 
ATOM      3  C   UNL     1      -0.178   2.650  -1.323  0.00  0.00    -0.020 A 
ATOM      4  C   UNL     1       0.471   3.881  -1.505  0.00  0.00    +0.012 A 
ATOM      5  C   UNL     1      -0.212   4.942  -2.054  0.00  0.00    +0.050 A 
ATOM      6  C   UNL     1      -1.543   4.799  -2.428  0.00  0.00    +0.162 A 
ENDROOT
BRANCH   3   7
ATOM      7  C   UNL     1       0.544   1.519  -0.741  0.00  0.00    +0.026 C 
ATOM      8  C   UNL     1       1.311   1.700   0.395  0.00  0.00    +0.100 C 
ATOM      9  C   UNL     1       2.238   0.655   0.874  0.00  0.00    +0.257 C 
ATOM     10  O   UNL     1       2.352  -0.399   0.279  0.00  0.00    -0.270 OA
ATOM     11  N   UNL     1       2.959   0.905   1.986  0.00  0.00    -0.235 N 
ATOM     12  C   UNL     1       2.838   2.060   2.655  0.00  0.00    +0.320 C 
ATOM     13  O   UNL     1       3.512   2.219   3.654  0.00  0.00    -0.251 OA
ATOM     14  N   UNL     1       2.014   3.049   2.283  0.00  0.00    -0.190 N 
ATOM     15  C   UNL     1       1.236   2.944   1.186  0.00  0.00    +0.263 C 
ATOM     16  O   UNL     1       0.491   3.849   0.859  0.00  0.00    -0.269 OA
ATOM     17  H   UNL     1       3.576   0.231   2.312  0.00  0.00    +0.159 HD
BRANCH  14  18
ATOM     18  C   UNL     1       1.960   4.222   3.051  0.00  0.00    +0.046 A 
ATOM     19  C   UNL     1       1.063   4.320   4.106  0.00  0.00    +0.027 A 
ATOM     20  C   UNL     1       1.015   5.472   4.865  0.00  0.00    +0.047 A 
ATOM     21  C   UNL     1       1.854   6.536   4.567  0.00  0.00    +0.120 A 
ATOM     22  C   UNL     1       2.747   6.440   3.510  0.00  0.00    +0.047 A 
ATOM     23  C   UNL     1       2.800   5.286   2.753  0.00  0.00    +0.027 A 
BRANCH  21  24
ATOM     24  O   UNL     1       1.802   7.672   5.312  0.00  0.00    -0.495 OA
ATOM     25  C   UNL     1       0.860   7.702   6.386  0.00  0.00    +0.277 C 
ENDBRANCH  21  24
ENDBRANCH  14  18
ENDBRANCH   3   7
BRANCH   1  26
ATOM     26  O   UNL     1      -3.498   3.444  -2.618  0.00  0.00    -0.489 OA
BRANCH  26  28
ATOM     27  C   UNL     1      -5.559   2.209  -2.879  0.00  0.00    +0.048 C 
ATOM     28  C   UNL     1      -4.104   2.167  -2.408  0.00  0.00    +0.226 C 
ENDBRANCH  26  28
ENDBRANCH   1  26
BRANCH   6  29
ATOM     29  O   UNL     1      -2.210   5.850  -2.968  0.00  0.00    -0.485 OA
BRANCH  29  30
ATOM     30  C   UNL     1      -1.482   7.070  -3.123  0.00  0.00    +0.270 C 
BRANCH  30  31
ATOM     31  C   UNL     1      -2.393   8.132  -3.743  0.00  0.00    +0.270 C 
BRANCH  31  32
ATOM     32  O   UNL     1      -3.455   8.437  -2.837  0.00  0.00    -0.489 OA
BRANCH  32  33
ATOM     33  C   UNL     1      -4.359   9.369  -3.238  0.00  0.00    +0.121 A 
ATOM     34  C   UNL     1      -4.224   9.981  -4.476  0.00  0.00    +0.046 A 
ATOM     35  C   UNL     1      -5.148  10.923  -4.884  0.00  0.00    +0.007 A 
ATOM     36  C   UNL     1      -6.200  11.265  -4.055  0.00  0.00    -0.050 A 
ATOM     37  C   UNL     1      -6.334  10.661  -2.818  0.00  0.00    +0.007 A 
ATOM     38  C   UNL     1      -5.416   9.714  -2.408  0.00  0.00    +0.046 A 
ATOM     39  C   UNL     1      -7.203  12.299  -4.500  0.00  0.00    +0.044 C 
ENDBRANCH  32  33
ENDBRANCH  31  32
ENDBRANCH  30  31
ENDBRANCH  29  30
ENDBRANCH   6  29
TORSDOF 10
