REMARK  Name = ZINC05935697
REMARK  8 active torsions:
REMARK  status: ('A' for Active; 'I' for Inactive)
REMARK    1  A    between atoms: C_1  and  C_2
REMARK    2  A    between atoms: C_5  and  C_8
REMARK    3  A    between atoms: N_10  and  C_11
REMARK    4  A    between atoms: C_11  and  C_22
REMARK    5  A    between atoms: C_12  and  C_13
REMARK    6  A    between atoms: C_16  and  N_19
REMARK    7  A    between atoms: N_24  and  C_25
REMARK    8  A    between atoms: C_25  and  C_26
REMARK                            x       y       z     vdW  Elec       q    Type
REMARK                         _______ _______ _______ _____ _____    ______ ____
ROOT
ATOM      1  C   UNL     1       2.279   0.854   0.058  0.00  0.00    +0.097 C 
ATOM      2  C   UNL     1       2.405  -0.493   0.044  0.00  0.00    +0.036 C 
ENDROOT
BRANCH   2   3
ATOM      3  C   UNL     1       3.737  -1.108   0.143  0.00  0.00    -0.023 A 
ATOM      4  C   UNL     1       4.865  -0.421  -0.318  0.00  0.00    +0.010 A 
ATOM      5  C   UNL     1       6.111  -1.003  -0.216  0.00  0.00    +0.033 A 
ATOM      6  C   UNL     1       6.246  -2.268   0.329  0.00  0.00    +0.126 A 
ATOM      7  C   UNL     1       5.134  -2.956   0.783  0.00  0.00    +0.033 A 
ATOM      8  C   UNL     1       3.882  -2.386   0.694  0.00  0.00    +0.010 A 
BRANCH   6   9
ATOM      9  N   UNL     1       7.587  -2.887   0.428  0.00  0.00    +0.056 N 
ATOM     10  O   UNL     1       7.709  -4.000   0.908  0.00  0.00    -0.126 OA
ATOM     11  O   UNL     1       8.567  -2.284   0.030  0.00  0.00    -0.126 OA
ENDBRANCH   6   9
ENDBRANCH   2   3
BRANCH   1  14
ATOM     12  C   UNL     1       3.753   2.611  -0.570  0.00  0.00    +0.248 C 
ATOM     13  O   UNL     1       3.069   2.818  -1.553  0.00  0.00    -0.270 OA
ATOM     14  N   UNL     1       3.394   1.658   0.312  0.00  0.00    -0.277 N 
ATOM     15  H   UNL     1       3.910   1.529   1.124  0.00  0.00    +0.155 HD
BRANCH  12  20
ATOM     16  C   UNL     1       8.522   5.706   0.321  0.00  0.00    +0.044 C 
ATOM     17  C   UNL     1       7.273   4.896   0.088  0.00  0.00    -0.050 A 
ATOM     18  C   UNL     1       6.559   5.053  -1.087  0.00  0.00    +0.004 A 
ATOM     19  C   UNL     1       5.415   4.314  -1.307  0.00  0.00    +0.013 A 
ATOM     20  C   UNL     1       4.978   3.406  -0.341  0.00  0.00    +0.037 A 
ATOM     21  C   UNL     1       5.700   3.256   0.844  0.00  0.00    +0.013 A 
ATOM     22  C   UNL     1       6.845   3.998   1.049  0.00  0.00    +0.004 A 
ENDBRANCH  12  20
ENDBRANCH   1  14
BRANCH   1  23
ATOM     23  C   UNL     1       0.969   1.473  -0.196  0.00  0.00    +0.259 C 
ATOM     24  O   UNL     1       0.857   2.684  -0.184  0.00  0.00    -0.269 OA
ATOM     25  N   UNL     1      -0.106   0.699  -0.442  0.00  0.00    -0.306 N 
ATOM     26  H   UNL     1      -0.016  -0.267  -0.451  0.00  0.00    +0.149 HD
BRANCH  25  27
ATOM     27  C   UNL     1      -1.409   1.315  -0.700  0.00  0.00    +0.141 C 
BRANCH  27  28
ATOM     28  C   UNL     1      -2.434   0.239  -0.950  0.00  0.00    -0.012 A 
ATOM     29  C   UNL     1      -2.667  -0.224  -2.236  0.00  0.00    +0.008 A 
ATOM     30  C   UNL     1      -3.615  -1.219  -2.417  0.00  0.00    +0.020 A 
ATOM     31  C   UNL     1      -4.299  -1.706  -1.319  0.00  0.00    +0.111 A 
ATOM     32  N   UNL     1      -4.055  -1.238  -0.111  0.00  0.00    -0.263 NA
ATOM     33  C   UNL     1      -3.157  -0.296   0.100  0.00  0.00    +0.115 A 
ENDBRANCH  27  28
ENDBRANCH  25  27
ENDBRANCH   1  23
TORSDOF 7
