REMARK  Name = ZINC13356313
REMARK  8 active torsions:
REMARK  status: ('A' for Active; 'I' for Inactive)
REMARK    1  A    between atoms: C_4  and  C_7
REMARK    2  A    between atoms: C_7  and  N_8
REMARK    3  A    between atoms: C_9  and  C_27
REMARK    4  A    between atoms: C_12  and  S_13
REMARK    5  A    between atoms: S_13  and  C_14
REMARK    6  A    between atoms: C_14  and  C_15
REMARK    7  A    between atoms: N_17  and  C_18
REMARK    8  A    between atoms: C_23  and  C_24
REMARK                            x       y       z     vdW  Elec       q    Type
REMARK                         _______ _______ _______ _____ _____    ______ ____
ROOT
ATOM      1  N   UNL     1      -2.657   0.782   1.649  0.00  0.00    -0.298 N 
ATOM      2  C   UNL     1      -2.797  -0.484   2.171  0.00  0.00    +0.165 A 
ATOM      3  N   UNL     1      -3.682  -0.407   3.138  0.00  0.00    -0.128 NA
ATOM      4  N   UNL     1      -4.105   0.801   3.249  0.00  0.00    -0.122 NA
ATOM      5  C   UNL     1      -3.512   1.571   2.363  0.00  0.00    +0.193 A 
ENDROOT
BRANCH   2   6
ATOM      6  C   UNL     1      -2.083  -1.700   1.728  0.00  0.00    +0.022 A 
ATOM      7  C   UNL     1      -1.745  -1.887   0.382  0.00  0.00    +0.031 A 
ATOM      8  C   UNL     1      -1.075  -3.034   0.014  0.00  0.00    +0.111 A 
ATOM      9  N   UNL     1      -0.761  -3.952   0.909  0.00  0.00    -0.263 NA
ATOM     10  C   UNL     1      -1.064  -3.818   2.186  0.00  0.00    +0.111 A 
ATOM     11  C   UNL     1      -1.729  -2.700   2.643  0.00  0.00    +0.031 A 
ENDBRANCH   2   6
BRANCH   1  12
ATOM     12  C   UNL     1      -1.778   1.195   0.552  0.00  0.00    +0.161 C 
BRANCH  12  16
ATOM     13  C   UNL     1       2.111   2.071   2.088  0.00  0.00    +0.000 A 
ATOM     14  C   UNL     1       1.805   0.790   1.669  0.00  0.00    +0.000 A 
ATOM     15  C   UNL     1       0.546   0.505   1.175  0.00  0.00    +0.005 A 
ATOM     16  C   UNL     1      -0.407   1.504   1.096  0.00  0.00    -0.028 A 
ATOM     17  C   UNL     1      -0.104   2.784   1.520  0.00  0.00    +0.005 A 
ATOM     18  C   UNL     1       1.156   3.068   2.014  0.00  0.00    +0.000 A 
ENDBRANCH  12  16
ENDBRANCH   1  12
BRANCH   5  19
ATOM     19  S   UNL     1      -3.772   3.299   2.139  0.00  0.00    -0.077 S 
BRANCH  19  20
ATOM     20  C   UNL     1      -5.011   3.599   3.424  0.00  0.00    +0.173 C 
BRANCH  20  21
ATOM     21  C   UNL     1      -5.396   5.056   3.419  0.00  0.00    +0.228 C 
ATOM     22  O   UNL     1      -4.884   5.816   2.625  0.00  0.00    -0.275 OA
ATOM     23  N   UNL     1      -6.311   5.514   4.297  0.00  0.00    -0.284 N 
ATOM     24  H   UNL     1      -6.663   4.925   4.982  0.00  0.00    +0.155 HD
BRANCH  23  25
ATOM     25  C   UNL     1      -6.750   6.834   4.221  0.00  0.00    +0.049 A 
ATOM     26  C   UNL     1      -6.871   7.458   2.987  0.00  0.00    +0.044 A 
ATOM     27  C   UNL     1      -7.311   8.766   2.914  0.00  0.00    +0.043 A 
ATOM     28  C   UNL     1      -7.624   9.467   4.069  0.00  0.00    +0.021 A 
ATOM     29  C   UNL     1      -7.504   8.865   5.302  0.00  0.00    +0.018 A 
ATOM     30  C   UNL     1      -7.065   7.541   5.392  0.00  0.00    +0.084 A 
ATOM     31 CL   UNL     1      -7.467   9.538   1.367  0.00  0.00    -0.083 Cl
BRANCH  30  32
ATOM     32  C   UNL     1      -6.935   6.891   6.707  0.00  0.00    +0.388 C 
ATOM     33  O   UNL     1      -6.635   5.715   6.777  0.00  0.00    -0.241 OA
ATOM     34  O   UNL     1      -7.149   7.600   7.833  0.00  0.00    -0.241 OA
ENDBRANCH  30  32
ENDBRANCH  23  25
ENDBRANCH  20  21
ENDBRANCH  19  20
ENDBRANCH   5  19
TORSDOF 8
