REMARK  Name = ZINC23243813
REMARK  4 active torsions:
REMARK  status: ('A' for Active; 'I' for Inactive)
REMARK    1  A    between atoms: C_1  and  C_2
REMARK    2  A    between atoms: C_9  and  C_11
REMARK    3  A    between atoms: N_13  and  C_14
REMARK    4  A    between atoms: C_17  and  N_20
REMARK                            x       y       z     vdW  Elec       q    Type
REMARK                         _______ _______ _______ _____ _____    ______ ____
ROOT
ATOM      1  C   UNL     1       4.831   4.246  -0.282  0.00  0.00    +0.255 C 
ATOM      2  O   UNL     1       5.970   3.863  -0.089  0.00  0.00    -0.269 OA
ATOM      3  N   UNL     1       4.600   5.530  -0.619  0.00  0.00    -0.281 N 
ATOM      4  H   UNL     1       3.580   5.859  -0.867  0.00  0.00    +0.155 HD
ENDROOT
BRANCH   1  12
ATOM      5  C   UNL     1       0.829  -2.004   1.232  0.00  0.00    +0.008 C 
ATOM      6  C   UNL     1       0.989  -0.495   1.040  0.00  0.00    -0.009 C 
ATOM      7  C   UNL     1       0.007  -0.012  -0.032  0.00  0.00    +0.009 C 
ATOM      8  C   UNL     1      -0.017   1.524  -0.023  0.00  0.00    +0.043 C 
ATOM      9  C   UNL     1       1.397   2.017  -0.024  0.00  0.00    -0.006 A 
ATOM     10  C   UNL     1       2.523   1.294   0.251  0.00  0.00    -0.036 A 
ATOM     11  C   UNL     1       3.730   1.969   0.188  0.00  0.00    +0.024 A 
ATOM     12  C   UNL     1       3.711   3.311  -0.146  0.00  0.00    +0.075 A 
ATOM     13  S   UNL     1       1.965   3.607  -0.368  0.00  0.00    -0.088 S 
ATOM     14  C   UNL     1       2.423  -0.187   0.610  0.00  0.00    +0.039 C 
ENDBRANCH   1  12
BRANCH   3  15
ATOM     15  C   UNL     1       5.657   6.445  -0.654  0.00  0.00    +0.034 A 
ATOM     16  C   UNL     1       5.446   7.767  -0.283  0.00  0.00    +0.025 A 
ATOM     17  C   UNL     1       6.494   8.666  -0.313  0.00  0.00    +0.034 A 
ATOM     18  C   UNL     1       7.748   8.255  -0.724  0.00  0.00    +0.126 A 
ATOM     19  C   UNL     1       7.960   6.942  -1.100  0.00  0.00    +0.034 A 
ATOM     20  C   UNL     1       6.918   6.036  -1.066  0.00  0.00    +0.025 A 
BRANCH  18  21
ATOM     21  N   UNL     1       8.867   9.224  -0.761  0.00  0.00    +0.056 N 
ATOM     22  O   UNL     1       9.973   8.863  -1.122  0.00  0.00    -0.126 OA
ATOM     23  O   UNL     1       8.682  10.381  -0.430  0.00  0.00    -0.126 OA
ENDBRANCH  18  21
ENDBRANCH   3  15
TORSDOF 3
