REMARK  Name = ZINC15376739
REMARK  11 active torsions:
REMARK  status: ('A' for Active; 'I' for Inactive)
REMARK    1  A    between atoms: C_1  and  C_2
REMARK    2  A    between atoms: C_2  and  C_3
REMARK    3  A    between atoms: C_2  and  O_4
REMARK    4  A    between atoms: O_4  and  C_5
REMARK    5  A    between atoms: C_8  and  S_23
REMARK    6  A    between atoms: C_10  and  N_11
REMARK    7  A    between atoms: C_12  and  C_14
REMARK    8  A    between atoms: C_14  and  N_15
REMARK    9  A    between atoms: N_15  and  C_16
REMARK   10  A    between atoms: N_15  and  C_17
REMARK   11  A    between atoms: S_23  and  N_26
REMARK                            x       y       z     vdW  Elec       q    Type
REMARK                         _______ _______ _______ _____ _____    ______ ____
ROOT
ATOM      1  C   UNL     1      -1.580  -1.661  -0.676  0.00  0.00    +0.142 A 
ATOM      2  C   UNL     1      -0.535  -2.362  -1.255  0.00  0.00    +0.049 A 
ATOM      3  C   UNL     1      -0.788  -3.526  -1.956  0.00  0.00    +0.032 A 
ATOM      4  C   UNL     1      -2.083  -3.995  -2.081  0.00  0.00    +0.107 A 
ATOM      5  C   UNL     1      -3.131  -3.301  -1.506  0.00  0.00    +0.055 A 
ATOM      6  C   UNL     1      -2.884  -2.135  -0.797  0.00  0.00    +0.077 A 
ENDROOT
BRANCH   6   7
ATOM      7  N   UNL     1      -3.945  -1.433  -0.209  0.00  0.00    -0.284 N 
ATOM      8  C   UNL     1      -5.192  -1.557  -0.704  0.00  0.00    +0.201 C 
ATOM      9  O   UNL     1      -5.381  -2.192  -1.720  0.00  0.00    -0.278 OA
ATOM     10  H   UNL     1      -3.781  -0.857   0.554  0.00  0.00    +0.155 HD
BRANCH   8  11
ATOM     11  C   UNL     1      -6.352  -0.907   0.005  0.00  0.00    +0.019 C 
BRANCH  11  12
ATOM     12  N   UNL     1      -7.594  -1.189  -0.728  0.00  0.00    +0.385 N 
ATOM     13  C   UNL     1      -7.538  -0.549  -2.050  0.00  0.00    -0.095 C 
ATOM     14  H   UNL     1      -7.699  -2.186  -0.841  0.00  0.00    -0.081 HD
BRANCH  12  15
ATOM     15  C   UNL     1      -8.738  -0.658   0.025  0.00  0.00    -0.068 C 
ATOM     16  C   UNL     1      -8.796  -1.324   1.401  0.00  0.00    -0.015 C 
ATOM     17  C   UNL     1      -9.988  -0.771   2.185  0.00  0.00    -0.002 C 
ATOM     18  C   UNL     1     -11.281  -1.064   1.421  0.00  0.00    -0.000 C 
ATOM     19  C   UNL     1     -11.223  -0.398   0.045  0.00  0.00    -0.002 C 
ATOM     20  C   UNL     1     -10.031  -0.951  -0.739  0.00  0.00    -0.015 C 
ENDBRANCH  12  15
ENDBRANCH  11  12
ENDBRANCH   8  11
ENDBRANCH   6   7
BRANCH   4  21
ATOM     21  S   UNL     1      -2.398  -5.479  -2.977  0.00  0.00    +0.061 S 
ATOM     22  O   UNL     1      -3.749  -5.412  -3.412  0.00  0.00    -0.153 OA
ATOM     23  O   UNL     1      -1.314  -5.646  -3.880  0.00  0.00    -0.153 OA
BRANCH  21  24
ATOM     24  N   UNL     1      -2.310  -6.731  -1.896  0.00  0.00    -0.172 NA
ATOM     25  C   UNL     1      -1.036  -7.418  -1.634  0.00  0.00    +0.137 C 
ATOM     26  C   UNL     1      -0.817  -7.471  -0.118  0.00  0.00    +0.177 C 
ATOM     27  O   UNL     1      -1.978  -8.026   0.506  0.00  0.00    -0.377 OA
ATOM     28  C   UNL     1      -3.166  -7.253   0.325  0.00  0.00    +0.177 C 
ATOM     29  C   UNL     1      -3.504  -7.185  -1.164  0.00  0.00    +0.137 C 
ENDBRANCH  21  24
ENDBRANCH   4  21
BRANCH   1  30
ATOM     30  O   UNL     1      -1.333  -0.515   0.014  0.00  0.00    -0.488 OA
BRANCH  30  32
ATOM     31  C   UNL     1      -0.005   1.504   0.011  0.00  0.00    +0.051 C 
ATOM     32  C   UNL     1       0.010  -0.026  -0.001  0.00  0.00    +0.167 C 
ATOM     33  C   UNL     1       0.753  -0.539   1.234  0.00  0.00    +0.051 C 
ENDBRANCH  30  32
ENDBRANCH   1  30
TORSDOF 8
