REMARK  Name = ZINC65055217
REMARK  9 active torsions:
REMARK  status: ('A' for Active; 'I' for Inactive)
REMARK    1  A    between atoms: C_1  and  C_2
REMARK    2  A    between atoms: C_5  and  N_9
REMARK    3  A    between atoms: C_10  and  C_12
REMARK    4  A    between atoms: C_13  and  C_30
REMARK    5  A    between atoms: C_16  and  S_18
REMARK    6  A    between atoms: S_18  and  N_21
REMARK    7  A    between atoms: N_21  and  C_22
REMARK    8  A    between atoms: C_25  and  O_28
REMARK    9  A    between atoms: O_28  and  C_29
REMARK                            x       y       z     vdW  Elec       q    Type
REMARK                         _______ _______ _______ _____ _____    ______ ____
ROOT
ATOM      1  C   UNL     1      -0.134  -6.305  -1.194  0.00  0.00    +0.086 C 
ATOM      2  C   UNL     1      -0.232  -7.134  -2.257  0.00  0.00    +0.072 C 
ATOM      3  N   UNL     1      -0.294  -8.421  -1.849  0.00  0.00    -0.157 NA
ATOM      4  N   UNL     1      -0.251  -8.575  -0.627  0.00  0.00    -0.154 NA
ATOM      5  C   UNL     1      -0.134  -7.246  -0.002  0.00  0.00    +0.327 C 
ATOM      6  C   UNL     1      -0.267  -6.686  -3.696  0.00  0.00    +0.068 C 
ENDROOT
BRANCH   1   8
ATOM      7  N   UNL     1       0.057  -4.171  -0.025  0.00  0.00    -0.279 N 
ATOM      8  C   UNL     1      -0.042  -4.838  -1.192  0.00  0.00    +0.250 C 
ATOM      9  O   UNL     1      -0.055  -4.227  -2.243  0.00  0.00    -0.270 OA
ATOM     10  H   UNL     1       0.150  -4.660   0.807  0.00  0.00    +0.155 HD
BRANCH   7  15
ATOM     11  C   UNL     1      -0.073   1.502   0.017  0.00  0.00    +0.044 C 
ATOM     12  C   UNL     1      -0.038  -0.005   0.007  0.00  0.00    -0.048 A 
ATOM     13  C   UNL     1      -0.628  -0.702  -1.032  0.00  0.00    +0.005 A 
ATOM     14  C   UNL     1      -0.599  -2.082  -1.045  0.00  0.00    +0.026 A 
ATOM     15  C   UNL     1       0.026  -2.772  -0.015  0.00  0.00    +0.069 A 
ATOM     16  C   UNL     1       0.620  -2.070   1.028  0.00  0.00    +0.145 A 
ATOM     17  C   UNL     1       0.591  -0.687   1.032  0.00  0.00    +0.043 A 
ATOM     18  F   UNL     1       1.229  -2.736   2.033  0.00  0.00    -0.204 F 
ENDBRANCH   7  15
ENDBRANCH   1   8
BRANCH   5  19
ATOM     19  S   UNL     1      -1.558  -6.919   1.073  0.00  0.00    +0.092 S 
ATOM     20  O   UNL     1      -1.421  -5.649   1.694  0.00  0.00    -0.151 OA
ATOM     21  O   UNL     1      -2.764  -7.275   0.410  0.00  0.00    -0.151 OA
BRANCH  19  22
ATOM     22  N   UNL     1      -1.418  -8.012   2.309  0.00  0.00    -0.100 NA
BRANCH  22  23
ATOM     23  C   UNL     1      -2.370  -8.035   3.334  0.00  0.00    +0.074 A 
ATOM     24  C   UNL     1      -3.437  -7.145   3.312  0.00  0.00    +0.030 A 
ATOM     25  C   UNL     1      -4.377  -7.169   4.323  0.00  0.00    +0.047 A 
ATOM     26  C   UNL     1      -4.256  -8.080   5.362  0.00  0.00    +0.120 A 
ATOM     27  C   UNL     1      -3.191  -8.969   5.385  0.00  0.00    +0.047 A 
ATOM     28  C   UNL     1      -2.253  -8.950   4.371  0.00  0.00    +0.030 A 
BRANCH  26  29
ATOM     29  O   UNL     1      -5.182  -8.103   6.357  0.00  0.00    -0.495 OA
ATOM     30  C   UNL     1      -4.995  -9.068   7.395  0.00  0.00    +0.277 C 
ENDBRANCH  26  29
ENDBRANCH  22  23
ENDBRANCH  19  22
ENDBRANCH   5  19
TORSDOF 6
