REMARK  Name = ZINC21172279
REMARK  8 active torsions:
REMARK  status: ('A' for Active; 'I' for Inactive)
REMARK    1  A    between atoms: C_1  and  C_2
REMARK    2  A    between atoms: C_2  and  C_4
REMARK    3  A    between atoms: C_2  and  N_14
REMARK    4  A    between atoms: C_15  and  C_17
REMARK    5  A    between atoms: C_17  and  O_18
REMARK    6  A    between atoms: O_18  and  C_19
REMARK    7  A    between atoms: C_19  and  C_21
REMARK    8  A    between atoms: C_25  and  N_27
REMARK                            x       y       z     vdW  Elec       q    Type
REMARK                         _______ _______ _______ _____ _____    ______ ____
ROOT
ATOM      1  N   UNL     1      -4.647  -0.149   0.915  0.00  0.00    -0.306 N 
ATOM      2  C   UNL     1      -5.643  -0.864   1.476  0.00  0.00    +0.251 C 
ATOM      3  O   UNL     1      -5.749  -2.048   1.237  0.00  0.00    -0.272 OA
ATOM      4  H   UNL     1      -4.552   0.925   1.132  0.00  0.00    +0.149 HD
ENDROOT
BRANCH   1   6
ATOM      5  C   UNL     1      -4.266  -0.838  -1.400  0.00  0.00    +0.033 C 
ATOM      6  C   UNL     1      -3.692  -0.803   0.018  0.00  0.00    +0.100 C 
BRANCH   6   7
ATOM      7  C   UNL     1      -2.397  -0.033   0.016  0.00  0.00    -0.024 A 
ATOM      8  C   UNL     1      -2.415   1.349   0.025  0.00  0.00    +0.009 A 
ATOM      9  C   UNL     1      -1.229   2.059   0.019  0.00  0.00    +0.050 A 
ATOM     10  C   UNL     1      -0.017   1.385   0.010  0.00  0.00    +0.162 A 
ATOM     11  C   UNL     1       0.002  -0.004   0.002  0.00  0.00    +0.162 A 
ATOM     12  C   UNL     1      -1.192  -0.710   0.004  0.00  0.00    +0.055 A 
ATOM     13  O   UNL     1       1.181  -0.685  -0.007  0.00  0.00    -0.485 OA
ATOM     14  C   UNL     1       2.347   0.053  -0.387  0.00  0.00    +0.270 C 
ATOM     15  C   UNL     1       2.334   1.392   0.364  0.00  0.00    +0.270 C 
ATOM     16  O   UNL     1       1.143   2.098   0.002  0.00  0.00    -0.485 OA
ENDBRANCH   6   7
ENDBRANCH   1   6
BRANCH   2  17
ATOM     17  C   UNL     1      -6.626  -0.191   2.399  0.00  0.00    +0.328 C 
BRANCH  17  18
ATOM     18  O   UNL     1      -7.594  -1.166   2.869  0.00  0.00    -0.452 OA
BRANCH  18  19
ATOM     19  C   UNL     1      -8.549  -0.724   3.709  0.00  0.00    +0.340 C 
ATOM     20  O   UNL     1      -8.572   0.445   4.041  0.00  0.00    -0.245 OA
BRANCH  19  21
ATOM     21  C   UNL     1      -9.568  -1.659   4.228  0.00  0.00    +0.061 A 
ATOM     22  C   UNL     1      -9.547  -3.001   3.843  0.00  0.00    +0.016 A 
ATOM     23  C   UNL     1     -10.496  -3.874   4.332  0.00  0.00    +0.022 A 
ATOM     24  C   UNL     1     -11.478  -3.422   5.196  0.00  0.00    +0.062 A 
ATOM     25  C   UNL     1     -11.511  -2.086   5.581  0.00  0.00    +0.044 A 
ATOM     26  C   UNL     1     -10.559  -1.203   5.099  0.00  0.00    +0.039 A 
ATOM     27 CL   UNL     1     -12.672  -4.527   5.802  0.00  0.00    -0.082 Cl
BRANCH  25  28
ATOM     28  N   UNL     1     -12.505  -1.634   6.454  0.00  0.00    -0.357 N 
ATOM     29  H   UNL     1     -12.531  -0.577   6.758  0.00  0.00    +0.142 HD
ATOM     30  H   UNL     1     -13.261  -2.336   6.837  0.00  0.00    +0.142 HD
ENDBRANCH  25  28
ENDBRANCH  19  21
ENDBRANCH  18  19
ENDBRANCH  17  18
ENDBRANCH   2  17
TORSDOF 7
