REMARK  Name = ZINC15236064
REMARK  13 active torsions:
REMARK  status: ('A' for Active; 'I' for Inactive)
REMARK    1  A    between atoms: C_1  and  O_2
REMARK    2  A    between atoms: O_2  and  C_3
REMARK    3  A    between atoms: C_6  and  C_9
REMARK    4  A    between atoms: C_9  and  C_30
REMARK    5  A    between atoms: N_12  and  C_16
REMARK    6  A    between atoms: C_16  and  C_17
REMARK    7  A    between atoms: C_17  and  C_19
REMARK    8  A    between atoms: C_17  and  O_29
REMARK    9  A    between atoms: C_19  and  O_20
REMARK   10  A    between atoms: O_20  and  C_21
REMARK   11  A    between atoms: C_24  and  C_27
REMARK   12  A    between atoms: C_33  and  O_36
REMARK   13  A    between atoms: O_36  and  C_37
REMARK                            x       y       z     vdW  Elec       q    Type
REMARK                         _______ _______ _______ _____ _____    ______ ____
ROOT
ATOM      1  C   UNL     1      -5.897   6.958   0.574  0.00  0.00    +0.164 C 
ATOM      2  C   UNL     1      -5.015   5.872   1.158  0.00  0.00    +0.256 C 
ATOM      3  O   UNL     1      -5.097   5.377   2.261  0.00  0.00    -0.272 OA
ATOM      4  N   UNL     1      -4.121   5.571   0.195  0.00  0.00    -0.221 N 
ATOM      5  C   UNL     1      -4.310   6.312  -0.903  0.00  0.00    +0.310 C 
ATOM      6  O   UNL     1      -3.625   6.225  -1.903  0.00  0.00    -0.252 OA
ATOM      7  N   UNL     1      -5.345   7.162  -0.777  0.00  0.00    -0.278 N 
ATOM      8  H   UNL     1      -5.664   7.790  -1.444  0.00  0.00    +0.152 HD
ENDROOT
BRANCH   1  12
ATOM      9  C   UNL     1      -9.957   5.644   0.356  0.00  0.00    +0.120 A 
ATOM     10  C   UNL     1      -9.237   5.481   1.530  0.00  0.00    +0.046 A 
ATOM     11  C   UNL     1      -7.924   5.907   1.598  0.00  0.00    +0.010 A 
ATOM     12  C   UNL     1      -7.329   6.494   0.497  0.00  0.00    -0.011 A 
ATOM     13  C   UNL     1      -8.047   6.663  -0.673  0.00  0.00    +0.010 A 
ATOM     14  C   UNL     1      -9.358   6.234  -0.748  0.00  0.00    +0.046 A 
BRANCH   9  16
ATOM     15  C   UNL     1     -11.930   5.426  -0.954  0.00  0.00    +0.277 C 
ATOM     16  O   UNL     1     -11.249   5.227   0.287  0.00  0.00    -0.495 OA
ENDBRANCH   9  16
ENDBRANCH   1  12
BRANCH   1  17
ATOM     17  C   UNL     1      -5.790   8.222   1.387  0.00  0.00    -0.011 A 
ATOM     18  C   UNL     1      -5.973   8.178   2.757  0.00  0.00    +0.010 A 
ATOM     19  C   UNL     1      -5.870   9.335   3.506  0.00  0.00    +0.046 A 
ATOM     20  C   UNL     1      -5.595  10.542   2.881  0.00  0.00    +0.120 A 
ATOM     21  C   UNL     1      -5.418  10.584   1.505  0.00  0.00    +0.046 A 
ATOM     22  C   UNL     1      -5.516   9.424   0.762  0.00  0.00    +0.010 A 
BRANCH  20  23
ATOM     23  O   UNL     1      -5.499  11.682   3.614  0.00  0.00    -0.495 OA
ATOM     24  C   UNL     1      -5.693  11.564   5.025  0.00  0.00    +0.277 C 
ENDBRANCH  20  23
ENDBRANCH   1  17
BRANCH   4  25
ATOM     25  C   UNL     1      -3.068   4.562   0.336  0.00  0.00    +0.152 C 
BRANCH  25  26
ATOM     26  C   UNL     1      -3.597   3.205  -0.133  0.00  0.00    +0.170 C 
BRANCH  26  27
ATOM     27  O   UNL     1      -4.724   2.832   0.663  0.00  0.00    -0.387 OA
ATOM     28  H   UNL     1      -4.529   2.752   1.607  0.00  0.00    +0.210 HD
ENDBRANCH  26  27
BRANCH  26  29
ATOM     29  C   UNL     1      -2.498   2.151   0.014  0.00  0.00    +0.261 C 
BRANCH  29  30
ATOM     30  O   UNL     1      -2.951   0.910  -0.531  0.00  0.00    -0.489 OA
BRANCH  30  31
ATOM     31  C   UNL     1      -2.089  -0.137  -0.480  0.00  0.00    +0.121 A 
ATOM     32  C   UNL     1      -0.828   0.030   0.079  0.00  0.00    +0.047 A 
ATOM     33  C   UNL     1       0.052  -1.028   0.128  0.00  0.00    +0.022 A 
ATOM     34  C   UNL     1      -0.325  -2.272  -0.386  0.00  0.00    +0.052 A 
ATOM     35  C   UNL     1      -1.595  -2.436  -0.948  0.00  0.00    +0.022 A 
ATOM     36  C   UNL     1      -2.468  -1.372  -0.993  0.00  0.00    +0.047 A 
BRANCH  34  37
ATOM     37  C   UNL     1       0.586  -3.376  -0.336  0.00  0.00    +0.099 C 
ATOM     38  N   UNL     1       1.309  -4.251  -0.297  0.00  0.00    -0.191 NA
ENDBRANCH  34  37
ENDBRANCH  30  31
ENDBRANCH  29  30
ENDBRANCH  26  29
ENDBRANCH  25  26
ENDBRANCH   4  25
TORSDOF 11
