REMARK  Name = ZINC13098490
REMARK  9 active torsions:
REMARK  status: ('A' for Active; 'I' for Inactive)
REMARK    1  A    between atoms: C_4  and  O_7
REMARK    2  A    between atoms: O_7  and  C_8
REMARK    3  A    between atoms: C_8  and  C_9
REMARK    4  A    between atoms: C_9  and  O_10
REMARK    5  A    between atoms: O_10  and  C_11
REMARK    6  A    between atoms: C_16  and  C_17
REMARK    7  A    between atoms: N_19  and  N_20
REMARK    8  A    between atoms: C_21  and  C_23
REMARK    9  A    between atoms: C_24  and  C_25
REMARK                            x       y       z     vdW  Elec       q    Type
REMARK                         _______ _______ _______ _____ _____    ______ ____
ROOT
ATOM      1  C   UNL     1       3.350   9.877  -7.221  0.00  0.00    +0.264 C 
ATOM      2  O   UNL     1       3.660   8.913  -7.894  0.00  0.00    -0.269 OA
ATOM      3  N   UNL     1       2.683   9.704  -6.063  0.00  0.00    -0.230 N 
ATOM      4  H   UNL     1       2.436  10.473  -5.526  0.00  0.00    +0.173 HD
ENDROOT
BRANCH   1  10
ATOM      5  C   UNL     1       4.399  11.421  -8.875  0.00  0.00    +0.133 A 
ATOM      6  C   UNL     1       4.728  12.703  -9.289  0.00  0.00    +0.046 A 
ATOM      7  C   UNL     1       4.372  13.792  -8.518  0.00  0.00    +0.004 A 
ATOM      8  C   UNL     1       3.685  13.613  -7.328  0.00  0.00    +0.001 A 
ATOM      9  C   UNL     1       3.346  12.347  -6.904  0.00  0.00    +0.017 A 
ATOM     10  C   UNL     1       3.705  11.236  -7.671  0.00  0.00    +0.080 A 
BRANCH   5  11
ATOM     11  O   UNL     1       4.748  10.351  -9.632  0.00  0.00    -0.488 OA
BRANCH  11  12
ATOM     12  C   UNL     1       5.454  10.616 -10.845  0.00  0.00    +0.270 C 
BRANCH  12  13
ATOM     13  C   UNL     1       5.759   9.297 -11.557  0.00  0.00    +0.270 C 
BRANCH  13  14
ATOM     14  O   UNL     1       4.535   8.678 -11.959  0.00  0.00    -0.489 OA
BRANCH  14  18
ATOM     15  C   UNL     1       4.821   5.068 -13.935  0.00  0.00    +0.000 A 
ATOM     16  C   UNL     1       3.579   5.625 -13.691  0.00  0.00    +0.004 A 
ATOM     17  C   UNL     1       3.481   6.833 -13.029  0.00  0.00    +0.045 A 
ATOM     18  C   UNL     1       4.629   7.489 -12.610  0.00  0.00    +0.121 A 
ATOM     19  C   UNL     1       5.874   6.932 -12.862  0.00  0.00    +0.045 A 
ATOM     20  C   UNL     1       5.967   5.720 -13.518  0.00  0.00    +0.004 A 
ENDBRANCH  14  18
ENDBRANCH  13  14
ENDBRANCH  12  13
ENDBRANCH  11  12
ENDBRANCH   5  11
ENDBRANCH   1  10
BRANCH   3  21
ATOM     21  N   UNL     1       2.345   8.413  -5.635  0.00  0.00    -0.231 N 
ATOM     22  C   UNL     1       1.678   8.240  -4.477  0.00  0.00    +0.253 C 
ATOM     23  O   UNL     1       1.368   9.204  -3.803  0.00  0.00    -0.269 OA
ATOM     24  H   UNL     1       2.592   7.644  -6.172  0.00  0.00    +0.173 HD
BRANCH  22  25
ATOM     25  C   UNL     1       1.326   6.892  -4.031  0.00  0.00    +0.069 C 
ATOM     26  C   UNL     1       0.657   6.719  -2.871  0.00  0.00    +0.013 C 
BRANCH  26  27
ATOM     27  C   UNL     1       0.304   5.364  -2.422  0.00  0.00    -0.020 A 
ATOM     28  C   UNL     1      -0.390   5.182  -1.219  0.00  0.00    +0.057 A 
ATOM     29  C   UNL     1      -0.717   3.907  -0.806  0.00  0.00    +0.164 A 
ATOM     30  C   UNL     1      -0.361   2.807  -1.580  0.00  0.00    +0.180 A 
ATOM     31  C   UNL     1       0.327   2.983  -2.773  0.00  0.00    +0.087 A 
ATOM     32  C   UNL     1       0.659   4.254  -3.196  0.00  0.00    +0.031 A 
ATOM     33 CL   UNL     1       0.769   1.605  -3.733  0.00  0.00    -0.080 Cl
ATOM     34  O   UNL     1      -0.692   1.553  -1.159  0.00  0.00    -0.487 OA
ATOM     35  C   UNL     1      -0.013   1.086   0.008  0.00  0.00    +0.232 C 
ATOM     36  C   UNL     1      -0.712   1.570   1.269  0.00  0.00    +0.082 C 
ATOM     37  C   UNL     1      -0.661   3.083   1.414  0.00  0.00    +0.232 C 
ATOM     38  O   UNL     1      -1.394   3.716   0.364  0.00  0.00    -0.488 OA
ENDBRANCH  26  27
ENDBRANCH  22  25
ENDBRANCH   3  21
TORSDOF 9
