REMARK  Name = ZINC09041849
REMARK  10 active torsions:
REMARK  status: ('A' for Active; 'I' for Inactive)
REMARK    1  A    between atoms: C_1  and  C_2
REMARK    2  A    between atoms: C_5  and  N_9
REMARK    3  A    between atoms: C_6  and  C_8
REMARK    4  A    between atoms: C_10  and  C_12
REMARK    5  A    between atoms: C_12  and  C_14
REMARK    6  A    between atoms: C_12  and  N_15
REMARK    7  A    between atoms: C_26  and  C_30
REMARK    8  A    between atoms: C_30  and  C_31
REMARK    9  A    between atoms: C_30  and  C_32
REMARK   10  A    between atoms: C_30  and  C_33
REMARK                            x       y       z     vdW  Elec       q    Type
REMARK                         _______ _______ _______ _____ _____    ______ ____
ROOT
ATOM      1  N   UNL     1       3.310  -1.115  -7.257  0.00  0.00    -0.199 N 
ATOM      2  C   UNL     1       2.370  -0.998  -6.289  0.00  0.00    +0.279 A 
ATOM      3  O   UNL     1       1.183  -1.164  -6.513  0.00  0.00    -0.265 OA
ATOM      4  C   UNL     1       2.863  -0.663  -4.981  0.00  0.00    +0.079 A 
ATOM      5  C   UNL     1       2.070  -0.480  -3.780  0.00  0.00    -0.023 A 
ATOM      6  C   UNL     1       2.745  -0.165  -2.648  0.00  0.00    -0.004 A 
ATOM      7  S   UNL     1       4.453  -0.101  -3.130  0.00  0.00    -0.071 S 
ATOM      8  C   UNL     1       4.258  -0.494  -4.840  0.00  0.00    +0.138 A 
ATOM      9  N   UNL     1       5.131  -0.624  -5.832  0.00  0.00    -0.123 NA
ATOM     10  N   UNL     1       4.670  -0.926  -7.007  0.00  0.00    -0.061 NA
ATOM     11  C   UNL     1       2.170   0.075  -1.286  0.00  0.00    +0.046 C 
ATOM     12  C   UNL     1       0.728  -0.451  -1.268  0.00  0.00    -0.000 C 
ATOM     13  C   UNL     1      -0.000   0.063  -2.514  0.00  0.00    +0.009 C 
ATOM     14  C   UNL     1       0.551  -0.627  -3.761  0.00  0.00    +0.037 C 
ENDROOT
BRANCH  12  15
ATOM     15  C   UNL     1       0.014   0.051  -0.012  0.00  0.00    -0.035 C 
ATOM     16  C   UNL     1       0.005   1.581  -0.008  0.00  0.00    +0.011 C 
ATOM     17  C   UNL     1       0.749  -0.457   1.230  0.00  0.00    +0.011 C 
ATOM     18  C   UNL     1      -1.425  -0.467  -0.001  0.00  0.00    +0.011 C 
ENDBRANCH  12  15
BRANCH   1  19
ATOM     19  C   UNL     1       2.884  -1.454  -8.617  0.00  0.00    +0.195 C 
ATOM     20  C   UNL     1       3.301  -0.337  -9.575  0.00  0.00    +0.043 C 
BRANCH  19  22
ATOM     21  N   UNL     1       3.284  -3.257 -10.262  0.00  0.00    -0.284 N 
ATOM     22  C   UNL     1       3.532  -2.747  -9.040  0.00  0.00    +0.242 C 
ATOM     23  O   UNL     1       4.277  -3.328  -8.280  0.00  0.00    -0.273 OA
ATOM     24  H   UNL     1       2.628  -2.836 -10.839  0.00  0.00    +0.155 HD
BRANCH  21  29
ATOM     25  C   UNL     1       6.080  -7.865 -12.033  0.00  0.00    +0.044 C 
ATOM     26  C   UNL     1       5.337  -6.641 -11.563  0.00  0.00    -0.050 A 
ATOM     27  C   UNL     1       5.897  -5.822 -10.599  0.00  0.00    +0.005 A 
ATOM     28  C   UNL     1       5.220  -4.700 -10.166  0.00  0.00    +0.024 A 
ATOM     29  C   UNL     1       3.974  -4.394 -10.699  0.00  0.00    +0.036 A 
ATOM     30  C   UNL     1       3.412  -5.221 -11.662  0.00  0.00    -0.029 A 
ATOM     31  C   UNL     1       4.097  -6.339 -12.095  0.00  0.00    +0.008 A 
ATOM     32  C   UNL     1       2.058  -4.896 -12.238  0.00  0.00    +0.045 C 
ENDBRANCH  21  29
ENDBRANCH  19  22
ENDBRANCH   1  19
TORSDOF 4
