REMARK  Name = ZINC35935813
REMARK  8 active torsions:
REMARK  status: ('A' for Active; 'I' for Inactive)
REMARK    1  A    between atoms: C_1  and  C_2
REMARK    2  A    between atoms: C_2  and  C_3
REMARK    3  A    between atoms: C_3  and  C_4
REMARK    4  A    between atoms: C_5  and  N_19
REMARK    5  A    between atoms: C_6  and  C_10
REMARK    6  A    between atoms: N_22  and  C_23
REMARK    7  A    between atoms: C_23  and  C_24
REMARK    8  A    between atoms: C_23  and  C_25
REMARK                            x       y       z     vdW  Elec       q    Type
REMARK                         _______ _______ _______ _____ _____    ______ ____
ROOT
ATOM      1  C   UNL     1      -2.647  -2.377   0.117  0.00  0.00    +0.058 A 
ATOM      2  C   UNL     1      -1.767  -2.982   0.951  0.00  0.00    +0.083 A 
ATOM      3  C   UNL     1      -1.091  -3.980   0.215  0.00  0.00    +0.114 A 
ATOM      4  N   UNL     1      -1.557  -3.965  -1.015  0.00  0.00    -0.172 NA
ATOM      5  N   UNL     1      -2.540  -2.971  -1.101  0.00  0.00    -0.279 N 
ATOM      6  H   UNL     1      -3.054  -2.744  -1.892  0.00  0.00    +0.189 HD
ENDROOT
BRANCH   3   7
ATOM      7  C   UNL     1      -0.039  -4.886   0.738  0.00  0.00    +0.008 A 
ATOM      8  C   UNL     1       0.940  -4.395   1.600  0.00  0.00    +0.014 A 
ATOM      9  C   UNL     1       1.918  -5.238   2.086  0.00  0.00    +0.050 A 
ATOM     10  C   UNL     1       1.932  -6.575   1.718  0.00  0.00    +0.166 A 
ATOM     11  C   UNL     1       0.955  -7.071   0.856  0.00  0.00    +0.167 A 
ATOM     12  C   UNL     1      -0.031  -6.230   0.372  0.00  0.00    +0.059 A 
ATOM     13  O   UNL     1       1.188  -8.401   0.653  0.00  0.00    -0.453 OA
ATOM     14  C   UNL     1       2.548  -8.622   1.070  0.00  0.00    +0.466 C 
ATOM     15  O   UNL     1       2.775  -7.595   2.054  0.00  0.00    -0.453 OA
ENDBRANCH   3   7
BRANCH   2  16
ATOM     16  N   UNL     1      -1.562  -2.671   2.308  0.00  0.00    -0.266 N 
ATOM     17  C   UNL     1      -1.403  -1.388   2.689  0.00  0.00    +0.304 C 
ATOM     18  O   UNL     1      -1.518  -0.493   1.873  0.00  0.00    -0.252 OA
ATOM     19  N   UNL     1      -1.115  -1.097   3.973  0.00  0.00    -0.297 N 
ATOM     20  H   UNL     1      -1.536  -3.380   2.970  0.00  0.00    +0.156 HD
ATOM     21  H   UNL     1      -0.952  -1.812   4.608  0.00  0.00    +0.151 HD
BRANCH  19  22
ATOM     22  C   UNL     1      -1.048   0.300   4.410  0.00  0.00    +0.068 C 
ATOM     23  C   UNL     1      -2.462   0.818   4.682  0.00  0.00    +0.027 C 
ATOM     24  C   UNL     1      -0.215   0.395   5.690  0.00  0.00    +0.027 C 
ENDBRANCH  19  22
ENDBRANCH   2  16
BRANCH   1  25
ATOM     25  C   UNL     1      -3.582  -1.252   0.477  0.00  0.00    +0.056 C 
BRANCH  25  27
ATOM     26  C   UNL     1      -4.441   0.989  -0.219  0.00  0.00    +0.004 C 
ATOM     27  C   UNL     1      -3.475  -0.144  -0.573  0.00  0.00    +0.003 C 
ENDBRANCH  25  27
ENDBRANCH   1  25
TORSDOF 5
