REMARK  Name = ZINC39922736
REMARK  6 active torsions:
REMARK  status: ('A' for Active; 'I' for Inactive)
REMARK    1  A    between atoms: C_1  and  C_2
REMARK    2  A    between atoms: C_2  and  C_25
REMARK    3  A    between atoms: N_3  and  N_4
REMARK    4  A    between atoms: C_5  and  C_7
REMARK    5  A    between atoms: C_10  and  C_13
REMARK    6  A    between atoms: C_28  and  N_31
REMARK                            x       y       z     vdW  Elec       q    Type
REMARK                         _______ _______ _______ _____ _____    ______ ____
ROOT
ATOM      1  C   UNL     1       0.042   0.093   4.806  0.00  0.00    +0.240 C 
ATOM      2  C   UNL     1      -1.371   0.496   5.186  0.00  0.00    +0.041 C 
ATOM      3  C   UNL     1      -1.579  -0.127   6.364  0.00  0.00    +0.092 C 
ATOM      4  N   UNL     1      -0.478  -0.840   6.724  0.00  0.00    -0.153 NA
ATOM      5  N   UNL     1       0.461  -0.771   5.923  0.00  0.00    -0.170 NA
ENDROOT
BRANCH   3   6
ATOM      6  C   UNL     1      -2.829  -0.046   7.155  0.00  0.00    +0.010 A 
ATOM      7  C   UNL     1      -3.856   0.805   6.773  0.00  0.00    +0.011 A 
ATOM      8  C   UNL     1      -5.043   0.901   7.497  0.00  0.00    +0.005 A 
ATOM      9  C   UNL     1      -5.233   0.150   8.619  0.00  0.00    -0.039 A 
ATOM     10  C   UNL     1      -4.214  -0.710   9.018  0.00  0.00    -0.011 A 
ATOM     11  C   UNL     1      -3.006  -0.840   8.312  0.00  0.00    -0.008 A 
ATOM     12  C   UNL     1      -2.052  -1.743   8.802  0.00  0.00    +0.009 A 
ATOM     13  C   UNL     1      -2.339  -2.455   9.932  0.00  0.00    +0.001 A 
ATOM     14  C   UNL     1      -3.548  -2.315  10.615  0.00  0.00    +0.004 A 
ATOM     15  C   UNL     1      -4.491  -1.438  10.171  0.00  0.00    -0.039 A 
ATOM     16  C   UNL     1      -5.870  -1.040  10.637  0.00  0.00    +0.040 C 
ATOM     17  C   UNL     1      -6.360   0.007   9.614  0.00  0.00    +0.040 C 
ENDBRANCH   3   6
BRANCH   1  19
ATOM     18  N   UNL     1       0.018  -0.013   2.335  0.00  0.00    -0.205 N 
ATOM     19  C   UNL     1       0.046  -0.674   3.509  0.00  0.00    +0.263 C 
ATOM     20  O   UNL     1       0.075  -1.887   3.522  0.00  0.00    -0.271 OA
ATOM     21  H   UNL     1      -0.005   0.957   2.325  0.00  0.00    +0.177 HD
BRANCH  18  24
ATOM     22  C   UNL     1      -0.041   1.417  -0.016  0.00  0.00    +0.068 C 
ATOM     23  C   UNL     1      -0.005  -0.089  -0.001  0.00  0.00    +0.063 C 
ATOM     24  N   UNL     1       0.022  -0.726   1.129  0.00  0.00    -0.184 NA
BRANCH  23  25
ATOM     25  C   UNL     1      -0.001  -0.840  -1.270  0.00  0.00    -0.002 A 
ATOM     26  C   UNL     1      -0.025  -0.158  -2.489  0.00  0.00    +0.012 A 
ATOM     27  C   UNL     1      -0.020  -0.866  -3.672  0.00  0.00    +0.033 A 
ATOM     28  C   UNL     1       0.006  -2.249  -3.654  0.00  0.00    +0.126 A 
ATOM     29  C   UNL     1       0.030  -2.932  -2.451  0.00  0.00    +0.033 A 
ATOM     30  C   UNL     1       0.032  -2.236  -1.260  0.00  0.00    +0.012 A 
BRANCH  28  31
ATOM     31  N   UNL     1       0.010  -3.003  -4.928  0.00  0.00    +0.056 N 
ATOM     32  O   UNL     1      -0.011  -2.410  -5.982  0.00  0.00    -0.126 OA
ATOM     33  O   UNL     1       0.034  -4.212  -4.916  0.00  0.00    -0.126 OA
ENDBRANCH  28  31
ENDBRANCH  23  25
ENDBRANCH  18  24
ENDBRANCH   1  19
TORSDOF 5
