REMARK  Name = ZINC09874938
REMARK  7 active torsions:
REMARK  status: ('A' for Active; 'I' for Inactive)
REMARK    1  A    between atoms: C_4  and  S_26
REMARK    2  A    between atoms: C_5  and  N_7
REMARK    3  A    between atoms: C_8  and  C_10
REMARK    4  A    between atoms: C_10  and  N_11
REMARK    5  A    between atoms: C_18  and  C_21
REMARK    6  A    between atoms: S_26  and  C_27
REMARK    7  A    between atoms: C_27  and  C_28
REMARK                            x       y       z     vdW  Elec       q    Type
REMARK                         _______ _______ _______ _____ _____    ______ ____
ROOT
ATOM      1  N   UNL     1       5.312   2.731  -1.706  0.00  0.00    -0.283 N 
ATOM      2  C   UNL     1       4.121   2.153  -1.450  0.00  0.00    +0.237 C 
ATOM      3  O   UNL     1       3.406   1.808  -2.367  0.00  0.00    -0.274 OA
ATOM      4  H   UNL     1       5.855   3.066  -0.975  0.00  0.00    +0.155 HD
ENDROOT
BRANCH   1   9
ATOM      5  C   UNL     1       5.311   3.194  -5.356  0.00  0.00    +0.002 A 
ATOM      6  C   UNL     1       6.659   3.081  -5.640  0.00  0.00    +0.001 A 
ATOM      7  C   UNL     1       7.567   2.851  -4.623  0.00  0.00    +0.016 A 
ATOM      8  C   UNL     1       7.125   2.734  -3.313  0.00  0.00    +0.030 A 
ATOM      9  C   UNL     1       5.765   2.849  -3.027  0.00  0.00    +0.047 A 
ATOM     10  C   UNL     1       4.861   3.074  -4.054  0.00  0.00    +0.024 A 
BRANCH   8  11
ATOM     11  S   UNL     1       8.280   2.441  -2.014  0.00  0.00    -0.114 S 
BRANCH  11  12
ATOM     12  C   UNL     1       9.883   2.370  -2.860  0.00  0.00    +0.169 C 
BRANCH  12  13
ATOM     13  C   UNL     1      10.973   2.121  -1.849  0.00  0.00    +0.221 C 
ATOM     14  O   UNL     1      10.696   2.002  -0.675  0.00  0.00    -0.275 OA
ATOM     15  N   UNL     1      12.256   2.029  -2.252  0.00  0.00    -0.329 N 
ATOM     16  H   UNL     1      12.478   2.124  -3.191  0.00  0.00    +0.145 HD
ATOM     17  H   UNL     1      12.958   1.869  -1.601  0.00  0.00    +0.145 HD
ENDBRANCH  12  13
ENDBRANCH  11  12
ENDBRANCH   8  11
ENDBRANCH   1   9
BRANCH   2  18
ATOM     18  C   UNL     1       3.679   1.935  -0.026  0.00  0.00    +0.222 C 
BRANCH  18  19
ATOM     19  N   UNL     1       2.361   1.296  -0.016  0.00  0.00    -0.290 N 
ATOM     20  C   UNL     1       2.279  -0.060  -0.014  0.00  0.00    +0.203 A 
ATOM     21  N   UNL     1       1.123  -0.666  -0.006  0.00  0.00    -0.230 NA
ATOM     22  C   UNL     1      -0.014   0.026   0.001  0.00  0.00    +0.116 A 
ATOM     23  C   UNL     1      -0.028   1.431  -0.001  0.00  0.00    +0.080 A 
ATOM     24  C   UNL     1       1.256   2.063  -0.009  0.00  0.00    +0.263 A 
ATOM     25  O   UNL     1       1.346   3.279  -0.011  0.00  0.00    -0.267 OA
ATOM     26  C   UNL     1      -1.355   2.036   0.013  0.00  0.00    +0.010 A 
ATOM     27  C   UNL     1      -2.441   1.223   0.015  0.00  0.00    +0.057 A 
ATOM     28  S   UNL     1      -1.733  -0.413   0.012  0.00  0.00    -0.076 S 
BRANCH  26  29
ATOM     29  C   UNL     1      -1.513   3.505   0.014  0.00  0.00    +0.021 A 
ATOM     30  C   UNL     1      -2.289   4.290  -0.797  0.00  0.00    +0.016 A 
ATOM     31  C   UNL     1      -2.278   5.655  -0.605  0.00  0.00    +0.008 A 
ATOM     32  C   UNL     1      -1.494   6.179   0.371  0.00  0.00    +0.046 A 
ATOM     33  S   UNL     1      -0.736   4.720   1.067  0.00  0.00    -0.097 S 
ENDBRANCH  26  29
ENDBRANCH  18  19
ENDBRANCH   2  18
TORSDOF 7
