REMARK  Name = ZINC32820673
REMARK  9 active torsions:
REMARK  status: ('A' for Active; 'I' for Inactive)
REMARK    1  A    between atoms: C_1  and  C_2
REMARK    2  A    between atoms: C_2  and  C_25
REMARK    3  A    between atoms: N_5  and  N_9
REMARK    4  A    between atoms: C_10  and  C_12
REMARK    5  A    between atoms: C_12  and  C_13
REMARK    6  A    between atoms: C_13  and  N_14
REMARK    7  A    between atoms: C_18  and  C_20
REMARK    8  A    between atoms: C_25  and  C_26
REMARK    9  A    between atoms: C_26  and  C_27
REMARK                            x       y       z     vdW  Elec       q    Type
REMARK                         _______ _______ _______ _____ _____    ______ ____
ROOT
ATOM      1  C   UNL     1      -0.013   1.086   0.008  0.00  0.00    +0.041 C 
ATOM      2  C   UNL     1      -0.729   1.579   1.267  0.00  0.00    +0.112 C 
ATOM      3  C   UNL     1      -0.654   3.090   1.365  0.00  0.00    +0.263 C 
ATOM      4  O   UNL     1      -1.103   3.898   0.580  0.00  0.00    -0.271 OA
ATOM      5  N   UNL     1       0.015   3.349   2.506  0.00  0.00    -0.137 N 
ATOM      6  C   UNL     1       0.371   2.223   3.135  0.00  0.00    +0.326 C 
ATOM      7  O   UNL     1       0.984   2.200   4.184  0.00  0.00    -0.251 OA
ATOM      8  N   UNL     1      -0.026   1.119   2.477  0.00  0.00    -0.284 N 
ATOM      9  H   UNL     1       0.078   0.042   2.676  0.00  0.00    +0.151 HD
ENDROOT
BRANCH   5  10
ATOM     10  N   UNL     1       0.303   4.637   2.975  0.00  0.00    -0.224 N 
ATOM     11  C   UNL     1       1.554   5.128   2.872  0.00  0.00    +0.231 C 
ATOM     12  O   UNL     1       2.431   4.454   2.373  0.00  0.00    -0.274 OA
ATOM     13  H   UNL     1      -0.492   5.248   3.427  0.00  0.00    +0.174 HD
BRANCH  11  14
ATOM     14  C   UNL     1       1.864   6.514   3.376  0.00  0.00    +0.121 C 
BRANCH  14  15
ATOM     15  C   UNL     1       3.343   6.823   3.141  0.00  0.00    +0.160 C 
BRANCH  15  16
ATOM     16  N   UNL     1       3.644   8.171   3.631  0.00  0.00    -0.194 N 
ATOM     17  C   UNL     1       4.050   8.501   4.876  0.00  0.00    +0.438 A 
ATOM     18  O   UNL     1       4.234   7.732   5.801  0.00  0.00    -0.221 OA
ATOM     19  O   UNL     1       4.214   9.834   4.907  0.00  0.00    -0.387 OA
ATOM     20  C   UNL     1       3.914  10.340   3.690  0.00  0.00    +0.256 A 
ATOM     21  N   UNL     1       3.572   9.363   2.896  0.00  0.00    -0.126 NA
BRANCH  20  22
ATOM     22  C   UNL     1       3.970  11.763   3.318  0.00  0.00    +0.076 A 
ATOM     23  C   UNL     1       4.323  12.844   4.086  0.00  0.00    +0.021 A 
ATOM     24  C   UNL     1       4.300  14.096   3.515  0.00  0.00    +0.008 A 
ATOM     25  C   UNL     1       3.932  14.223   2.213  0.00  0.00    +0.046 A 
ATOM     26  S   UNL     1       3.605  12.531   1.748  0.00  0.00    -0.092 S 
ENDBRANCH  20  22
ENDBRANCH  15  16
ENDBRANCH  14  15
ENDBRANCH  11  14
ENDBRANCH   5  10
BRANCH   2  27
ATOM     27  C   UNL     1      -2.184   1.107   1.276  0.00  0.00    +0.040 C 
BRANCH  27  28
ATOM     28  C   UNL     1      -2.224  -0.420   1.358  0.00  0.00    +0.038 C 
BRANCH  28  29
ATOM     29  C   UNL     1      -3.657  -0.886   1.367  0.00  0.00    -0.047 A 
ATOM     30  C   UNL     1      -4.326  -1.041   2.567  0.00  0.00    +0.003 A 
ATOM     31  C   UNL     1      -5.642  -1.463   2.576  0.00  0.00    +0.000 A 
ATOM     32  C   UNL     1      -6.287  -1.740   1.385  0.00  0.00    +0.000 A 
ATOM     33  C   UNL     1      -5.617  -1.590   0.185  0.00  0.00    +0.000 A 
ATOM     34  C   UNL     1      -4.302  -1.163   0.176  0.00  0.00    +0.003 A 
ENDBRANCH  28  29
ENDBRANCH  27  28
ENDBRANCH   2  27
TORSDOF 8
