REMARK  Name = ZINC39678253
REMARK  7 active torsions:
REMARK  status: ('A' for Active; 'I' for Inactive)
REMARK    1  A    between atoms: C_4  and  N_31
REMARK    2  A    between atoms: C_5  and  C_7
REMARK    3  A    between atoms: C_7  and  N_8
REMARK    4  A    between atoms: C_9  and  C_11
REMARK    5  A    between atoms: C_22  and  C_24
REMARK    6  A    between atoms: C_24  and  C_25
REMARK    7  A    between atoms: C_25  and  C_26
REMARK                            x       y       z     vdW  Elec       q    Type
REMARK                         _______ _______ _______ _____ _____    ______ ____
ROOT
ATOM      1  C   UNL     1       1.814  -4.512   2.962  0.00  0.00    +0.100 C 
ATOM      2  C   UNL     1       0.740  -3.987   3.940  0.00  0.00    +0.121 C 
ATOM      3  N   UNL     1      -0.268  -5.071   4.007  0.00  0.00    -0.300 N 
ATOM      4  C   UNL     1       0.533  -6.319   4.005  0.00  0.00    +0.115 C 
ATOM      5  C   UNL     1       1.677  -6.043   3.010  0.00  0.00    -0.004 C 
ATOM      6  C   UNL     1       1.317  -6.585   1.630  0.00  0.00    -0.010 C 
ATOM      7  C   UNL     1       1.242  -8.114   1.691  0.00  0.00    -0.082 C 
ATOM      8  N   UNL     1       2.536  -8.652   2.127  0.00  0.00    +0.379 N 
ATOM      9  C   UNL     1       2.832  -8.200   3.492  0.00  0.00    -0.082 C 
ATOM     10  C   UNL     1       2.974  -6.675   3.508  0.00  0.00    -0.010 C 
ATOM     11  C   UNL     1      -1.609  -4.950   4.059  0.00  0.00    +0.216 C 
ATOM     12  O   UNL     1      -2.306  -5.941   4.112  0.00  0.00    -0.276 OA
ATOM     13  H   UNL     1       2.503  -9.660   2.108  0.00  0.00    -0.086 HD
ATOM     14  H   UNL     1       3.260  -8.330   1.503  0.00  0.00    -0.086 HD
ENDROOT
BRANCH   1  16
ATOM     15  N   UNL     1       2.564  -3.545   0.812  0.00  0.00    -0.311 N 
ATOM     16  C   UNL     1       1.548  -4.005   1.568  0.00  0.00    +0.218 C 
ATOM     17  O   UNL     1       0.418  -4.012   1.126  0.00  0.00    -0.275 OA
ATOM     18  H   UNL     1       3.468  -3.540   1.165  0.00  0.00    +0.149 HD
BRANCH  15  19
ATOM     19  C   UNL     1       2.305  -3.052  -0.543  0.00  0.00    +0.141 C 
BRANCH  19  24
ATOM     20  C   UNL     1       5.104  -0.838  -1.777  0.00  0.00    +0.000 A 
ATOM     21  C   UNL     1       5.976  -1.764  -2.320  0.00  0.00    +0.002 A 
ATOM     22  C   UNL     1       5.664  -3.109  -2.289  0.00  0.00    +0.023 A 
ATOM     23  C   UNL     1       4.472  -3.531  -1.713  0.00  0.00    +0.034 A 
ATOM     24  C   UNL     1       3.599  -2.599  -1.169  0.00  0.00    -0.009 A 
ATOM     25  C   UNL     1       3.917  -1.255  -1.202  0.00  0.00    +0.007 A 
BRANCH  23  26
ATOM     26  N   UNL     1       4.153  -4.891  -1.681  0.00  0.00    -0.330 N 
ATOM     27  C   UNL     1       3.408  -5.511  -2.785  0.00  0.00    +0.105 C 
ATOM     28  C   UNL     1       4.193  -6.726  -3.289  0.00  0.00    +0.019 C 
ATOM     29  C   UNL     1       4.478  -7.667  -2.117  0.00  0.00    +0.003 C 
ATOM     30  C   UNL     1       5.329  -6.941  -1.073  0.00  0.00    +0.019 C 
ATOM     31  C   UNL     1       4.562  -5.729  -0.546  0.00  0.00    +0.105 C 
ENDBRANCH  23  26
ENDBRANCH  19  24
ENDBRANCH  15  19
ENDBRANCH   1  16
BRANCH  11  32
ATOM     32  C   UNL     1      -2.243  -3.583   4.051  0.00  0.00    +0.096 C 
BRANCH  32  33
ATOM     33  C   UNL     1      -3.765  -3.726   4.116  0.00  0.00    +0.013 C 
BRANCH  33  34
ATOM     34  C   UNL     1      -4.409  -2.338   4.108  0.00  0.00    -0.011 C 
ATOM     35  C   UNL     1      -4.081  -1.596   5.420  0.00  0.00    +0.003 C 
ATOM     36  C   UNL     1      -5.376  -0.811   5.746  0.00  0.00    +0.000 C 
ATOM     37  C   UNL     1      -6.490  -1.800   5.325  0.00  0.00    +0.000 C 
ATOM     38  C   UNL     1      -5.941  -2.468   4.048  0.00  0.00    +0.003 C 
ENDBRANCH  33  34
ENDBRANCH  32  33
ENDBRANCH  11  32
TORSDOF 7
