REMARK  Name = ZINC09507947
REMARK  7 active torsions:
REMARK  status: ('A' for Active; 'I' for Inactive)
REMARK    1  A    between atoms: C_3  and  C_6
REMARK    2  A    between atoms: C_6  and  N_7
REMARK    3  A    between atoms: C_17  and  S_18
REMARK    4  A    between atoms: S_18  and  C_19
REMARK    5  A    between atoms: C_19  and  C_20
REMARK    6  A    between atoms: N_22  and  C_23
REMARK    7  A    between atoms: C_24  and  C_28
REMARK                            x       y       z     vdW  Elec       q    Type
REMARK                         _______ _______ _______ _____ _____    ______ ____
ROOT
ATOM      1  N   UNL     1       1.764   3.734  -1.376  0.00  0.00    -0.280 N 
ATOM      2  C   UNL     1       2.951   3.643  -2.019  0.00  0.00    +0.263 A 
ATOM      3  O   UNL     1       3.931   3.170  -1.472  0.00  0.00    -0.267 OA
ATOM      4  C   UNL     1       3.014   4.133  -3.403  0.00  0.00    +0.065 A 
ATOM      5  C   UNL     1       4.191   4.077  -4.149  0.00  0.00    +0.017 A 
ATOM      6  C   UNL     1       4.201   4.550  -5.432  0.00  0.00    +0.021 A 
ATOM      7  C   UNL     1       3.050   5.085  -6.001  0.00  0.00    +0.043 A 
ATOM      8  C   UNL     1       1.875   5.152  -5.286  0.00  0.00    +0.048 A 
ATOM      9  C   UNL     1       1.840   4.675  -3.972  0.00  0.00    +0.080 A 
ATOM     10  N   UNL     1       0.708   4.720  -3.232  0.00  0.00    -0.223 NA
ATOM     11  C   UNL     1       0.676   4.272  -2.001  0.00  0.00    +0.173 A 
ATOM     12 CL   UNL     1       3.096   5.676  -7.633  0.00  0.00    -0.083 Cl
ENDROOT
BRANCH   1  13
ATOM     13  C   UNL     1       1.647   3.256   0.004  0.00  0.00    +0.201 C 
BRANCH  13  16
ATOM     14  C   UNL     1       1.284  -0.412  -0.012  0.00  0.00    +0.041 A 
ATOM     15  C   UNL     1       2.084   0.754  -0.014  0.00  0.00    +0.046 A 
ATOM     16  C   UNL     1       1.244   1.804  -0.000  0.00  0.00    +0.125 A 
ATOM     17  O   UNL     1      -0.016   1.339   0.009  0.00  0.00    -0.466 OA
ATOM     18  C   UNL     1       0.002  -0.004   0.002  0.00  0.00    +0.195 A 
ENDBRANCH  13  16
ENDBRANCH   1  13
BRANCH  11  19
ATOM     19  S   UNL     1      -0.841   4.369  -1.110  0.00  0.00    -0.078 S 
BRANCH  19  20
ATOM     20  C   UNL     1      -1.896   5.133  -2.368  0.00  0.00    +0.173 C 
BRANCH  20  21
ATOM     21  C   UNL     1      -3.285   5.319  -1.813  0.00  0.00    +0.228 C 
ATOM     22  O   UNL     1      -3.537   4.969  -0.680  0.00  0.00    -0.275 OA
ATOM     23  N   UNL     1      -4.246   5.873  -2.577  0.00  0.00    -0.279 N 
ATOM     24  H   UNL     1      -4.045   6.153  -3.484  0.00  0.00    +0.155 HD
BRANCH  23  25
ATOM     25  C   UNL     1      -5.524   6.044  -2.067  0.00  0.00    +0.084 A 
ATOM     26  C   UNL     1      -6.637   6.596  -2.692  0.00  0.00    +0.065 A 
ATOM     27  C   UNL     1      -7.856   6.647  -1.921  0.00  0.00    +0.022 A 
ATOM     28  C   UNL     1      -7.808   6.168  -0.664  0.00  0.00    +0.048 A 
ATOM     29  S   UNL     1      -6.120   5.629  -0.495  0.00  0.00    -0.081 S 
BRANCH  26  30
ATOM     30  C   UNL     1      -6.576   7.097  -4.068  0.00  0.00    +0.244 C 
ATOM     31  O   UNL     1      -5.533   7.036  -4.693  0.00  0.00    -0.270 OA
ATOM     32  N   UNL     1      -7.675   7.626  -4.642  0.00  0.00    -0.325 N 
ATOM     33  H   UNL     1      -8.506   7.675  -4.144  0.00  0.00    +0.145 HD
ATOM     34  H   UNL     1      -7.635   7.958  -5.553  0.00  0.00    +0.145 HD
ENDBRANCH  26  30
ENDBRANCH  23  25
ENDBRANCH  20  21
ENDBRANCH  19  20
ENDBRANCH  11  19
TORSDOF 7
