REMARK  Name = ZINC64340187
REMARK  8 active torsions:
REMARK  status: ('A' for Active; 'I' for Inactive)
REMARK    1  A    between atoms: C_1  and  C_2
REMARK    2  A    between atoms: N_4  and  C_5
REMARK    3  A    between atoms: C_5  and  C_7
REMARK    4  A    between atoms: C_5  and  C_17
REMARK    5  A    between atoms: C_7  and  C_8
REMARK    6  A    between atoms: N_19  and  N_20
REMARK    7  A    between atoms: C_21  and  C_23
REMARK    8  A    between atoms: C_25  and  C_33
REMARK                            x       y       z     vdW  Elec       q    Type
REMARK                         _______ _______ _______ _____ _____    ______ ____
ROOT
ATOM      1  C   UNL     1      -1.214  -2.650  -0.480  0.00  0.00    +0.250 C 
ATOM      2  O   UNL     1      -1.824  -1.930   0.282  0.00  0.00    -0.272 OA
ATOM      3  N   UNL     1      -1.623  -3.918  -0.682  0.00  0.00    -0.233 N 
ATOM      4  H   UNL     1      -1.135  -4.494  -1.291  0.00  0.00    +0.173 HD
ENDROOT
BRANCH   3   5
ATOM      5  N   UNL     1      -2.754  -4.404  -0.014  0.00  0.00    -0.230 N 
ATOM      6  C   UNL     1      -3.164  -5.672  -0.216  0.00  0.00    +0.261 C 
ATOM      7  O   UNL     1      -2.552  -6.394  -0.979  0.00  0.00    -0.269 OA
ATOM      8  H   UNL     1      -3.243  -3.828   0.595  0.00  0.00    +0.173 HD
BRANCH   6   9
ATOM      9  C   UNL     1      -4.358  -6.185   0.490  0.00  0.00    +0.049 A 
ATOM     10  C   UNL     1      -5.007  -5.427   1.452  0.00  0.00    +0.042 A 
ATOM     11  C   UNL     1      -6.139  -5.955   2.098  0.00  0.00    +0.079 A 
ATOM     12  N   UNL     1      -6.612  -7.155   1.821  0.00  0.00    -0.246 NA
ATOM     13  C   UNL     1      -6.048  -7.949   0.909  0.00  0.00    +0.072 A 
ATOM     14  C   UNL     1      -4.905  -7.511   0.195  0.00  0.00    +0.013 A 
ATOM     15  C   UNL     1      -4.321  -8.345  -0.763  0.00  0.00    +0.011 A 
ATOM     16  C   UNL     1      -4.862  -9.573  -1.007  0.00  0.00    +0.001 A 
ATOM     17  C   UNL     1      -5.989 -10.007  -0.313  0.00  0.00    +0.002 A 
ATOM     18  C   UNL     1      -6.575  -9.225   0.634  0.00  0.00    +0.028 A 
BRANCH  11  19
ATOM     19  C   UNL     1      -6.822  -5.139   3.120  0.00  0.00    +0.038 A 
ATOM     20  C   UNL     1      -7.925  -5.444   3.874  0.00  0.00    +0.017 A 
ATOM     21  C   UNL     1      -8.388  -4.514   4.776  0.00  0.00    +0.008 A 
ATOM     22  C   UNL     1      -7.739  -3.325   4.893  0.00  0.00    +0.046 A 
ATOM     23  S   UNL     1      -6.420  -3.499   3.703  0.00  0.00    -0.095 S 
ENDBRANCH  11  19
ENDBRANCH   6   9
ENDBRANCH   3   5
BRANCH   1  24
ATOM     24  C   UNL     1       0.003  -2.127  -1.199  0.00  0.00    +0.164 C 
BRANCH  24  28
ATOM     25  C   UNL     1      -0.062   1.523  -0.049  0.00  0.00    +0.109 C 
ATOM     26  C   UNL     1      -0.033   0.017  -0.042  0.00  0.00    +0.211 C 
ATOM     27  O   UNL     1      -0.015  -0.585   1.012  0.00  0.00    -0.276 OA
ATOM     28  N   UNL     1      -0.026  -0.663  -1.206  0.00  0.00    -0.304 N 
ATOM     29  H   UNL     1      -0.039  -0.182  -2.048  0.00  0.00    +0.149 HD
ENDBRANCH  24  28
BRANCH  24  30
ATOM     30  C   UNL     1       1.266  -2.609  -0.482  0.00  0.00    +0.065 C 
BRANCH  30  31
ATOM     31  C   UNL     1       2.481  -2.191  -1.268  0.00  0.00    -0.039 C 
ATOM     32  C   UNL     1       3.235  -1.085  -1.073  0.00  0.00    -0.001 A 
ATOM     33  C   UNL     1       3.151   0.018  -0.108  0.00  0.00    +0.010 A 
ATOM     34  C   UNL     1       4.071   1.008  -0.161  0.00  0.00    +0.001 A 
ATOM     35  C   UNL     1       5.100   1.007  -1.113  0.00  0.00    +0.002 A 
ATOM     36  C   UNL     1       5.242   0.029  -2.033  0.00  0.00    +0.026 A 
ATOM     37  C   UNL     1       4.330  -1.062  -2.068  0.00  0.00    +0.043 A 
ATOM     38  N   UNL     1       4.257  -2.113  -2.848  0.00  0.00    -0.380 N 
ATOM     39  C   UNL     1       3.109  -2.925  -2.432  0.00  0.00    +0.144 C 
ATOM     40  H   UNL     1       4.863  -2.321  -3.576  0.00  0.00    +0.160 HD
ENDBRANCH  30  31
ENDBRANCH  24  30
ENDBRANCH   1  24
TORSDOF 7
