REMARK  Name = ZINC40852827
REMARK  7 active torsions:
REMARK  status: ('A' for Active; 'I' for Inactive)
REMARK    1  A    between atoms: C_3  and  O_10
REMARK    2  A    between atoms: C_6  and  N_7
REMARK    3  A    between atoms: O_10  and  C_11
REMARK    4  A    between atoms: C_11  and  C_12
REMARK    5  A    between atoms: N_14  and  N_15
REMARK    6  A    between atoms: C_16  and  C_17
REMARK    7  A    between atoms: C_21  and  N_24
REMARK                            x       y       z     vdW  Elec       q    Type
REMARK                         _______ _______ _______ _____ _____    ______ ____
ROOT
ATOM      1  C   UNL     1       5.940   2.274  -0.043  0.00  0.00    +0.270 C 
ATOM      2  O   UNL     1       5.766   3.474  -0.036  0.00  0.00    -0.270 OA
ATOM      3  N   UNL     1       7.192   1.774  -0.058  0.00  0.00    -0.204 N 
ATOM      4  H   UNL     1       7.331   0.814  -0.064  0.00  0.00    +0.177 HD
ENDROOT
BRANCH   3   5
ATOM      5  N   UNL     1       8.292   2.642  -0.065  0.00  0.00    -0.188 NA
ATOM      6  C   UNL     1       9.497   2.161  -0.079  0.00  0.00    +0.142 C 
BRANCH   6   7
ATOM      7  C   UNL     1      10.655   3.073  -0.085  0.00  0.00    +0.045 A 
ATOM      8  C   UNL     1      11.954   2.560  -0.106  0.00  0.00    +0.028 A 
ATOM      9  C   UNL     1      13.033   3.420  -0.113  0.00  0.00    +0.021 A 
ATOM     10  C   UNL     1      12.833   4.790  -0.098  0.00  0.00    +0.052 A 
ATOM     11  C   UNL     1      11.553   5.310  -0.077  0.00  0.00    +0.174 A 
ATOM     12  C   UNL     1      10.458   4.461  -0.076  0.00  0.00    +0.218 A 
ATOM     13  O   UNL     1       9.199   4.971  -0.062  0.00  0.00    -0.285 OA
ATOM     14 BR   UNL     1      14.791   2.724  -0.140  0.00  0.00    -0.050 Br
BRANCH  11  15
ATOM     15  N   UNL     1      11.350   6.776  -0.061  0.00  0.00    +0.060 N 
ATOM     16  O   UNL     1      12.305   7.518  -0.066  0.00  0.00    -0.126 OA
ATOM     17  O   UNL     1      10.230   7.232  -0.043  0.00  0.00    -0.126 OA
ENDBRANCH  11  15
ENDBRANCH   6   7
ENDBRANCH   3   5
BRANCH   1  18
ATOM     18  C   UNL     1       4.756   1.341  -0.037  0.00  0.00    +0.326 C 
BRANCH  18  19
ATOM     19  O   UNL     1       3.548   2.104  -0.021  0.00  0.00    -0.483 OA
BRANCH  19  22
ATOM     20  C   UNL     1      -0.017   1.378   0.010  0.00  0.00    +0.036 A 
ATOM     21  C   UNL     1       1.169   2.087   0.002  0.00  0.00    +0.048 A 
ATOM     22  C   UNL     1       2.380   1.409  -0.013  0.00  0.00    +0.121 A 
ATOM     23  C   UNL     1       2.396   0.022  -0.021  0.00  0.00    +0.048 A 
ATOM     24  C   UNL     1       1.207  -0.681  -0.013  0.00  0.00    +0.036 A 
ATOM     25  C   UNL     1       0.002  -0.004   0.002  0.00  0.00    +0.126 A 
BRANCH  25  26
ATOM     26  N   UNL     1      -1.270  -0.760   0.011  0.00  0.00    +0.056 N 
ATOM     27  O   UNL     1      -2.325  -0.169   0.024  0.00  0.00    -0.126 OA
ATOM     28  O   UNL     1      -1.255  -1.969   0.004  0.00  0.00    -0.126 OA
ENDBRANCH  25  26
ENDBRANCH  19  22
ENDBRANCH  18  19
ENDBRANCH   1  18
TORSDOF 7
