REMARK  Name = ZINC16431649
REMARK  11 active torsions:
REMARK  status: ('A' for Active; 'I' for Inactive)
REMARK    1  A    between atoms: C_1  and  C_2
REMARK    2  A    between atoms: C_2  and  C_3
REMARK    3  A    between atoms: C_2  and  O_4
REMARK    4  A    between atoms: O_4  and  C_5
REMARK    5  A    between atoms: C_5  and  C_7
REMARK    6  A    between atoms: C_11  and  C_27
REMARK    7  A    between atoms: N_16  and  C_17
REMARK    8  A    between atoms: C_20  and  O_25
REMARK    9  A    between atoms: C_22  and  O_23
REMARK   10  A    between atoms: O_23  and  C_24
REMARK   11  A    between atoms: O_25  and  C_26
REMARK                            x       y       z     vdW  Elec       q    Type
REMARK                         _______ _______ _______ _____ _____    ______ ____
ROOT
ATOM      1  C   UNL     1      -3.258   0.662   5.059  0.00  0.00    +0.197 C 
ATOM      2  C   UNL     1      -2.815   0.927   6.528  0.00  0.00    +0.105 C 
ATOM      3  S   UNL     1      -4.205   2.037   7.034  0.00  0.00    -0.136 S 
ATOM      4  C   UNL     1      -4.509   2.792   5.381  0.00  0.00    +0.139 C 
ATOM      5  N   UNL     1      -3.816   1.871   4.459  0.00  0.00    -0.259 N 
ATOM      6  C   UNL     1      -3.699   2.134   3.142  0.00  0.00    +0.308 C 
ATOM      7  O   UNL     1      -3.067   1.381   2.426  0.00  0.00    -0.252 OA
ATOM      8  N   UNL     1      -4.282   3.231   2.619  0.00  0.00    -0.266 N 
ATOM      9  H   UNL     1      -4.771   3.841   3.194  0.00  0.00    +0.156 HD
ENDROOT
BRANCH   8  10
ATOM     10  C   UNL     1      -4.181   3.491   1.244  0.00  0.00    +0.077 A 
ATOM     11  C   UNL     1      -3.142   2.942   0.508  0.00  0.00    +0.030 A 
ATOM     12  C   UNL     1      -3.042   3.199  -0.846  0.00  0.00    +0.047 A 
ATOM     13  C   UNL     1      -3.981   4.005  -1.473  0.00  0.00    +0.124 A 
ATOM     14  C   UNL     1      -5.026   4.551  -0.742  0.00  0.00    +0.093 A 
ATOM     15  C   UNL     1      -5.125   4.301   0.617  0.00  0.00    +0.145 A 
BRANCH  15  16
ATOM     16  O   UNL     1      -6.145   4.840   1.336  0.00  0.00    -0.493 OA
ATOM     17  C   UNL     1      -7.076   5.660   0.627  0.00  0.00    +0.277 C 
ENDBRANCH  15  16
BRANCH  13  18
ATOM     18  O   UNL     1      -3.881   4.255  -2.805  0.00  0.00    -0.495 OA
ATOM     19  C   UNL     1      -2.783   3.656  -3.497  0.00  0.00    +0.277 C 
ENDBRANCH  13  18
ENDBRANCH   8  10
BRANCH   4  20
ATOM     20  C   UNL     1      -3.900   4.193   5.304  0.00  0.00    +0.020 C 
ATOM     21  C   UNL     1      -2.394   4.110   5.565  0.00  0.00    +0.006 C 
ATOM     22  C   UNL     1      -1.786   5.512   5.488  0.00  0.00    +0.000 C 
ATOM     23  C   UNL     1      -2.437   6.409   6.543  0.00  0.00    +0.000 C 
ATOM     24  C   UNL     1      -3.942   6.492   6.282  0.00  0.00    +0.000 C 
ATOM     25  C   UNL     1      -4.551   5.090   6.359  0.00  0.00    +0.006 C 
ENDBRANCH   4  20
BRANCH   1  26
ATOM     26  C   UNL     1      -2.064   0.215   4.255  0.00  0.00    +0.329 C 
ATOM     27  O   UNL     1      -1.339   1.035   3.744  0.00  0.00    -0.249 OA
BRANCH  26  28
ATOM     28  O   UNL     1      -1.807  -1.094   4.107  0.00  0.00    -0.461 OA
BRANCH  28  30
ATOM     29  C   UNL     1       0.581  -1.552   4.237  0.00  0.00    +0.052 C 
ATOM     30  C   UNL     1      -0.640  -1.452   3.321  0.00  0.00    +0.170 C 
ATOM     31  C   UNL     1      -0.879  -2.800   2.639  0.00  0.00    +0.052 C 
ENDBRANCH  28  30
ENDBRANCH  26  28
ENDBRANCH   1  26
TORSDOF 7
