REMARK  Name = ZINC40344364
REMARK  9 active torsions:
REMARK  status: ('A' for Active; 'I' for Inactive)
REMARK    1  A    between atoms: C_1  and  O_2
REMARK    2  A    between atoms: O_2  and  C_3
REMARK    3  A    between atoms: C_6  and  C_9
REMARK    4  A    between atoms: N_17  and  C_30
REMARK    5  A    between atoms: C_18  and  C_20
REMARK    6  A    between atoms: C_23  and  O_28
REMARK    7  A    between atoms: C_25  and  O_26
REMARK    8  A    between atoms: O_26  and  C_27
REMARK    9  A    between atoms: O_28  and  C_29
REMARK                            x       y       z     vdW  Elec       q    Type
REMARK                         _______ _______ _______ _____ _____    ______ ____
ROOT
ATOM      1  C   UNL     1       2.400  -2.507  -4.266  0.00  0.00    +0.099 A 
ATOM      2  C   UNL     1       3.246  -3.621  -4.272  0.00  0.00    +0.035 A 
ATOM      3  C   UNL     1       3.611  -3.810  -5.591  0.00  0.00    +0.126 A 
ATOM      4  N   UNL     1       2.985  -2.826  -6.302  0.00  0.00    -0.272 N 
ATOM      5  H   UNL     1       3.053  -2.703  -7.262  0.00  0.00    +0.189 HD
ATOM      6  N   UNL     1       2.287  -2.091  -5.511  0.00  0.00    -0.173 NA
ATOM      7  C   UNL     1       4.504  -4.971  -5.667  0.00  0.00    +0.266 C 
ATOM      8  O   UNL     1       5.001  -5.399  -6.691  0.00  0.00    -0.268 OA
ATOM      9  N   UNL     1       4.695  -5.496  -4.443  0.00  0.00    -0.282 N 
ATOM     10  C   UNL     1       3.929  -4.699  -3.475  0.00  0.00    +0.145 C 
ENDROOT
BRANCH   1  14
ATOM     11  C   UNL     1       0.522  -0.789  -0.857  0.00  0.00    +0.120 A 
ATOM     12  C   UNL     1       1.048   0.032  -1.845  0.00  0.00    +0.046 A 
ATOM     13  C   UNL     1       1.657  -0.523  -2.951  0.00  0.00    +0.013 A 
ATOM     14  C   UNL     1       1.745  -1.908  -3.076  0.00  0.00    +0.003 A 
ATOM     15  C   UNL     1       1.216  -2.729  -2.082  0.00  0.00    +0.013 A 
ATOM     16  C   UNL     1       0.612  -2.169  -0.976  0.00  0.00    +0.046 A 
BRANCH  11  18
ATOM     17  C   UNL     1      -0.137   1.186   0.290  0.00  0.00    +0.277 C 
ATOM     18  O   UNL     1      -0.078  -0.240   0.232  0.00  0.00    -0.495 OA
ENDBRANCH  11  18
ENDBRANCH   1  14
BRANCH  10  19
ATOM     19  C   UNL     1       4.856  -4.085  -2.459  0.00  0.00    +0.019 A 
ATOM     20  C   UNL     1       4.517  -4.097  -1.119  0.00  0.00    +0.013 A 
ATOM     21  C   UNL     1       5.365  -3.534  -0.185  0.00  0.00    +0.046 A 
ATOM     22  C   UNL     1       6.560  -2.955  -0.590  0.00  0.00    +0.124 A 
ATOM     23  C   UNL     1       6.902  -2.942  -1.933  0.00  0.00    +0.091 A 
ATOM     24  C   UNL     1       6.052  -3.512  -2.868  0.00  0.00    +0.129 A 
BRANCH  24  25
ATOM     25  O   UNL     1       6.387  -3.506  -4.185  0.00  0.00    -0.495 OA
ATOM     26  C   UNL     1       7.678  -2.994  -4.524  0.00  0.00    +0.277 C 
ENDBRANCH  24  25
BRANCH  22  27
ATOM     27  O   UNL     1       7.393  -2.401   0.330  0.00  0.00    -0.495 OA
ATOM     28  C   UNL     1       6.977  -2.451   1.696  0.00  0.00    +0.277 C 
ENDBRANCH  22  27
ENDBRANCH  10  19
BRANCH   9  29
ATOM     29  C   UNL     1       5.525  -6.662  -4.129  0.00  0.00    +0.077 C 
ATOM     30  C   UNL     1       6.971  -6.427  -4.613  0.00  0.00    +0.022 C 
ATOM     31  C   UNL     1       7.430  -7.815  -5.124  0.00  0.00    +0.002 C 
ATOM     32  C   UNL     1       6.152  -8.371  -5.798  0.00  0.00    +0.002 C 
ATOM     33  C   UNL     1       5.004  -7.898  -4.882  0.00  0.00    +0.022 C 
ENDBRANCH   9  29
TORSDOF 6
