REMARK  Name = ZINC38984313
REMARK  8 active torsions:
REMARK  status: ('A' for Active; 'I' for Inactive)
REMARK    1  A    between atoms: C_1  and  C_2
REMARK    2  A    between atoms: C_2  and  C_3
REMARK    3  A    between atoms: C_2  and  C_4
REMARK    4  A    between atoms: C_4  and  C_5
REMARK    5  A    between atoms: C_5  and  N_6
REMARK    6  A    between atoms: N_6  and  C_7
REMARK    7  A    between atoms: N_10  and  S_11
REMARK    8  A    between atoms: S_11  and  C_14
REMARK                            x       y       z     vdW  Elec       q    Type
REMARK                         _______ _______ _______ _____ _____    ______ ____
ROOT
ATOM      1  C   UNL     1      -2.816  -4.029  -0.238  0.00  0.00    +0.219 C 
ATOM      2  C   UNL     1      -3.809  -4.383  -1.322  0.00  0.00    +0.188 C 
ATOM      3  N   UNL     1      -3.666  -3.914  -2.526  0.00  0.00    -0.110 NA
ATOM      4  N   UNL     1      -4.840  -5.190  -1.023  0.00  0.00    -0.226 NA
ATOM      5  C   UNL     1      -5.006  -5.678   0.189  0.00  0.00    +0.089 A 
ATOM      6  C   UNL     1      -6.106  -6.527   0.469  0.00  0.00    +0.030 A 
ATOM      7  C   UNL     1      -6.281  -7.031   1.710  0.00  0.00    +0.002 A 
ATOM      8  C   UNL     1      -5.407  -6.752   2.773  0.00  0.00    +0.002 A 
ATOM      9  C   UNL     1      -4.327  -5.956   2.615  0.00  0.00    +0.027 A 
ATOM     10  C   UNL     1      -4.066  -5.367   1.293  0.00  0.00    +0.063 A 
ATOM     11  N   UNL     1      -3.034  -4.593   1.103  0.00  0.00    -0.362 N 
ATOM     12  H   UNL     1      -2.424  -4.394   1.830  0.00  0.00    +0.162 HD
ENDROOT
BRANCH   3  13
ATOM     13  S   UNL     1      -4.761  -4.309  -3.704  0.00  0.00    +0.100 S 
ATOM     14  O   UNL     1      -4.622  -5.705  -3.936  0.00  0.00    -0.146 OA
ATOM     15  O   UNL     1      -5.997  -3.720  -3.325  0.00  0.00    -0.146 OA
BRANCH  13  16
ATOM     16  C   UNL     1      -4.250  -3.500  -5.183  0.00  0.00    +0.113 A 
ATOM     17  C   UNL     1      -4.706  -2.226  -5.467  0.00  0.00    +0.030 A 
ATOM     18  C   UNL     1      -4.306  -1.591  -6.627  0.00  0.00    +0.022 A 
ATOM     19  C   UNL     1      -3.448  -2.230  -7.505  0.00  0.00    +0.041 A 
ATOM     20  C   UNL     1      -2.992  -3.505  -7.220  0.00  0.00    +0.022 A 
ATOM     21  C   UNL     1      -3.389  -4.137  -6.057  0.00  0.00    +0.030 A 
ATOM     22 CL   UNL     1      -2.945  -1.432  -8.962  0.00  0.00    -0.084 Cl
ENDBRANCH  13  16
ENDBRANCH   3  13
BRANCH   1  23
ATOM     23  N   UNL     1      -2.794  -2.566  -0.111  0.00  0.00    -0.291 NA
ATOM     24  H   UNL     1      -3.283  -2.268   0.720  0.00  0.00    +0.124 HD
BRANCH  23  25
ATOM     25  C   UNL     1      -1.416  -2.058  -0.121  0.00  0.00    +0.083 C 
BRANCH  25  26
ATOM     26  C   UNL     1      -1.433  -0.534   0.013  0.00  0.00    +0.018 C 
BRANCH  26  28
ATOM     27  C   UNL     1      -0.019   1.526   0.010  0.00  0.00    +0.007 C 
ATOM     28  C   UNL     1       0.002  -0.004   0.002  0.00  0.00    -0.016 C 
ATOM     29  C   UNL     1       0.742  -0.511   1.242  0.00  0.00    +0.007 C 
ENDBRANCH  26  28
ENDBRANCH  25  26
ENDBRANCH  23  25
ENDBRANCH   1  23
TORSDOF 6
