REMARK  Name = ZINC11459996
REMARK  7 active torsions:
REMARK  status: ('A' for Active; 'I' for Inactive)
REMARK    1  A    between atoms: C_1  and  C_2
REMARK    2  A    between atoms: C_2  and  C_4
REMARK    3  A    between atoms: C_2  and  O_17
REMARK    4  A    between atoms: N_6  and  C_7
REMARK    5  A    between atoms: C_9  and  N_14
REMARK    6  A    between atoms: O_17  and  C_18
REMARK    7  A    between atoms: C_18  and  C_20
REMARK                            x       y       z     vdW  Elec       q    Type
REMARK                         _______ _______ _______ _____ _____    ______ ____
ROOT
ATOM      1  C   UNL     1      -3.656  -1.642   1.560  0.00  0.00    +0.062 C 
ATOM      2  C   UNL     1      -3.659  -0.849   0.252  0.00  0.00    +0.259 C 
ENDROOT
BRANCH   2   3
ATOM      3  C   UNL     1      -2.374  -0.070   0.133  0.00  0.00    +0.258 C 
ATOM      4  O   UNL     1      -2.396   1.142   0.142  0.00  0.00    -0.271 OA
ATOM      5  N   UNL     1      -1.200  -0.722   0.017  0.00  0.00    -0.281 N 
ATOM      6  H   UNL     1      -1.187  -1.817  -0.084  0.00  0.00    +0.155 HD
BRANCH   5   7
ATOM      7  C   UNL     1       0.002  -0.005   0.023  0.00  0.00    +0.054 A 
ATOM      8  C   UNL     1       0.068   1.237   0.640  0.00  0.00    +0.057 A 
ATOM      9  C   UNL     1       1.256   1.942   0.646  0.00  0.00    +0.128 A 
ATOM     10  C   UNL     1       2.379   1.412   0.037  0.00  0.00    +0.034 A 
ATOM     11  C   UNL     1       2.318   0.176  -0.578  0.00  0.00    +0.024 A 
ATOM     12  C   UNL     1       1.132  -0.535  -0.587  0.00  0.00    +0.062 A 
ATOM     13 CL   UNL     1       1.056  -2.088  -1.360  0.00  0.00    -0.082 Cl
BRANCH   9  14
ATOM     14  N   UNL     1       1.327   3.266   1.303  0.00  0.00    +0.056 N 
ATOM     15  O   UNL     1       0.338   3.733   1.839  0.00  0.00    -0.126 OA
ATOM     16  O   UNL     1       2.373   3.888   1.309  0.00  0.00    -0.126 OA
ENDBRANCH   9  14
ENDBRANCH   5   7
ENDBRANCH   2   3
BRANCH   2  17
ATOM     17  O   UNL     1      -4.783   0.070   0.245  0.00  0.00    -0.449 OA
BRANCH  17  18
ATOM     18  C   UNL     1      -5.943  -0.386  -0.267  0.00  0.00    +0.341 C 
ATOM     19  O   UNL     1      -6.013  -1.520  -0.697  0.00  0.00    -0.245 OA
BRANCH  18  20
ATOM     20  C   UNL     1      -7.130   0.494  -0.307  0.00  0.00    +0.073 A 
ATOM     21  C   UNL     1      -7.056   1.826   0.078  0.00  0.00    +0.085 A 
ATOM     22  C   UNL     1      -8.204   2.624   0.019  0.00  0.00    +0.250 A 
ATOM     23  N   UNL     1      -9.364   2.158  -0.379  0.00  0.00    -0.322 N 
ATOM     24  C   UNL     1      -9.532   0.889  -0.762  0.00  0.00    +0.050 A 
ATOM     25  C   UNL     1      -8.433  -0.005  -0.747  0.00  0.00    +0.012 A 
ATOM     26  C   UNL     1      -8.611  -1.333  -1.148  0.00  0.00    +0.011 A 
ATOM     27  C   UNL     1      -9.843  -1.756  -1.551  0.00  0.00    +0.001 A 
ATOM     28  C   UNL     1     -10.927  -0.881  -1.568  0.00  0.00    +0.002 A 
ATOM     29  C   UNL     1     -10.788   0.418  -1.184  0.00  0.00    +0.026 A 
ATOM     30  O   UNL     1      -8.116   3.924   0.393  0.00  0.00    -0.268 OA
ATOM     31  H   UNL     1     -10.243   2.819  -0.406  0.00  0.00    +0.169 HD
ENDBRANCH  18  20
ENDBRANCH  17  18
ENDBRANCH   2  17
TORSDOF 6
