REMARK  Name = ZINC02199768
REMARK  12 active torsions:
REMARK  status: ('A' for Active; 'I' for Inactive)
REMARK    1  A    between atoms: C_1  and  C_2
REMARK    2  A    between atoms: C_2  and  C_33
REMARK    3  A    between atoms: N_5  and  C_9
REMARK    4  A    between atoms: C_6  and  O_8
REMARK    5  A    between atoms: C_9  and  C_10
REMARK    6  A    between atoms: C_10  and  C_12
REMARK    7  A    between atoms: C_10  and  O_32
REMARK    8  A    between atoms: C_12  and  N_13
REMARK    9  A    between atoms: N_13  and  C_14
REMARK   10  A    between atoms: N_13  and  S_20
REMARK   11  A    between atoms: S_20  and  C_23
REMARK   12  A    between atoms: C_28  and  N_29
REMARK                            x       y       z     vdW  Elec       q    Type
REMARK                         _______ _______ _______ _____ _____    ______ ____
ROOT
ATOM      1  N   UNL     1       5.998  -0.696  -2.442  0.00  0.00    -0.200 N 
ENDROOT
BRANCH   1   2
ATOM      2  C   UNL     1       7.142  -0.838  -1.654  0.00  0.00    +0.051 A 
ATOM      3  C   UNL     1       7.048  -1.403  -0.388  0.00  0.00    +0.025 A 
ATOM      4  C   UNL     1       8.182  -1.543   0.389  0.00  0.00    +0.002 A 
ATOM      5  C   UNL     1       9.408  -1.122  -0.092  0.00  0.00    +0.000 A 
ATOM      6  C   UNL     1       9.504  -0.559  -1.351  0.00  0.00    +0.002 A 
ATOM      7  C   UNL     1       8.376  -0.421  -2.136  0.00  0.00    +0.025 A 
ENDBRANCH   1   2
BRANCH   1   8
ATOM      8  S   UNL     1       5.938   0.478  -3.610  0.00  0.00    +0.077 S 
ATOM      9  O   UNL     1       4.566   0.657  -3.934  0.00  0.00    -0.150 OA
ATOM     10  O   UNL     1       6.759   1.545  -3.155  0.00  0.00    -0.150 OA
BRANCH   8  11
ATOM     11  C   UNL     1       6.714  -0.179  -5.048  0.00  0.00    +0.139 A 
ATOM     12  C   UNL     1       7.450  -1.346  -4.965  0.00  0.00    +0.031 A 
ATOM     13  C   UNL     1       8.059  -1.861  -6.094  0.00  0.00    +0.002 A 
ATOM     14  C   UNL     1       7.933  -1.209  -7.306  0.00  0.00    +0.002 A 
ATOM     15  C   UNL     1       7.196  -0.042  -7.390  0.00  0.00    +0.035 A 
ATOM     16  C   UNL     1       6.583   0.471  -6.261  0.00  0.00    +0.153 A 
BRANCH  16  17
ATOM     17  N   UNL     1       5.790   1.717  -6.352  0.00  0.00    +0.058 N 
ATOM     18  O   UNL     1       5.583   2.225  -7.429  0.00  0.00    -0.126 OA
ATOM     19  O   UNL     1       5.349   2.227  -5.348  0.00  0.00    -0.126 OA
ENDBRANCH  16  17
ENDBRANCH   8  11
ENDBRANCH   1   8
BRANCH   1  20
ATOM     20  C   UNL     1       4.851  -1.584  -2.237  0.00  0.00    +0.164 C 
BRANCH  20  21
ATOM     21  C   UNL     1       5.103  -2.915  -2.947  0.00  0.00    +0.151 C 
BRANCH  21  22
ATOM     22  O   UNL     1       5.231  -2.689  -4.352  0.00  0.00    -0.389 OA
ATOM     23  H   UNL     1       4.424  -2.364  -4.773  0.00  0.00    +0.210 HD
ENDBRANCH  21  22
BRANCH  21  24
ATOM     24  C   UNL     1       3.930  -3.862  -2.688  0.00  0.00    +0.151 C 
BRANCH  24  29
ATOM     25  C   UNL     1       6.410  -7.619  -4.026  0.00  0.00    +0.046 C 
ATOM     26  C   UNL     1       4.969  -7.298  -3.626  0.00  0.00    +0.137 C 
ATOM     27  C   UNL     1       4.934  -6.144  -2.643  0.00  0.00    +0.250 C 
ATOM     28  O   UNL     1       5.432  -6.101  -1.538  0.00  0.00    -0.272 OA
ATOM     29  N   UNL     1       4.227  -5.176  -3.263  0.00  0.00    -0.222 N 
ATOM     30  C   UNL     1       3.824  -5.593  -4.506  0.00  0.00    +0.286 C 
ATOM     31  N   UNL     1       4.211  -6.796  -4.784  0.00  0.00    -0.221 NA
ATOM     32  C   UNL     1       4.289  -8.534  -3.034  0.00  0.00    +0.046 C 
BRANCH  30  33
ATOM     33  O   UNL     1       3.099  -4.828  -5.352  0.00  0.00    -0.481 OA
ATOM     34  H   UNL     1       2.891  -5.259  -6.192  0.00  0.00    +0.295 HD
ENDBRANCH  30  33
ENDBRANCH  24  29
ENDBRANCH  21  24
ENDBRANCH  20  21
ENDBRANCH   1  20
TORSDOF 10
