REMARK  Name = ZINC16907448
REMARK  9 active torsions:
REMARK  status: ('A' for Active; 'I' for Inactive)
REMARK    1  A    between atoms: C_1  and  C_2
REMARK    2  A    between atoms: C_2  and  C_3
REMARK    3  A    between atoms: C_3  and  C_5
REMARK    4  A    between atoms: C_3  and  O_7
REMARK    5  A    between atoms: O_7  and  C_8
REMARK    6  A    between atoms: C_11  and  C_14
REMARK    7  A    between atoms: N_18  and  N_22
REMARK    8  A    between atoms: C_23  and  C_25
REMARK    9  A    between atoms: C_29  and  N_31
REMARK                            x       y       z     vdW  Elec       q    Type
REMARK                         _______ _______ _______ _____ _____    ______ ____
ROOT
ATOM      1  C   UNL     1       3.309   8.250  -3.026  0.00  0.00    +0.028 C 
ATOM      2  C   UNL     1       2.234   9.001  -3.376  0.00  0.00    +0.079 C 
ATOM      3  C   UNL     1       0.794   8.724  -3.199  0.00  0.00    +0.275 C 
ATOM      4  O   UNL     1       0.401   7.699  -2.673  0.00  0.00    -0.267 OA
ATOM      5  N   UNL     1      -0.045   9.646  -3.638  0.00  0.00    -0.169 N 
ATOM      6  C   UNL     1       0.395  10.777  -4.227  0.00  0.00    +0.138 C 
ATOM      7  S   UNL     1      -0.526  12.073  -4.861  0.00  0.00    -0.026 S 
ATOM      8  S   UNL     1       2.171  10.594  -4.186  0.00  0.00    -0.059 S 
ENDROOT
BRANCH   1  12
ATOM      9  C   UNL     1       2.782   4.748  -0.695  0.00  0.00    +0.122 A 
ATOM     10  C   UNL     1       1.993   5.866  -0.453  0.00  0.00    +0.046 A 
ATOM     11  C   UNL     1       2.163   7.008  -1.203  0.00  0.00    +0.011 A 
ATOM     12  C   UNL     1       3.126   7.037  -2.219  0.00  0.00    -0.024 A 
ATOM     13  C   UNL     1       3.915   5.906  -2.463  0.00  0.00    +0.011 A 
ATOM     14  C   UNL     1       3.739   4.771  -1.703  0.00  0.00    +0.046 A 
BRANCH   9  15
ATOM     15  O   UNL     1       2.613   3.626   0.052  0.00  0.00    -0.477 OA
BRANCH  15  16
ATOM     16  C   UNL     1       1.537   3.629   0.992  0.00  0.00    +0.285 C 
BRANCH  16  17
ATOM     17  C   UNL     1       0.886   2.270   1.014  0.00  0.00    +0.396 C 
ATOM     18  O   UNL     1       1.356   1.365   0.366  0.00  0.00    -0.242 OA
ATOM     19  O   UNL     1      -0.215   2.066   1.753  0.00  0.00    -0.242 OA
ENDBRANCH  16  17
BRANCH  16  21
ATOM     20  C   UNL     1       2.628   5.386   2.395  0.00  0.00    +0.008 C 
ATOM     21  C   UNL     1       2.078   3.958   2.385  0.00  0.00    +0.053 C 
ENDBRANCH  16  21
ENDBRANCH  15  16
ENDBRANCH   9  15
ENDBRANCH   1  12
BRANCH   5  22
ATOM     22  N   UNL     1      -1.424   9.442  -3.494  0.00  0.00    -0.222 N 
ATOM     23  C   UNL     1      -2.170   9.098  -4.562  0.00  0.00    +0.261 C 
ATOM     24  O   UNL     1      -1.646   8.965  -5.652  0.00  0.00    -0.269 OA
ATOM     25  H   UNL     1      -1.841   9.547  -2.625  0.00  0.00    +0.174 HD
BRANCH  23  26
ATOM     26  C   UNL     1      -3.624   8.882  -4.410  0.00  0.00    +0.040 A 
ATOM     27  C   UNL     1      -4.228   9.034  -3.161  0.00  0.00    +0.013 A 
ATOM     28  C   UNL     1      -5.586   8.831  -3.025  0.00  0.00    +0.003 A 
ATOM     29  C   UNL     1      -6.349   8.478  -4.124  0.00  0.00    +0.033 A 
ATOM     30  C   UNL     1      -5.757   8.326  -5.365  0.00  0.00    +0.127 A 
ATOM     31  C   UNL     1      -4.400   8.531  -5.516  0.00  0.00    +0.045 A 
BRANCH  30  32
ATOM     32  N   UNL     1      -6.580   7.949  -6.536  0.00  0.00    +0.056 N 
ATOM     33  O   UNL     1      -7.779   7.772  -6.406  0.00  0.00    -0.126 OA
ATOM     34  O   UNL     1      -6.060   7.815  -7.629  0.00  0.00    -0.126 OA
ENDBRANCH  30  32
ENDBRANCH  23  26
ENDBRANCH   5  22
TORSDOF 8
