REMARK  Name = ZINC05484943
REMARK  7 active torsions:
REMARK  status: ('A' for Active; 'I' for Inactive)
REMARK    1  A    between atoms: C_1  and  C_2
REMARK    2  A    between atoms: C_2  and  C_4
REMARK    3  A    between atoms: C_2  and  O_14
REMARK    4  A    between atoms: N_6  and  C_7
REMARK    5  A    between atoms: O_14  and  C_15
REMARK    6  A    between atoms: C_15  and  C_17
REMARK    7  A    between atoms: C_20  and  N_24
REMARK                            x       y       z     vdW  Elec       q    Type
REMARK                         _______ _______ _______ _____ _____    ______ ____
ROOT
ATOM      1  C   UNL     1       4.247  -1.141  -1.503  0.00  0.00    +0.062 C 
ATOM      2  C   UNL     1       3.803  -0.915  -0.057  0.00  0.00    +0.259 C 
ENDROOT
BRANCH   2   3
ATOM      3  C   UNL     1       3.725  -2.240   0.658  0.00  0.00    +0.258 C 
ATOM      4  O   UNL     1       2.655  -2.655   1.050  0.00  0.00    -0.271 OA
ATOM      5  N   UNL     1       4.843  -2.964   0.860  0.00  0.00    -0.281 N 
ATOM      6  H   UNL     1       5.689  -2.664   0.490  0.00  0.00    +0.155 HD
BRANCH   5   7
ATOM      7  C   UNL     1       4.786  -4.148   1.604  0.00  0.00    +0.052 A 
ATOM      8  C   UNL     1       3.662  -4.960   1.534  0.00  0.00    +0.025 A 
ATOM      9  C   UNL     1       3.610  -6.131   2.265  0.00  0.00    +0.002 A 
ATOM     10  C   UNL     1       4.672  -6.489   3.075  0.00  0.00    +0.002 A 
ATOM     11  C   UNL     1       5.791  -5.681   3.152  0.00  0.00    +0.022 A 
ATOM     12  C   UNL     1       5.851  -4.511   2.419  0.00  0.00    +0.062 A 
ATOM     13 CL   UNL     1       7.256  -3.496   2.516  0.00  0.00    -0.082 Cl
ENDBRANCH   5   7
ENDBRANCH   2   3
BRANCH   2  14
ATOM     14  O   UNL     1       2.497  -0.281  -0.045  0.00  0.00    -0.449 OA
BRANCH  14  15
ATOM     15  C   UNL     1       2.471   1.066  -0.047  0.00  0.00    +0.341 C 
ATOM     16  O   UNL     1       3.512   1.693  -0.059  0.00  0.00    -0.245 OA
BRANCH  15  17
ATOM     17  C   UNL     1       1.179   1.780  -0.036  0.00  0.00    +0.077 A 
ATOM     18  C   UNL     1      -0.019   1.062  -0.022  0.00  0.00    +0.018 A 
ATOM     19  C   UNL     1      -1.223   1.734  -0.018  0.00  0.00    +0.033 A 
ATOM     20  C   UNL     1      -1.246   3.118  -0.015  0.00  0.00    +0.128 A 
ATOM     21  C   UNL     1      -0.065   3.837  -0.029  0.00  0.00    +0.053 A 
ATOM     22  C   UNL     1       1.148   3.177  -0.039  0.00  0.00    +0.057 A 
ATOM     23 CL   UNL     1       2.631   4.080  -0.055  0.00  0.00    -0.083 Cl
BRANCH  20  24
ATOM     24  N   UNL     1      -2.543   3.833  -0.004  0.00  0.00    +0.056 N 
ATOM     25  O   UNL     1      -2.567   5.050  -0.007  0.00  0.00    -0.126 OA
ATOM     26  O   UNL     1      -3.585   3.203   0.008  0.00  0.00    -0.126 OA
ENDBRANCH  20  24
ENDBRANCH  15  17
ENDBRANCH  14  15
ENDBRANCH   2  14
TORSDOF 6
