REMARK  Name = ZINC21997453
REMARK  12 active torsions:
REMARK  status: ('A' for Active; 'I' for Inactive)
REMARK    1  A    between atoms: C_1  and  C_2
REMARK    2  A    between atoms: C_3  and  C_33
REMARK    3  A    between atoms: C_5  and  N_11
REMARK    4  A    between atoms: C_6  and  C_7
REMARK    5  A    between atoms: C_7  and  O_9
REMARK    6  A    between atoms: O_9  and  C_10
REMARK    7  A    between atoms: C_12  and  C_14
REMARK    8  A    between atoms: C_14  and  O_15
REMARK    9  A    between atoms: O_15  and  C_16
REMARK   10  A    between atoms: C_16  and  C_18
REMARK   11  A    between atoms: C_18  and  N_19
REMARK   12  A    between atoms: C_27  and  C_29
REMARK                            x       y       z     vdW  Elec       q    Type
REMARK                         _______ _______ _______ _____ _____    ______ ____
ROOT
ATOM      1  O   UNL     1       4.135   0.789  -1.701  0.00  0.00    -0.454 OA
ENDROOT
BRANCH   1   2
ATOM      2  C   UNL     1       2.907   1.266  -1.441  0.00  0.00    +0.326 C 
ATOM      3  O   UNL     1       2.166   1.555  -2.350  0.00  0.00    -0.249 OA
BRANCH   2   4
ATOM      4  C   UNL     1       2.453   1.440  -0.014  0.00  0.00    +0.238 C 
BRANCH   4   5
ATOM      5  N   UNL     1       1.088   1.971   0.002  0.00  0.00    -0.213 N 
ATOM      6  C   UNL     1       0.785   3.285   0.012  0.00  0.00    +0.247 C 
ATOM      7  O   UNL     1       1.561   4.217   0.010  0.00  0.00    -0.273 OA
ATOM      8  C   UNL     1      -0.725   3.352   0.027  0.00  0.00    +0.115 C 
ATOM      9  C   UNL     1      -1.237   4.066  -1.219  0.00  0.00    +0.035 C 
ATOM     10  C   UNL     1      -2.767   4.099  -1.199  0.00  0.00    +0.003 C 
ATOM     11  C   UNL     1      -3.244   4.828   0.059  0.00  0.00    +0.000 C 
ATOM     12  C   UNL     1      -2.743   4.086   1.300  0.00  0.00    +0.006 C 
ATOM     13  C   UNL     1      -1.213   4.053   1.290  0.00  0.00    +0.018 C 
ATOM     14  C   UNL     1      -0.712   3.293   2.520  0.00  0.00    +0.010 C 
ATOM     15  N   UNL     1      -1.144   1.945   0.018  0.00  0.00    -0.285 N 
ATOM     16  C   UNL     1      -0.014   1.211   0.009  0.00  0.00    +0.310 C 
ATOM     17  O   UNL     1       0.002  -0.004   0.002  0.00  0.00    -0.252 OA
ATOM     18  H   UNL     1      -2.214   1.690   0.019  0.00  0.00    +0.151 HD
ENDBRANCH   4   5
ENDBRANCH   2   4
ENDBRANCH   1   2
BRANCH   1  19
ATOM     19  C   UNL     1       4.505   0.648  -3.098  0.00  0.00    +0.328 C 
BRANCH  19  21
ATOM     20  N   UNL     1       6.465  -0.112  -4.402  0.00  0.00    -0.277 N 
ATOM     21  C   UNL     1       5.906   0.103  -3.194  0.00  0.00    +0.255 C 
ATOM     22  O   UNL     1       6.532  -0.142  -2.184  0.00  0.00    -0.272 OA
ATOM     23  H   UNL     1       5.897   0.110  -5.317  0.00  0.00    +0.155 HD
BRANCH  20  28
ATOM     24  C   UNL     1      10.720  -1.762  -6.593  0.00  0.00    +0.045 C 
ATOM     25  C   UNL     1       9.826  -1.417  -5.430  0.00  0.00    -0.025 A 
ATOM     26  C   UNL     1      10.236  -1.578  -4.159  0.00  0.00    -0.008 A 
ATOM     27  S   UNL     1       8.837  -1.028  -3.204  0.00  0.00    -0.078 S 
ATOM     28  C   UNL     1       7.754  -0.613  -4.490  0.00  0.00    +0.086 A 
ATOM     29  C   UNL     1       8.494  -0.898  -5.633  0.00  0.00    +0.091 A 
ATOM     30  C   UNL     1      11.562  -2.094  -3.663  0.00  0.00    +0.052 C 
BRANCH  29  31
ATOM     31  C   UNL     1       7.948  -0.685  -6.975  0.00  0.00    +0.342 C 
ATOM     32  O   UNL     1       8.103   0.386  -7.531  0.00  0.00    -0.245 OA
BRANCH  31  33
ATOM     33  O   UNL     1       7.274  -1.675  -7.594  0.00  0.00    -0.464 OA
ATOM     34  C   UNL     1       6.761  -1.393  -8.923  0.00  0.00    +0.280 C 
ENDBRANCH  31  33
ENDBRANCH  29  31
ENDBRANCH  20  28
ENDBRANCH  19  21
ENDBRANCH   1  19
TORSDOF 8
