REMARK  Name = ZINC44212306
REMARK  9 active torsions:
REMARK  status: ('A' for Active; 'I' for Inactive)
REMARK    1  A    between atoms: C_1  and  C_2
REMARK    2  A    between atoms: C_3  and  C_8
REMARK    3  A    between atoms: N_6  and  C_7
REMARK    4  A    between atoms: C_8  and  C_10
REMARK    5  A    between atoms: C_8  and  N_11
REMARK    6  A    between atoms: N_14  and  C_15
REMARK    7  A    between atoms: C_20  and  C_21
REMARK    8  A    between atoms: C_25  and  C_32
REMARK    9  A    between atoms: C_28  and  C_31
REMARK                            x       y       z     vdW  Elec       q    Type
REMARK                         _______ _______ _______ _____ _____    ______ ____
ROOT
ATOM      1  C   UNL     1       1.754  -1.855  -6.829  0.00  0.00    +0.047 A 
ATOM      2  C   UNL     1       1.897  -0.559  -7.308  0.00  0.00    +0.024 A 
ATOM      3  C   UNL     1       2.592  -0.327  -8.477  0.00  0.00    +0.002 A 
ATOM      4  C   UNL     1       3.150  -1.381  -9.183  0.00  0.00    +0.001 A 
ATOM      5  C   UNL     1       3.017  -2.674  -8.724  0.00  0.00    +0.015 A 
ATOM      6  C   UNL     1       2.322  -2.924  -7.538  0.00  0.00    +0.058 A 
ENDROOT
BRANCH   6   7
ATOM      7  C   UNL     1       2.182  -4.304  -7.037  0.00  0.00    +0.248 C 
ATOM      8  O   UNL     1       1.081  -4.746  -6.772  0.00  0.00    -0.270 OA
ATOM      9  N   UNL     1       3.275  -5.076  -6.874  0.00  0.00    -0.297 N 
ATOM     10  C   UNL     1       4.604  -4.582  -7.257  0.00  0.00    +0.111 C 
ATOM     11  C   UNL     1       5.548  -4.724  -6.058  0.00  0.00    +0.004 C 
ATOM     12  C   UNL     1       5.532  -6.175  -5.572  0.00  0.00    +0.009 C 
ATOM     13  C   UNL     1       4.118  -6.549  -5.121  0.00  0.00    +0.004 C 
ATOM     14  C   UNL     1       3.160  -6.425  -6.303  0.00  0.00    +0.111 C 
ATOM     15  C   UNL     1       4.111  -7.989  -4.604  0.00  0.00    +0.009 C 
ATOM     16  C   UNL     1       6.968  -4.341  -6.478  0.00  0.00    +0.009 C 
ENDBRANCH   6   7
BRANCH   1  20
ATOM     17  N   UNL     1      -0.712  -1.578  -4.210  0.00  0.00    -0.292 N 
ATOM     18  C   UNL     1       0.014  -1.302  -5.312  0.00  0.00    +0.304 C 
ATOM     19  O   UNL     1      -0.268  -0.342  -6.001  0.00  0.00    -0.252 OA
ATOM     20  N   UNL     1       1.053  -2.092  -5.649  0.00  0.00    -0.269 N 
ATOM     21  H   UNL     1      -0.487  -2.345  -3.660  0.00  0.00    +0.151 HD
ATOM     22  H   UNL     1       1.313  -2.825  -5.069  0.00  0.00    +0.156 HD
BRANCH  17  23
ATOM     23  C   UNL     1      -1.841  -0.720  -3.844  0.00  0.00    +0.105 C 
ATOM     24  C   UNL     1      -3.091  -1.171  -4.602  0.00  0.00    +0.033 C 
BRANCH  23  27
ATOM     25  C   UNL     1      -3.404   1.348  -2.092  0.00  0.00    +0.065 C 
ATOM     26  C   UNL     1      -2.766   0.073  -1.604  0.00  0.00    +0.041 A 
ATOM     27  C   UNL     1      -2.089  -0.822  -2.361  0.00  0.00    +0.013 A 
ATOM     28  C   UNL     1      -1.661  -1.858  -1.524  0.00  0.00    +0.140 A 
ATOM     29  N   UNL     1      -2.066  -1.595  -0.308  0.00  0.00    -0.179 NA
ATOM     30  N   UNL     1      -2.761  -0.379  -0.332  0.00  0.00    -0.271 N 
ATOM     31  C   UNL     1      -3.377   0.285   0.820  0.00  0.00    +0.172 C 
ENDBRANCH  23  27
ENDBRANCH  17  23
ENDBRANCH   1  20
TORSDOF 4
