REMARK  Name = ZINC52929954
REMARK  9 active torsions:
REMARK  status: ('A' for Active; 'I' for Inactive)
REMARK    1  A    between atoms: C_1  and  C_2
REMARK    2  A    between atoms: C_5  and  N_25
REMARK    3  A    between atoms: C_7  and  N_8
REMARK    4  A    between atoms: C_9  and  C_11
REMARK    5  A    between atoms: C_18  and  O_20
REMARK    6  A    between atoms: O_20  and  C_21
REMARK    7  A    between atoms: C_21  and  C_22
REMARK    8  A    between atoms: C_21  and  C_23
REMARK    9  A    between atoms: C_21  and  C_24
REMARK                            x       y       z     vdW  Elec       q    Type
REMARK                         _______ _______ _______ _____ _____    ______ ____
ROOT
ATOM      1  N   UNL     1       0.025  -0.015   2.417  0.00  0.00    -0.285 N 
ATOM      2  C   UNL     1      -0.057  -0.694   3.578  0.00  0.00    +0.222 C 
ATOM      3  O   UNL     1      -0.040  -1.907   3.573  0.00  0.00    -0.275 OA
ATOM      4  H   UNL     1       0.077   0.954   2.425  0.00  0.00    +0.155 HD
ENDROOT
BRANCH   2   5
ATOM      5  C   UNL     1      -0.169   0.052   4.882  0.00  0.00    +0.093 C 
ATOM      6  C   UNL     1      -0.244  -0.948   6.038  0.00  0.00    +0.016 C 
ATOM      7  C   UNL     1      -0.391  -0.191   7.361  0.00  0.00    +0.020 C 
ATOM      8  C   UNL     1       0.836   0.702   7.572  0.00  0.00    +0.111 C 
ATOM      9  N   UNL     1       1.000   1.568   6.396  0.00  0.00    -0.267 N 
ATOM     10  C   UNL     1       1.060   0.948   5.065  0.00  0.00    +0.123 C 
ATOM     11  C   UNL     1       1.092   2.905   6.536  0.00  0.00    +0.403 C 
ATOM     12  O   UNL     1       1.227   3.610   5.556  0.00  0.00    -0.226 OA
BRANCH  11  13
ATOM     13  O   UNL     1       1.035   3.459   7.761  0.00  0.00    -0.445 OA
BRANCH  13  14
ATOM     14  C   UNL     1       1.139   4.883   7.835  0.00  0.00    +0.107 C 
ATOM     15  C   UNL     1      -0.004   5.520   7.042  0.00  0.00    +0.055 C 
ATOM     16  C   UNL     1       1.054   5.326   9.297  0.00  0.00    +0.055 C 
ATOM     17  C   UNL     1       2.479   5.327   7.245  0.00  0.00    +0.055 C 
ENDBRANCH  13  14
ENDBRANCH  11  13
ENDBRANCH   2   5
BRANCH   1  24
ATOM     18  C   UNL     1      -1.265   1.183   0.181  0.00  0.00    +0.045 C 
ATOM     19  C   UNL     1      -0.584  -0.158   0.084  0.00  0.00    -0.029 A 
ATOM     20  C   UNL     1      -0.569  -0.841  -1.117  0.00  0.00    +0.007 A 
ATOM     21  C   UNL     1       0.056  -2.071  -1.206  0.00  0.00    +0.033 A 
ATOM     22  C   UNL     1       0.667  -2.622  -0.095  0.00  0.00    +0.128 A 
ATOM     23  C   UNL     1       0.656  -1.944   1.109  0.00  0.00    +0.056 A 
ATOM     24  C   UNL     1       0.034  -0.706   1.201  0.00  0.00    +0.038 A 
BRANCH  22  25
ATOM     25  N   UNL     1       1.334  -3.940  -0.195  0.00  0.00    +0.056 N 
ATOM     26  O   UNL     1       1.344  -4.534  -1.248  0.00  0.00    -0.126 OA
ATOM     27  O   UNL     1       1.869  -4.422   0.776  0.00  0.00    -0.126 OA
ENDBRANCH  22  25
ENDBRANCH   1  24
TORSDOF 5
