REMARK  Name = ZINC35198361
REMARK  9 active torsions:
REMARK  status: ('A' for Active; 'I' for Inactive)
REMARK    1  A    between atoms: C_1  and  C_2
REMARK    2  A    between atoms: C_2  and  C_4
REMARK    3  A    between atoms: C_2  and  N_26
REMARK    4  A    between atoms: C_7  and  S_18
REMARK    5  A    between atoms: N_8  and  C_9
REMARK    6  A    between atoms: C_12  and  N_15
REMARK    7  A    between atoms: S_18  and  C_19
REMARK    8  A    between atoms: C_19  and  C_20
REMARK    9  A    between atoms: C_27  and  C_29
REMARK                            x       y       z     vdW  Elec       q    Type
REMARK                         _______ _______ _______ _____ _____    ______ ____
ROOT
ATOM      1  C   UNL     1       0.731  -0.503   1.223  0.00  0.00    +0.159 A 
ATOM      2  N   UNL     1       0.272  -0.523   2.442  0.00  0.00    -0.131 NA
ATOM      3  N   UNL     1       1.153  -1.012   3.239  0.00  0.00    -0.122 NA
ATOM      4  C   UNL     1       2.234  -1.336   2.567  0.00  0.00    +0.196 A 
ATOM      5  N   UNL     1       1.996  -1.026   1.256  0.00  0.00    -0.273 N 
ENDROOT
BRANCH   5   6
ATOM      6  C   UNL     1       2.869  -1.204   0.172  0.00  0.00    +0.050 A 
ATOM      7  C   UNL     1       2.541  -2.090  -0.846  0.00  0.00    +0.028 A 
ATOM      8  C   UNL     1       3.402  -2.263  -1.912  0.00  0.00    +0.035 A 
ATOM      9  C   UNL     1       4.589  -1.555  -1.967  0.00  0.00    +0.126 A 
ATOM     10  C   UNL     1       4.917  -0.672  -0.955  0.00  0.00    +0.035 A 
ATOM     11  C   UNL     1       4.058  -0.490   0.111  0.00  0.00    +0.028 A 
BRANCH   9  12
ATOM     12  N   UNL     1       5.509  -1.743  -3.110  0.00  0.00    +0.056 N 
ATOM     13  O   UNL     1       5.223  -2.515  -3.996  0.00  0.00    -0.126 OA
ATOM     14  O   UNL     1       6.547  -1.125  -3.159  0.00  0.00    -0.126 OA
ENDBRANCH   9  12
ENDBRANCH   5   6
BRANCH   1  16
ATOM     15  C   UNL     1      -0.019   1.526   0.010  0.00  0.00    +0.036 C 
ATOM     16  C   UNL     1       0.002  -0.004   0.002  0.00  0.00    +0.139 C 
BRANCH  16  17
ATOM     17  N   UNL     1      -1.372  -0.511   0.012  0.00  0.00    -0.299 N 
ATOM     18  C   UNL     1      -2.051  -0.643  -1.145  0.00  0.00    +0.280 C 
ATOM     19  O   UNL     1      -1.522  -0.340  -2.198  0.00  0.00    -0.267 OA
ATOM     20  H   UNL     1      -1.794  -0.752   0.852  0.00  0.00    +0.150 HD
BRANCH  18  21
ATOM     21  C   UNL     1      -3.427  -1.150  -1.134  0.00  0.00    +0.189 A 
ATOM     22  C   UNL     1      -4.221  -1.337  -2.229  0.00  0.00    +0.054 A 
ATOM     23  C   UNL     1      -5.447  -1.835  -1.758  0.00  0.00    +0.042 A 
ATOM     24  C   UNL     1      -5.347  -1.929  -0.414  0.00  0.00    +0.196 A 
ATOM     25  O   UNL     1      -4.127  -1.520  -0.042  0.00  0.00    -0.458 OA
ENDBRANCH  18  21
ENDBRANCH  16  17
ENDBRANCH   1  16
BRANCH   4  26
ATOM     26  S   UNL     1       3.707  -2.041   3.227  0.00  0.00    -0.081 S 
BRANCH  26  27
ATOM     27  C   UNL     1       3.361  -2.200   5.001  0.00  0.00    +0.112 C 
BRANCH  27  28
ATOM     28  C   UNL     1       4.557  -2.800   5.694  0.00  0.00    -0.037 A 
ATOM     29  C   UNL     1       4.666  -4.172   5.823  0.00  0.00    +0.004 A 
ATOM     30  C   UNL     1       5.763  -4.721   6.459  0.00  0.00    +0.000 A 
ATOM     31  C   UNL     1       6.752  -3.899   6.966  0.00  0.00    +0.000 A 
ATOM     32  C   UNL     1       6.644  -2.527   6.837  0.00  0.00    +0.000 A 
ATOM     33  C   UNL     1       5.548  -1.978   6.197  0.00  0.00    +0.004 A 
ENDBRANCH  27  28
ENDBRANCH  26  27
ENDBRANCH   4  26
TORSDOF 8
