REMARK  Name = ZINC05343997
REMARK  7 active torsions:
REMARK  status: ('A' for Active; 'I' for Inactive)
REMARK    1  A    between atoms: C_1  and  O_2
REMARK    2  A    between atoms: O_2  and  C_3
REMARK    3  A    between atoms: C_3  and  C_4
REMARK    4  A    between atoms: C_4  and  N_5
REMARK    5  A    between atoms: C_6  and  C_23
REMARK    6  A    between atoms: C_9  and  C_16
REMARK    7  A    between atoms: C_21  and  O_22
REMARK                            x       y       z     vdW  Elec       q    Type
REMARK                         _______ _______ _______ _____ _____    ______ ____
ROOT
ATOM      1  N   UNL     1      -0.316  -2.792   1.248  0.00  0.00    -0.283 N 
ATOM      2  C   UNL     1       1.115  -3.082   1.397  0.00  0.00    +0.141 C 
ATOM      3  C   UNL     1       1.304  -3.574   2.806  0.00  0.00    +0.035 A 
ATOM      4  C   UNL     1       2.159  -4.029   3.758  0.00  0.00    +0.075 A 
ATOM      5  N   UNL     1       1.411  -4.267   4.875  0.00  0.00    -0.276 N 
ATOM      6  H   UNL     1       1.758  -4.600   5.717  0.00  0.00    +0.189 HD
ATOM      7  N   UNL     1       0.178  -3.984   4.645  0.00  0.00    -0.168 NA
ATOM      8  C   UNL     1       0.025  -3.555   3.408  0.00  0.00    +0.153 A 
ATOM      9  C   UNL     1      -0.939  -3.060   2.409  0.00  0.00    +0.268 C 
ATOM     10  O   UNL     1      -2.130  -2.916   2.606  0.00  0.00    -0.268 OA
ENDROOT
BRANCH   2  11
ATOM     11  C   UNL     1       1.923  -1.830   1.172  0.00  0.00    -0.022 A 
ATOM     12  C   UNL     1       1.541  -0.644   1.773  0.00  0.00    +0.007 A 
ATOM     13  C   UNL     1       2.281   0.504   1.567  0.00  0.00    +0.020 A 
ATOM     14  C   UNL     1       3.405   0.468   0.760  0.00  0.00    +0.041 A 
ATOM     15  C   UNL     1       3.786  -0.718   0.160  0.00  0.00    +0.020 A 
ATOM     16  C   UNL     1       3.048  -1.868   0.371  0.00  0.00    +0.007 A 
ATOM     17 CL   UNL     1       4.335   1.911   0.501  0.00  0.00    -0.084 Cl
ENDBRANCH   2  11
BRANCH   4  18
ATOM     18  C   UNL     1       3.618  -4.228   3.613  0.00  0.00    +0.042 A 
ATOM     19  C   UNL     1       4.160  -5.511   3.687  0.00  0.00    +0.013 A 
ATOM     20  C   UNL     1       5.521  -5.691   3.550  0.00  0.00    +0.001 A 
ATOM     21  C   UNL     1       6.351  -4.603   3.340  0.00  0.00    +0.004 A 
ATOM     22  C   UNL     1       5.824  -3.327   3.265  0.00  0.00    +0.046 A 
ATOM     23  C   UNL     1       4.459  -3.131   3.395  0.00  0.00    +0.126 A 
BRANCH  23  24
ATOM     24  O   UNL     1       3.939  -1.879   3.315  0.00  0.00    -0.506 OA
ATOM     25  H   UNL     1       3.889  -1.419   4.165  0.00  0.00    +0.292 HD
ENDBRANCH  23  24
ENDBRANCH   4  18
BRANCH   1  26
ATOM     26  C   UNL     1      -0.960  -2.287   0.034  0.00  0.00    +0.137 C 
BRANCH  26  27
ATOM     27  C   UNL     1      -1.295  -3.458  -0.891  0.00  0.00    +0.178 C 
BRANCH  27  29
ATOM     28  C   UNL     1      -2.581  -5.478  -1.005  0.00  0.00    +0.194 C 
ATOM     29  O   UNL     1      -2.276  -4.290  -0.271  0.00  0.00    -0.381 OA
ENDBRANCH  27  29
ENDBRANCH  26  27
ENDBRANCH   1  26
TORSDOF 6
