REMARK  Name = ZINC40924725
REMARK  10 active torsions:
REMARK  status: ('A' for Active; 'I' for Inactive)
REMARK    1  A    between atoms: C_1  and  C_2
REMARK    2  A    between atoms: C_2  and  N_3
REMARK    3  A    between atoms: N_6  and  C_9
REMARK    4  A    between atoms: C_9  and  C_10
REMARK    5  A    between atoms: C_10  and  N_11
REMARK    6  A    between atoms: C_12  and  C_14
REMARK    7  A    between atoms: C_23  and  C_26
REMARK    8  A    between atoms: C_29  and  O_32
REMARK    9  A    between atoms: O_32  and  C_33
REMARK   10  A    between atoms: C_33  and  C_34
REMARK                            x       y       z     vdW  Elec       q    Type
REMARK                         _______ _______ _______ _____ _____    ______ ____
ROOT
ATOM      1  C   UNL     1      -7.715  -6.730  -1.494  0.00  0.00    +0.078 C 
ATOM      2  C   UNL     1      -8.256  -6.377  -0.107  0.00  0.00    +0.031 C 
ATOM      3  C   UNL     1      -9.741  -6.747  -0.033  0.00  0.00    +0.107 C 
ATOM      4  N   UNL     1      -9.893  -8.163  -0.398  0.00  0.00    -0.314 N 
ATOM      5  C   UNL     1      -9.328  -8.629  -1.671  0.00  0.00    +0.107 C 
ATOM      6  C   UNL     1      -7.848  -8.237  -1.727  0.00  0.00    +0.031 C 
ATOM      7  C   UNL     1     -10.559  -9.044   0.447  0.00  0.00    +0.144 A 
ATOM      8  C   UNL     1     -11.277  -8.556   1.541  0.00  0.00    +0.047 A 
ATOM      9  C   UNL     1     -11.923  -9.470   2.353  0.00  0.00    +0.033 A 
ATOM     10  C   UNL     1     -11.817 -10.827   2.028  0.00  0.00    +0.093 A 
ATOM     11  N   UNL     1     -11.112 -11.197   0.967  0.00  0.00    -0.147 NA
ATOM     12  N   UNL     1     -10.518 -10.347   0.212  0.00  0.00    -0.134 NA
ENDROOT
BRANCH  10  13
ATOM     13  C   UNL     1     -12.491 -11.848   2.866  0.00  0.00    +0.002 A 
ATOM     14  C   UNL     1     -13.236 -11.457   3.978  0.00  0.00    +0.013 A 
ATOM     15  C   UNL     1     -13.862 -12.408   4.756  0.00  0.00    +0.046 A 
ATOM     16  C   UNL     1     -13.750 -13.754   4.433  0.00  0.00    +0.121 A 
ATOM     17  C   UNL     1     -13.008 -14.146   3.327  0.00  0.00    +0.046 A 
ATOM     18  C   UNL     1     -12.385 -13.199   2.542  0.00  0.00    +0.013 A 
BRANCH  16  19
ATOM     19  O   UNL     1     -14.367 -14.689   5.202  0.00  0.00    -0.492 OA
BRANCH  19  20
ATOM     20  C   UNL     1     -14.210 -16.055   4.813  0.00  0.00    +0.225 C 
ATOM     21  C   UNL     1     -14.970 -16.954   5.790  0.00  0.00    +0.048 C 
ENDBRANCH  19  20
ENDBRANCH  16  19
ENDBRANCH  10  13
BRANCH   1  23
ATOM     22  N   UNL     1      -5.903  -5.048  -1.410  0.00  0.00    -0.314 N 
ATOM     23  C   UNL     1      -6.263  -6.335  -1.583  0.00  0.00    +0.216 C 
ATOM     24  O   UNL     1      -5.419  -7.176  -1.809  0.00  0.00    -0.276 OA
ATOM     25  H   UNL     1      -6.579  -4.376  -1.229  0.00  0.00    +0.149 HD
BRANCH  22  26
ATOM     26  C   UNL     1      -4.492  -4.664  -1.496  0.00  0.00    +0.119 C 
BRANCH  26  27
ATOM     27  C   UNL     1      -4.358  -3.158  -1.263  0.00  0.00    +0.103 C 
BRANCH  27  31
ATOM     28  N   UNL     1      -0.557  -1.524  -0.397  0.00  0.00    +0.381 N 
ATOM     29  C   UNL     1      -1.315  -0.953  -1.518  0.00  0.00    -0.063 C 
ATOM     30  C   UNL     1      -2.795  -1.311  -1.368  0.00  0.00    +0.066 C 
ATOM     31  N   UNL     1      -2.943  -2.773  -1.349  0.00  0.00    -0.304 NA
ATOM     32  C   UNL     1      -2.169  -3.362  -0.247  0.00  0.00    +0.066 C 
ATOM     33  C   UNL     1      -0.694  -2.987  -0.406  0.00  0.00    -0.063 C 
ATOM     34  H   UNL     1      -0.915  -1.158   0.472  0.00  0.00    -0.082 HD
BRANCH  28  36
ATOM     35  C   UNL     1       1.018   0.351  -0.398  0.00  0.00    -0.017 C 
ATOM     36  C   UNL     1       0.861  -1.165  -0.532  0.00  0.00    -0.082 C 
ENDBRANCH  28  36
ENDBRANCH  27  31
ENDBRANCH  26  27
ENDBRANCH  22  26
ENDBRANCH   1  23
TORSDOF 8
