REMARK  Name = ZINC03352852
REMARK  10 active torsions:
REMARK  status: ('A' for Active; 'I' for Inactive)
REMARK    1  A    between atoms: C_1  and  C_2
REMARK    2  A    between atoms: C_2  and  O_3
REMARK    3  A    between atoms: O_3  and  C_4
REMARK    4  A    between atoms: C_4  and  C_6
REMARK    5  A    between atoms: C_10  and  N_11
REMARK    6  A    between atoms: C_12  and  C_14
REMARK    7  A    between atoms: C_14  and  S_15
REMARK    8  A    between atoms: S_15  and  C_16
REMARK    9  A    between atoms: C_19  and  C_22
REMARK   10  A    between atoms: N_20  and  N_21
REMARK                            x       y       z     vdW  Elec       q    Type
REMARK                         _______ _______ _______ _____ _____    ______ ____
ROOT
ATOM      1  N   UNL     1      -1.640  -1.854   0.008  0.00  0.00    -0.279 N 
ATOM      2  C   UNL     1      -1.412  -0.526   0.013  0.00  0.00    +0.228 C 
ATOM      3  O   UNL     1      -2.344   0.250   0.026  0.00  0.00    -0.275 OA
ATOM      4  H   UNL     1      -0.894  -2.474  -0.003  0.00  0.00    +0.155 HD
ENDROOT
BRANCH   1   9
ATOM      5  C   UNL     1      -3.373  -3.650   0.009  0.00  0.00    +0.091 A 
ATOM      6  C   UNL     1      -4.816  -3.888   0.027  0.00  0.00    -0.021 A 
ATOM      7  C   UNL     1      -5.578  -2.780   0.041  0.00  0.00    -0.004 A 
ATOM      8  S   UNL     1      -4.419  -1.434   0.036  0.00  0.00    -0.077 S 
ATOM      9  C   UNL     1      -2.940  -2.334   0.018  0.00  0.00    +0.086 A 
ATOM     10  C   UNL     1      -7.047  -3.105   0.056  0.00  0.00    +0.043 C 
ATOM     11  C   UNL     1      -7.113  -4.587   0.487  0.00  0.00    +0.010 C 
ATOM     12  C   UNL     1      -5.737  -5.109   0.028  0.00  0.00    +0.037 C 
BRANCH   5  13
ATOM     13  C   UNL     1      -2.420  -4.762  -0.013  0.00  0.00    +0.342 C 
ATOM     14  O   UNL     1      -2.013  -5.234   1.032  0.00  0.00    -0.245 OA
BRANCH  13  15
ATOM     15  O   UNL     1      -1.993  -5.262  -1.191  0.00  0.00    -0.461 OA
BRANCH  15  17
ATOM     16  C   UNL     1      -0.684  -6.793  -2.558  0.00  0.00    +0.048 C 
ATOM     17  C   UNL     1      -1.049  -6.363  -1.136  0.00  0.00    +0.229 C 
ENDBRANCH  15  17
ENDBRANCH  13  15
ENDBRANCH   5  13
ENDBRANCH   1   9
BRANCH   2  18
ATOM     18  C   UNL     1       0.002  -0.004   0.002  0.00  0.00    +0.173 C 
BRANCH  18  19
ATOM     19  S   UNL     1      -0.022   1.806   0.012  0.00  0.00    -0.075 S 
BRANCH  19  20
ATOM     20  C   UNL     1       1.708   2.135  -0.003  0.00  0.00    +0.209 A 
ATOM     21  N   UNL     1       2.671   1.242  -0.017  0.00  0.00    -0.120 NA
ATOM     22  N   UNL     1       3.817   1.825  -0.025  0.00  0.00    -0.123 NA
ATOM     23  C   UNL     1       3.655   3.130  -0.017  0.00  0.00    +0.217 A 
ATOM     24  N   UNL     1       2.299   3.368  -0.007  0.00  0.00    -0.221 N 
BRANCH  23  25
ATOM     25  C   UNL     1       4.722   4.143  -0.021  0.00  0.00    +0.173 A 
ATOM     26  C   UNL     1       6.034   3.923  -0.316  0.00  0.00    +0.053 A 
ATOM     27  C   UNL     1       6.689   5.164  -0.200  0.00  0.00    +0.042 A 
ATOM     28  C   UNL     1       5.760   6.070   0.163  0.00  0.00    +0.196 A 
ATOM     29  O   UNL     1       4.572   5.451   0.270  0.00  0.00    -0.460 OA
ENDBRANCH  23  25
BRANCH  24  30
ATOM     30  N   UNL     1       1.674   4.583  -0.001  0.00  0.00    -0.294 N 
ATOM     31  H   UNL     1       1.517   4.904   0.943  0.00  0.00    +0.163 HD
ATOM     32  H   UNL     1       2.198   5.262  -0.532  0.00  0.00    +0.163 HD
ENDBRANCH  24  30
ENDBRANCH  19  20
ENDBRANCH  18  19
ENDBRANCH   2  18
TORSDOF 9
