REMARK  Name = ZINC66158806
REMARK  6 active torsions:
REMARK  status: ('A' for Active; 'I' for Inactive)
REMARK    1  A    between atoms: C_1  and  O_2
REMARK    2  A    between atoms: O_2  and  C_3
REMARK    3  A    between atoms: C_3  and  C_5
REMARK    4  A    between atoms: C_8  and  N_25
REMARK    5  A    between atoms: C_9  and  N_11
REMARK    6  A    between atoms: C_17  and  N_20
REMARK                            x       y       z     vdW  Elec       q    Type
REMARK                         _______ _______ _______ _____ _____    ______ ____
ROOT
ATOM      1  C   UNL     1       1.170  -2.213  -0.753  0.00  0.00    +0.061 A 
ATOM      2  C   UNL     1       0.107  -2.844  -0.100  0.00  0.00    +0.017 A 
ATOM      3  C   UNL     1      -0.330  -4.077  -0.529  0.00  0.00    +0.026 A 
ATOM      4  C   UNL     1       0.283  -4.698  -1.612  0.00  0.00    +0.051 A 
ATOM      5  C   UNL     1       1.346  -4.072  -2.268  0.00  0.00    +0.057 A 
ATOM      6  C   UNL     1       1.785  -2.833  -1.845  0.00  0.00    +0.040 A 
ENDROOT
BRANCH   5   7
ATOM      7  N   UNL     1       1.964  -4.700  -3.359  0.00  0.00    -0.268 N 
ATOM      8  C   UNL     1       2.427  -3.963  -4.388  0.00  0.00    +0.306 C 
ATOM      9  O   UNL     1       2.383  -2.749  -4.334  0.00  0.00    -0.252 OA
ATOM     10  N   UNL     1       2.939  -4.571  -5.476  0.00  0.00    -0.287 N 
ATOM     11  C   UNL     1       3.047  -6.024  -5.675  0.00  0.00    +0.108 C 
ATOM     12  C   UNL     1       3.716  -6.250  -7.048  0.00  0.00    +0.005 C 
ATOM     13  C   UNL     1       4.461  -4.912  -7.296  0.00  0.00    -0.049 C 
ATOM     14  C   UNL     1       3.478  -3.889  -6.668  0.00  0.00    +0.094 C 
ATOM     15  H   UNL     1       2.058  -5.666  -3.374  0.00  0.00    +0.156 HD
BRANCH  13  16
ATOM     16  N   UNL     1       4.630  -4.662  -8.733  0.00  0.00    +0.383 N 
ATOM     17  C   UNL     1       5.421  -3.423  -8.948  0.00  0.00    -0.078 C 
ATOM     18  C   UNL     1       5.978  -3.603 -10.383  0.00  0.00    -0.020 C 
ATOM     19  C   UNL     1       6.292  -5.115 -10.445  0.00  0.00    -0.020 C 
ATOM     20  C   UNL     1       5.415  -5.753  -9.352  0.00  0.00    -0.078 C 
ATOM     21  H   UNL     1       3.730  -4.583  -9.182  0.00  0.00    -0.081 HD
ENDBRANCH  13  16
ENDBRANCH   5   7
BRANCH   4  22
ATOM     22  N   UNL     1      -0.162  -5.945  -2.042  0.00  0.00    -0.328 N 
ATOM     23  C   UNL     1       0.330  -7.244  -1.560  0.00  0.00    +0.105 C 
ATOM     24  C   UNL     1      -0.432  -8.339  -2.335  0.00  0.00    +0.020 C 
ATOM     25  C   UNL     1      -0.906  -7.596  -3.612  0.00  0.00    +0.020 C 
ATOM     26  C   UNL     1      -1.211  -6.182  -3.051  0.00  0.00    +0.105 C 
ENDBRANCH   4  22
BRANCH   1  27
ATOM     27  C   UNL     1       1.639  -0.893  -0.293  0.00  0.00    +0.339 C 
ATOM     28  O   UNL     1       2.559  -0.343  -0.864  0.00  0.00    -0.245 OA
BRANCH  27  30
ATOM     29  C   UNL     1       1.551   0.982   1.150  0.00  0.00    +0.280 C 
ATOM     30  O   UNL     1       1.046  -0.296   0.759  0.00  0.00    -0.464 OA
ENDBRANCH  27  30
ENDBRANCH   1  27
TORSDOF 5
