REMARK  Name = ZINC19454337
REMARK  10 active torsions:
REMARK  status: ('A' for Active; 'I' for Inactive)
REMARK    1  A    between atoms: C_1  and  C_2
REMARK    2  A    between atoms: C_2  and  C_4
REMARK    3  A    between atoms: C_2  and  N_23
REMARK    4  A    between atoms: C_10  and  C_16
REMARK    5  A    between atoms: C_11  and  C_13
REMARK    6  A    between atoms: C_13  and  O_14
REMARK    7  A    between atoms: O_14  and  C_15
REMARK    8  A    between atoms: C_27  and  C_28
REMARK    9  A    between atoms: C_28  and  C_29
REMARK   10  A    between atoms: C_28  and  C_30
REMARK                            x       y       z     vdW  Elec       q    Type
REMARK                         _______ _______ _______ _____ _____    ______ ____
ROOT
ATOM      1  C   UNL     1       0.707  -0.490  -1.238  0.00  0.00    +0.071 A 
ATOM      2  C   UNL     1       0.158  -0.235  -2.495  0.00  0.00    +0.097 A 
ATOM      3  C   UNL     1       0.805  -0.679  -3.613  0.00  0.00    +0.275 A 
ATOM      4  N   UNL     1       1.980  -1.366  -3.469  0.00  0.00    -0.177 N 
ATOM      5  C   UNL     1       2.484  -1.594  -2.215  0.00  0.00    +0.168 A 
ATOM      6  N   UNL     1       1.841  -1.148  -1.131  0.00  0.00    -0.230 NA
ATOM      7  C   UNL     1       3.677  -2.308  -2.383  0.00  0.00    +0.052 A 
ATOM      8  C   UNL     1       3.860  -2.492  -3.758  0.00  0.00    +0.099 A 
ATOM      9  N   UNL     1       2.859  -1.936  -4.396  0.00  0.00    -0.164 NA
ATOM     10  O   UNL     1       0.293  -0.445  -4.842  0.00  0.00    -0.266 OA
ENDROOT
BRANCH   7  11
ATOM     11  C   UNL     1       4.577  -2.779  -1.305  0.00  0.00    -0.012 A 
ATOM     12  C   UNL     1       5.243  -1.859  -0.496  0.00  0.00    +0.009 A 
ATOM     13  C   UNL     1       6.081  -2.304   0.506  0.00  0.00    +0.001 A 
ATOM     14  C   UNL     1       6.261  -3.661   0.708  0.00  0.00    +0.000 A 
ATOM     15  C   UNL     1       5.604  -4.579  -0.091  0.00  0.00    +0.001 A 
ATOM     16  C   UNL     1       4.759  -4.146  -1.092  0.00  0.00    +0.009 A 
ENDBRANCH   7  11
BRANCH   1  18
ATOM     17  C   UNL     1      -0.019   1.526   0.010  0.00  0.00    +0.037 C 
ATOM     18  C   UNL     1       0.002  -0.004   0.002  0.00  0.00    +0.134 C 
BRANCH  18  19
ATOM     19  N   UNL     1       0.711  -0.489   1.189  0.00  0.00    -0.327 N 
ATOM     20  C   UNL     1       2.010  -0.220   1.526  0.00  0.00    +0.105 A 
ATOM     21  C   UNL     1       2.252  -0.860   2.686  0.00  0.00    +0.101 A 
ATOM     22  N   UNL     1       1.131  -1.503   3.047  0.00  0.00    -0.349 N 
ATOM     23  C   UNL     1       0.202  -1.281   2.158  0.00  0.00    +0.090 A 
ATOM     24  H   UNL     1       1.027  -2.044   3.845  0.00  0.00    +0.166 HD
BRANCH  23  25
ATOM     25  C   UNL     1      -1.203  -1.822   2.202  0.00  0.00    +0.047 C 
ATOM     26  C   UNL     1      -1.191  -3.224   2.816  0.00  0.00    +0.015 C 
ATOM     27  C   UNL     1      -2.078  -0.900   3.054  0.00  0.00    +0.015 C 
ENDBRANCH  23  25
ENDBRANCH  18  19
ENDBRANCH   1  18
BRANCH   8  28
ATOM     28  C   UNL     1       5.018  -3.211  -4.400  0.00  0.00    +0.217 C 
BRANCH  28  29
ATOM     29  O   UNL     1       4.700  -4.597  -4.539  0.00  0.00    -0.377 OA
ATOM     30  C   UNL     1       5.738  -5.374  -5.141  0.00  0.00    +0.194 C 
ENDBRANCH  28  29
ENDBRANCH   8  28
TORSDOF 6
