REMARK  Name = ZINC65394319
REMARK  8 active torsions:
REMARK  status: ('A' for Active; 'I' for Inactive)
REMARK    1  A    between atoms: C_1  and  C_2
REMARK    2  A    between atoms: C_5  and  O_27
REMARK    3  A    between atoms: C_10  and  C_12
REMARK    4  A    between atoms: C_12  and  N_13
REMARK    5  A    between atoms: C_21  and  C_23
REMARK    6  A    between atoms: C_23  and  O_25
REMARK    7  A    between atoms: O_25  and  C_26
REMARK    8  A    between atoms: O_27  and  C_28
REMARK                            x       y       z     vdW  Elec       q    Type
REMARK                         _______ _______ _______ _____ _____    ______ ____
ROOT
ATOM      1  C   UNL     1       1.285  -0.666   2.037  0.00  0.00    +0.113 C 
ENDROOT
BRANCH   1  11
ATOM      2  C   UNL     1      -0.018   1.503   0.010  0.00  0.00    +0.042 C 
ATOM      3  C   UNL     1       0.002  -0.004   0.002  0.00  0.00    -0.040 C 
ATOM      4  C   UNL     1       0.009  -0.811  -1.083  0.00  0.00    +0.002 A 
ATOM      5  C   UNL     1      -0.002  -0.540  -2.525  0.00  0.00    +0.055 A 
ATOM      6  C   UNL     1       0.008  -1.576  -3.398  0.00  0.00    +0.121 A 
ATOM      7  C   UNL     1       0.028  -2.916  -2.973  0.00  0.00    +0.047 A 
ATOM      8  C   UNL     1       0.038  -3.265  -1.669  0.00  0.00    +0.029 A 
ATOM      9  C   UNL     1       0.030  -2.223  -0.637  0.00  0.00    +0.043 A 
ATOM     10  N   UNL     1       0.036  -2.286   0.672  0.00  0.00    -0.376 N 
ATOM     11  C   UNL     1       0.026  -0.920   1.206  0.00  0.00    +0.120 C 
ATOM     12  H   UNL     1       0.049  -3.100   1.199  0.00  0.00    +0.160 HD
BRANCH   6  13
ATOM     13  O   UNL     1      -0.002  -1.310  -4.731  0.00  0.00    -0.495 OA
ATOM     14  C   UNL     1       0.009  -2.432  -5.616  0.00  0.00    +0.277 C 
ENDBRANCH   6  13
ENDBRANCH   1  11
BRANCH   1  15
ATOM     15  N   UNL     1       1.354  -1.641   3.132  0.00  0.00    -0.297 NA
ATOM     16  C   UNL     1       0.226  -1.477   4.053  0.00  0.00    +0.101 C 
ATOM     17  C   UNL     1       0.299  -2.484   5.215  0.00  0.00    +0.121 C 
ATOM     18  N   UNL     1       1.595  -2.331   5.835  0.00  0.00    -0.220 NA
ATOM     19  C   UNL     1       2.661  -2.688   4.860  0.00  0.00    +0.115 C 
ATOM     20  C   UNL     1       2.667  -1.584   3.812  0.00  0.00    +0.109 C 
ATOM     21  C   UNL     1       3.868  -2.752   5.752  0.00  0.00    +0.026 C 
ATOM     22  C   UNL     1       3.376  -2.922   6.998  0.00  0.00    +0.124 C 
ATOM     23  N   UNL     1       1.964  -2.984   6.952  0.00  0.00    -0.271 N 
ATOM     24  H   UNL     1       1.378  -3.411   7.596  0.00  0.00    +0.167 HD
BRANCH  22  25
ATOM     25  C   UNL     1       4.189  -3.029   8.224  0.00  0.00    +0.354 C 
ATOM     26  O   UNL     1       5.401  -2.964   8.157  0.00  0.00    -0.244 OA
BRANCH  25  27
ATOM     27  O   UNL     1       3.589  -3.198   9.419  0.00  0.00    -0.464 OA
ATOM     28  C   UNL     1       4.438  -3.293  10.564  0.00  0.00    +0.280 C 
ENDBRANCH  25  27
ENDBRANCH  22  25
ENDBRANCH   1  15
TORSDOF 5
