REMARK  Name = ZINC13387874
REMARK  5 active torsions:
REMARK  status: ('A' for Active; 'I' for Inactive)
REMARK    1  A    between atoms: C_3  and  C_6
REMARK    2  A    between atoms: C_6  and  N_7
REMARK    3  A    between atoms: C_8  and  C_10
REMARK    4  A    between atoms: C_16  and  C_25
REMARK    5  A    between atoms: C_19  and  C_21
REMARK                            x       y       z     vdW  Elec       q    Type
REMARK                         _______ _______ _______ _____ _____    ______ ____
ROOT
ATOM      1  C   UNL     1       5.930   0.556   2.959  0.00  0.00    +0.096 A 
ATOM      2  C   UNL     1       5.151   0.562   4.143  0.00  0.00    +0.149 A 
ATOM      3  N   UNL     1       5.962   0.540   5.166  0.00  0.00    -0.177 NA
ATOM      4  N   UNL     1       7.278   0.518   4.707  0.00  0.00    -0.238 N 
ATOM      5  C   UNL     1       7.255   0.523   3.353  0.00  0.00    +0.130 A 
ATOM      6  N   UNL     1       8.403   0.504   2.581  0.00  0.00    -0.322 N 
ATOM      7  C   UNL     1       9.671   0.761   3.292  0.00  0.00    +0.104 C 
ATOM      8  C   UNL     1       9.656  -0.022   4.609  0.00  0.00    +0.063 C 
ATOM      9  C   UNL     1       8.513   0.487   5.499  0.00  0.00    +0.215 C 
ATOM     10  H   UNL     1       8.376   0.331   1.627  0.00  0.00    +0.148 HD
ENDROOT
BRANCH   7  11
ATOM     11  C   UNL     1      10.829   0.307   2.441  0.00  0.00    -0.024 A 
ATOM     12  C   UNL     1      10.733  -0.865   1.714  0.00  0.00    +0.009 A 
ATOM     13  C   UNL     1      11.793  -1.284   0.931  0.00  0.00    +0.050 A 
ATOM     14  C   UNL     1      12.954  -0.531   0.874  0.00  0.00    +0.166 A 
ATOM     15  C   UNL     1      13.050   0.649   1.607  0.00  0.00    +0.167 A 
ATOM     16  C   UNL     1      11.982   1.067   2.384  0.00  0.00    +0.055 A 
ATOM     17  O   UNL     1      14.279   1.201   1.385  0.00  0.00    -0.453 OA
ATOM     18  C   UNL     1      15.083   0.141   0.835  0.00  0.00    +0.466 C 
ATOM     19  O   UNL     1      14.122  -0.719   0.194  0.00  0.00    -0.453 OA
ENDBRANCH   7  11
BRANCH   1  21
ATOM     20  N   UNL     1       4.101   0.607   1.347  0.00  0.00    -0.304 N 
ATOM     21  C   UNL     1       5.428   0.575   1.580  0.00  0.00    +0.249 C 
ATOM     22  O   UNL     1       6.209   0.561   0.647  0.00  0.00    -0.270 OA
ATOM     23  H   UNL     1       3.478   0.617   2.090  0.00  0.00    +0.149 HD
BRANCH  20  24
ATOM     24  C   UNL     1       3.599   0.625  -0.029  0.00  0.00    +0.179 C 
BRANCH  24  27
ATOM     25  C   UNL     1      -0.016   1.341   0.009  0.00  0.00    +0.041 A 
ATOM     26  C   UNL     1       1.331   1.769  -0.001  0.00  0.00    +0.046 A 
ATOM     27  C   UNL     1       2.092   0.660  -0.014  0.00  0.00    +0.122 A 
ATOM     28  O   UNL     1       1.282  -0.411  -0.012  0.00  0.00    -0.466 OA
ATOM     29  C   UNL     1       0.002  -0.004   0.002  0.00  0.00    +0.195 A 
ENDBRANCH  24  27
ENDBRANCH  20  24
ENDBRANCH   1  21
BRANCH   9  30
ATOM     30  C   UNL     1       8.338  -0.465   6.684  0.00  0.00    +0.412 C 
ATOM     31  F   UNL     1       8.056  -1.751   6.212  0.00  0.00    -0.168 F 
ATOM     32  F   UNL     1       9.517  -0.492   7.437  0.00  0.00    -0.168 F 
ATOM     33  F   UNL     1       7.282  -0.020   7.487  0.00  0.00    -0.168 F 
ENDBRANCH   9  30
TORSDOF 5
