REMARK  Name = ZINC08858687
REMARK  10 active torsions:
REMARK  status: ('A' for Active; 'I' for Inactive)
REMARK    1  A    between atoms: C_1  and  O_2
REMARK    2  A    between atoms: O_2  and  C_3
REMARK    3  A    between atoms: C_6  and  C_9
REMARK    4  A    between atoms: N_11  and  C_12
REMARK    5  A    between atoms: C_12  and  C_13
REMARK    6  A    between atoms: C_12  and  N_22
REMARK    7  A    between atoms: C_16  and  N_19
REMARK    8  A    between atoms: C_23  and  C_25
REMARK    9  A    between atoms: C_28  and  O_31
REMARK   10  A    between atoms: O_31  and  C_32
REMARK                            x       y       z     vdW  Elec       q    Type
REMARK                         _______ _______ _______ _____ _____    ______ ____
ROOT
ATOM      1  C   UNL     1       2.450  -4.279  -0.043  0.00  0.00    +0.192 C 
ENDROOT
BRANCH   1   2
ATOM      2  C   UNL     1       3.472  -4.770   0.949  0.00  0.00    -0.009 A 
ATOM      3  C   UNL     1       3.757  -4.021   2.075  0.00  0.00    +0.009 A 
ATOM      4  C   UNL     1       4.692  -4.473   2.988  0.00  0.00    +0.033 A 
ATOM      5  C   UNL     1       5.349  -5.669   2.769  0.00  0.00    +0.126 A 
ATOM      6  C   UNL     1       5.068  -6.416   1.640  0.00  0.00    +0.033 A 
ATOM      7  C   UNL     1       4.130  -5.966   0.730  0.00  0.00    +0.009 A 
BRANCH   5   8
ATOM      8  N   UNL     1       6.354  -6.151   3.743  0.00  0.00    +0.056 N 
ATOM      9  O   UNL     1       6.932  -7.205   3.551  0.00  0.00    -0.126 OA
ATOM     10  O   UNL     1       6.601  -5.493   4.738  0.00  0.00    -0.126 OA
ENDBRANCH   5   8
ENDBRANCH   1   2
BRANCH   1  13
ATOM     11  C   UNL     1       1.247  -2.160  -0.021  0.00  0.00    +0.246 C 
ATOM     12  O   UNL     1       0.204  -2.785  -0.014  0.00  0.00    -0.270 OA
ATOM     13  N   UNL     1       2.425  -2.814  -0.036  0.00  0.00    -0.289 N 
ATOM     14  H   UNL     1       3.257  -2.315  -0.041  0.00  0.00    +0.151 HD
BRANCH  11  18
ATOM     15  C   UNL     1       1.177   2.086   0.002  0.00  0.00    +0.120 A 
ATOM     16  C   UNL     1      -0.017   1.373   0.010  0.00  0.00    +0.046 A 
ATOM     17  C   UNL     1       0.002  -0.004   0.002  0.00  0.00    +0.016 A 
ATOM     18  C   UNL     1       1.223  -0.684  -0.013  0.00  0.00    +0.037 A 
ATOM     19  C   UNL     1       2.420   0.036  -0.021  0.00  0.00    +0.016 A 
ATOM     20  C   UNL     1       2.393   1.413  -0.013  0.00  0.00    +0.046 A 
BRANCH  15  22
ATOM     21  C   UNL     1       2.416   4.113   0.001  0.00  0.00    +0.277 C 
ATOM     22  O   UNL     1       1.154   3.443   0.009  0.00  0.00    -0.495 OA
ENDBRANCH  15  22
ENDBRANCH  11  18
ENDBRANCH   1  13
BRANCH   1  23
ATOM     23  N   UNL     1       2.802  -4.755  -1.383  0.00  0.00    -0.289 N 
ATOM     24  C   UNL     1       1.852  -5.276  -2.185  0.00  0.00    +0.246 C 
ATOM     25  O   UNL     1       0.703  -5.351  -1.796  0.00  0.00    -0.270 OA
ATOM     26  H   UNL     1       3.719  -4.694  -1.694  0.00  0.00    +0.151 HD
BRANCH  24  27
ATOM     27  C   UNL     1       2.208  -5.755  -3.535  0.00  0.00    +0.037 A 
ATOM     28  C   UNL     1       3.527  -5.664  -3.986  0.00  0.00    +0.016 A 
ATOM     29  C   UNL     1       3.855  -6.117  -5.245  0.00  0.00    +0.046 A 
ATOM     30  C   UNL     1       2.874  -6.654  -6.070  0.00  0.00    +0.120 A 
ATOM     31  C   UNL     1       1.560  -6.741  -5.627  0.00  0.00    +0.046 A 
ATOM     32  C   UNL     1       1.224  -6.296  -4.368  0.00  0.00    +0.016 A 
BRANCH  30  33
ATOM     33  O   UNL     1       3.200  -7.094  -7.312  0.00  0.00    -0.495 OA
ATOM     34  C   UNL     1       4.569  -6.974  -7.703  0.00  0.00    +0.277 C 
ENDBRANCH  30  33
ENDBRANCH  24  27
ENDBRANCH   1  23
TORSDOF 8
