REMARK  Name = ZINC43213889
REMARK  14 active torsions:
REMARK  status: ('A' for Active; 'I' for Inactive)
REMARK    1  A    between atoms: C_1  and  C_2
REMARK    2  A    between atoms: C_2  and  C_3
REMARK    3  A    between atoms: C_2  and  C_4
REMARK    4  A    between atoms: C_4  and  C_6
REMARK    5  A    between atoms: C_4  and  N_37
REMARK    6  A    between atoms: C_8  and  C_11
REMARK    7  A    between atoms: N_13  and  C_14
REMARK    8  A    between atoms: C_14  and  C_16
REMARK    9  A    between atoms: C_14  and  C_25
REMARK   10  A    between atoms: C_16  and  S_17
REMARK   11  A    between atoms: S_17  and  C_18
REMARK   12  A    between atoms: C_18  and  C_19
REMARK   13  A    between atoms: N_27  and  C_28
REMARK   14  A    between atoms: C_31  and  N_34
REMARK                            x       y       z     vdW  Elec       q    Type
REMARK                         _______ _______ _______ _____ _____    ______ ____
ROOT
ATOM      1  C   UNL     1       5.177   4.019  -3.913  0.00  0.00    +0.169 C 
ENDROOT
BRANCH   1   4
ATOM      2  C   UNL     1       4.777   2.185  -2.360  0.00  0.00    +0.266 C 
ATOM      3  O   UNL     1       5.943   2.253  -2.024  0.00  0.00    -0.268 OA
ATOM      4  N   UNL     1       4.295   3.024  -3.298  0.00  0.00    -0.298 N 
ATOM      5  H   UNL     1       3.364   2.969  -3.566  0.00  0.00    +0.150 HD
BRANCH   2   8
ATOM      6  C   UNL     1       2.131   0.022  -1.272  0.00  0.00    +0.182 A 
ATOM      7  N   UNL     1       2.570   0.993  -2.016  0.00  0.00    -0.210 NA
ATOM      8  C   UNL     1       3.889   1.184  -1.741  0.00  0.00    +0.163 A 
ATOM      9  C   UNL     1       4.234   0.277  -0.787  0.00  0.00    +0.230 A 
ATOM     10  O   UNL     1       3.131  -0.433  -0.504  0.00  0.00    -0.449 OA
BRANCH   6  11
ATOM     11  C   UNL     1       0.719  -0.505  -1.269  0.00  0.00    +0.015 C 
BRANCH  11  12
ATOM     12  N   UNL     1       0.744  -1.973  -1.274  0.00  0.00    +0.386 N 
ATOM     13  H   UNL     1      -0.201  -2.326  -1.272  0.00  0.00    -0.089 HD
ATOM     14  H   UNL     1       1.222  -2.299  -2.100  0.00  0.00    -0.089 HD
ATOM     15  H   UNL     1       1.228  -2.304  -0.453  0.00  0.00    -0.089 HD
ENDBRANCH  11  12
BRANCH  11  17
ATOM     16  C   UNL     1      -0.033   1.519  -0.010  0.00  0.00    +0.006 C 
ATOM     17  C   UNL     1      -0.007  -0.011  -0.015  0.00  0.00    -0.023 C 
ATOM     18  C   UNL     1      -1.440  -0.546  -0.012  0.00  0.00    +0.006 C 
ENDBRANCH  11  17
ENDBRANCH   6  11
ENDBRANCH   2   8
ENDBRANCH   1   4
BRANCH   1  19
ATOM     19  C   UNL     1       4.354   5.176  -4.419  0.00  0.00    +0.238 C 
ATOM     20  O   UNL     1       3.149   5.170  -4.279  0.00  0.00    -0.273 OA
ATOM     21  N   UNL     1       4.957   6.217  -5.027  0.00  0.00    -0.284 N 
ATOM     22  H   UNL     1       5.925   6.254  -5.079  0.00  0.00    +0.155 HD
BRANCH  21  23
ATOM     23  C   UNL     1       4.186   7.244  -5.582  0.00  0.00    +0.034 A 
ATOM     24  C   UNL     1       4.601   7.872  -6.749  0.00  0.00    +0.025 A 
ATOM     25  C   UNL     1       3.838   8.886  -7.295  0.00  0.00    +0.034 A 
ATOM     26  C   UNL     1       2.663   9.276  -6.680  0.00  0.00    +0.126 A 
ATOM     27  C   UNL     1       2.247   8.653  -5.518  0.00  0.00    +0.034 A 
ATOM     28  C   UNL     1       3.002   7.635  -4.970  0.00  0.00    +0.025 A 
BRANCH  26  29
ATOM     29  N   UNL     1       1.848  10.363  -7.268  0.00  0.00    +0.056 N 
ATOM     30  O   UNL     1       2.210  10.909  -8.284  0.00  0.00    -0.126 OA
ATOM     31  O   UNL     1       0.820  10.705  -6.731  0.00  0.00    -0.126 OA
ENDBRANCH  26  29
ENDBRANCH  21  23
ENDBRANCH   1  19
BRANCH   1  32
ATOM     32  C   UNL     1       5.930   3.380  -5.082  0.00  0.00    +0.101 C 
BRANCH  32  33
ATOM     33  S   UNL     1       6.921   1.987  -4.473  0.00  0.00    -0.154 S 
BRANCH  33  34
ATOM     34  C   UNL     1       7.740   1.348  -5.960  0.00  0.00    +0.104 C 
BRANCH  34  35
ATOM     35  C   UNL     1       8.606   0.172  -5.590  0.00  0.00    -0.038 A 
ATOM     36  C   UNL     1       9.924   0.372  -5.225  0.00  0.00    +0.004 A 
ATOM     37  C   UNL     1      10.719  -0.707  -4.886  0.00  0.00    +0.000 A 
ATOM     38  C   UNL     1      10.196  -1.986  -4.911  0.00  0.00    +0.000 A 
ATOM     39  C   UNL     1       8.877  -2.186  -5.276  0.00  0.00    +0.000 A 
ATOM     40  C   UNL     1       8.081  -1.107  -5.611  0.00  0.00    +0.004 A 
ENDBRANCH  34  35
ENDBRANCH  33  34
ENDBRANCH  32  33
ENDBRANCH   1  32
TORSDOF 12
