REMARK  Name = ZINC63328826
REMARK  5 active torsions:
REMARK  status: ('A' for Active; 'I' for Inactive)
REMARK    1  A    between atoms: C_7  and  C_10
REMARK    2  A    between atoms: C_10  and  C_11
REMARK    3  A    between atoms: C_11  and  N_12
REMARK    4  A    between atoms: C_13  and  C_32
REMARK    5  A    between atoms: C_17  and  C_25
REMARK                            x       y       z     vdW  Elec       q    Type
REMARK                         _______ _______ _______ _____ _____    ______ ____
ROOT
ATOM      1  N   UNL     1      -0.691  -4.883  -1.645  0.00  0.00    -0.289 N 
ATOM      2  C   UNL     1      -0.077  -6.201  -1.452  0.00  0.00    +0.150 C 
ATOM      3  C   UNL     1      -1.207  -7.115  -0.933  0.00  0.00    +0.080 C 
ATOM      4  C   UNL     1      -1.214  -8.416  -1.769  0.00  0.00    +0.136 C 
ATOM      5  N   UNL     1      -2.013  -8.083  -2.954  0.00  0.00    -0.305 N 
ATOM      6  N   UNL     1      -2.664  -7.049  -2.820  0.00  0.00    -0.203 NA
ATOM      7  C   UNL     1      -2.473  -6.401  -1.499  0.00  0.00    +0.218 C 
ATOM      8  C   UNL     1      -2.031  -4.966  -1.676  0.00  0.00    +0.243 C 
ATOM      9  O   UNL     1      -2.780  -4.025  -1.828  0.00  0.00    -0.273 OA
ATOM     10  H   UNL     1      -2.027  -8.623  -3.760  0.00  0.00    +0.183 HD
ENDROOT
BRANCH   4  11
ATOM     11  C   UNL     1       0.190  -8.795  -2.167  0.00  0.00    -0.023 A 
ATOM     12  C   UNL     1       1.248  -8.501  -1.327  0.00  0.00    +0.008 A 
ATOM     13  C   UNL     1       2.536  -8.848  -1.691  0.00  0.00    +0.038 A 
ATOM     14  C   UNL     1       2.765  -9.489  -2.896  0.00  0.00    +0.123 A 
ATOM     15  C   UNL     1       1.704  -9.782  -3.736  0.00  0.00    +0.038 A 
ATOM     16  C   UNL     1       0.417  -9.440  -3.368  0.00  0.00    +0.008 A 
ATOM     17  F   UNL     1       4.024  -9.828  -3.253  0.00  0.00    -0.205 F 
ENDBRANCH   4  11
BRANCH   2  18
ATOM     18  C   UNL     1       0.457  -6.723  -2.760  0.00  0.00    +0.126 A 
ATOM     19  C   UNL     1      -0.258  -6.907  -3.885  0.00  0.00    +0.046 A 
ATOM     20  C   UNL     1       0.634  -7.408  -4.861  0.00  0.00    +0.041 A 
ATOM     21  C   UNL     1       1.841  -7.500  -4.274  0.00  0.00    +0.195 A 
ATOM     22  O   UNL     1       1.729  -7.078  -3.004  0.00  0.00    -0.466 OA
ENDBRANCH   2  18
BRANCH   1  23
ATOM     23  C   UNL     1       0.062  -3.633  -1.781  0.00  0.00    +0.113 C 
BRANCH  23  24
ATOM     24  C   UNL     1       0.279  -3.016  -0.398  0.00  0.00    +0.052 C 
BRANCH  24  31
ATOM     25  C   UNL     1      -1.027   1.373  -0.703  0.00  0.00    +0.001 A 
ATOM     26  C   UNL     1       0.043   2.270  -0.824  0.00  0.00    +0.002 A 
ATOM     27  C   UNL     1       1.332   1.870  -0.847  0.00  0.00    +0.026 A 
ATOM     28  C   UNL     1       1.657   0.489  -0.747  0.00  0.00    +0.043 A 
ATOM     29  N   UNL     1       2.808  -0.139  -0.746  0.00  0.00    -0.380 N 
ATOM     30  C   UNL     1       2.556  -1.578  -0.616  0.00  0.00    +0.144 C 
ATOM     31  C   UNL     1       1.054  -1.731  -0.537  0.00  0.00    -0.040 C 
ATOM     32  C   UNL     1       0.545  -0.480  -0.618  0.00  0.00    -0.001 A 
ATOM     33  C   UNL     1      -0.828   0.039  -0.601  0.00  0.00    +0.010 A 
ATOM     34  H   UNL     1       3.681   0.279  -0.819  0.00  0.00    +0.160 HD
ENDBRANCH  24  31
ENDBRANCH  23  24
ENDBRANCH   1  23
TORSDOF 5
