REMARK  Name = ZINC45513246
REMARK  5 active torsions:
REMARK  status: ('A' for Active; 'I' for Inactive)
REMARK    1  A    between atoms: C_1  and  C_2
REMARK    2  A    between atoms: C_2  and  C_4
REMARK    3  A    between atoms: C_2  and  N_13
REMARK    4  A    between atoms: C_8  and  N_10
REMARK    5  A    between atoms: C_16  and  N_19
REMARK                            x       y       z     vdW  Elec       q    Type
REMARK                         _______ _______ _______ _____ _____    ______ ____
ROOT
ATOM      1  N   UNL     1      -1.376  -0.512   0.012  0.00  0.00    +0.384 N 
ATOM      2  C   UNL     1      -2.065  -0.031   1.216  0.00  0.00    -0.076 C 
ATOM      3  C   UNL     1      -3.524  -0.491   1.192  0.00  0.00    +0.006 C 
ATOM      4  C   UNL     1      -3.571  -2.021   1.152  0.00  0.00    +0.089 C 
ATOM      5  C   UNL     1      -2.787  -2.515  -0.067  0.00  0.00    +0.006 C 
ATOM      6  C   UNL     1      -1.355  -1.980   0.004  0.00  0.00    -0.076 C 
ATOM      7  H   UNL     1      -1.863  -0.180  -0.807  0.00  0.00    -0.081 HD
ENDROOT
BRANCH   4   8
ATOM      8  N   UNL     1      -4.963  -2.466   1.052  0.00  0.00    -0.289 N 
ATOM      9  C   UNL     1      -5.630  -3.270   1.973  0.00  0.00    +0.070 A 
ATOM     10  C   UNL     1      -5.253  -3.861   3.169  0.00  0.00    +0.028 A 
ATOM     11  C   UNL     1      -6.162  -4.623   3.877  0.00  0.00    +0.002 A 
ATOM     12  C   UNL     1      -7.449  -4.798   3.397  0.00  0.00    +0.002 A 
ATOM     13  C   UNL     1      -7.834  -4.213   2.206  0.00  0.00    +0.028 A 
ATOM     14  C   UNL     1      -6.928  -3.446   1.490  0.00  0.00    +0.067 A 
ATOM     15  N   UNL     1      -7.009  -2.744   0.289  0.00  0.00    -0.306 N 
ATOM     16  H   UNL     1      -7.792  -2.682  -0.280  0.00  0.00    +0.170 HD
ATOM     17  C   UNL     1      -5.818  -2.162   0.057  0.00  0.00    +0.328 A 
ATOM     18  O   UNL     1      -5.552  -1.470  -0.908  0.00  0.00    -0.247 OA
ENDBRANCH   4   8
BRANCH   1  20
ATOM     19  C   UNL     1      -0.019   1.526   0.010  0.00  0.00    -0.008 C 
ATOM     20  C   UNL     1       0.002  -0.004   0.002  0.00  0.00    -0.041 C 
BRANCH  20  21
ATOM     21  C   UNL     1       0.707  -0.490  -1.238  0.00  0.00    -0.059 A 
ATOM     22  C   UNL     1       0.037  -0.522  -2.447  0.00  0.00    +0.002 A 
ATOM     23  C   UNL     1       0.684  -0.967  -3.584  0.00  0.00    +0.002 A 
ATOM     24  C   UNL     1       2.002  -1.381  -3.513  0.00  0.00    +0.033 A 
ATOM     25  C   UNL     1       2.672  -1.349  -2.304  0.00  0.00    +0.126 A 
ATOM     26  C   UNL     1       2.026  -0.899  -1.167  0.00  0.00    +0.034 A 
BRANCH  25  27
ATOM     27  N   UNL     1       4.082  -1.792  -2.228  0.00  0.00    +0.056 N 
ATOM     28  O   UNL     1       4.647  -2.183  -3.222  0.00  0.00    -0.126 OA
ATOM     29  O   UNL     1       4.668  -1.764  -1.171  0.00  0.00    -0.126 OA
ENDBRANCH  25  27
ENDBRANCH  20  21
ENDBRANCH   1  20
TORSDOF 4
