REMARK  Name = ZINC20287434
REMARK  11 active torsions:
REMARK  status: ('A' for Active; 'I' for Inactive)
REMARK    1  A    between atoms: C_1  and  C_2
REMARK    2  A    between atoms: C_2  and  N_23
REMARK    3  A    between atoms: C_4  and  C_18
REMARK    4  A    between atoms: N_6  and  C_9
REMARK    5  A    between atoms: C_12  and  N_15
REMARK    6  A    between atoms: C_18  and  C_19
REMARK    7  A    between atoms: C_19  and  O_21
REMARK    8  A    between atoms: O_21  and  C_22
REMARK    9  A    between atoms: N_23  and  C_24
REMARK   10  A    between atoms: C_24  and  C_25
REMARK   11  A    between atoms: C_25  and  C_26
REMARK                            x       y       z     vdW  Elec       q    Type
REMARK                         _______ _______ _______ _____ _____    ______ ____
ROOT
ATOM      1  C   UNL     1      -0.005   1.503   0.009  0.00  0.00    +0.061 C 
ATOM      2  C   UNL     1      -0.001  -0.004   0.002  0.00  0.00    +0.015 C 
ATOM      3  C   UNL     1       0.126  -0.701   1.192  0.00  0.00    +0.079 C 
ATOM      4  C   UNL     1       0.144  -0.150   2.555  0.00  0.00    +0.084 C 
ATOM      5  N   UNL     1       0.280  -1.145   3.378  0.00  0.00    -0.176 NA
ATOM      6  N   UNL     1       0.360  -2.359   2.696  0.00  0.00    -0.156 N 
ATOM      7  C   UNL     1       0.266  -2.152   1.367  0.00  0.00    +0.274 C 
ATOM      8  O   UNL     1       0.294  -2.998   0.489  0.00  0.00    -0.268 OA
ENDROOT
BRANCH   6   9
ATOM      9  C   UNL     1       0.510  -3.612   3.304  0.00  0.00    +0.060 A 
ATOM     10  C   UNL     1       0.584  -4.759   2.525  0.00  0.00    +0.028 A 
ATOM     11  C   UNL     1       0.732  -5.993   3.128  0.00  0.00    +0.034 A 
ATOM     12  C   UNL     1       0.805  -6.087   4.506  0.00  0.00    +0.126 A 
ATOM     13  C   UNL     1       0.731  -4.947   5.284  0.00  0.00    +0.034 A 
ATOM     14  C   UNL     1       0.590  -3.709   4.688  0.00  0.00    +0.028 A 
BRANCH  12  15
ATOM     15  N   UNL     1       0.963  -7.411   5.148  0.00  0.00    +0.056 N 
ATOM     16  O   UNL     1       1.028  -8.409   4.469  0.00  0.00    -0.126 OA
ATOM     17  O   UNL     1       1.027  -7.495   6.353  0.00  0.00    -0.126 OA
ENDBRANCH  12  15
ENDBRANCH   6   9
BRANCH   2  18
ATOM     18  N   UNL     1      -0.121  -0.674  -1.162  0.00  0.00    -0.346 N 
ATOM     19  H   UNL     1      -0.118  -1.644  -1.166  0.00  0.00    +0.146 HD
BRANCH  18  20
ATOM     20  C   UNL     1      -0.255   0.064  -2.421  0.00  0.00    +0.106 C 
BRANCH  20  21
ATOM     21  C   UNL     1      -0.373  -0.926  -3.582  0.00  0.00    +0.056 C 
BRANCH  21  22
ATOM     22  C   UNL     1      -0.511  -0.167  -4.877  0.00  0.00    -0.021 A 
ATOM     23  C   UNL     1      -1.659   0.155  -5.495  0.00  0.00    +0.087 A 
ATOM     24  N   UNL     1      -1.391   0.845  -6.646  0.00  0.00    -0.360 N 
ATOM     25  H   UNL     1      -2.060   1.183  -7.261  0.00  0.00    +0.165 HD
ATOM     26  C   UNL     1      -0.029   0.986  -6.800  0.00  0.00    +0.047 A 
ATOM     27  C   UNL     1       0.581   0.364  -5.696  0.00  0.00    +0.006 A 
ATOM     28  C   UNL     1       1.972   0.354  -5.580  0.00  0.00    +0.048 A 
ATOM     29  C   UNL     1       2.740   0.961  -6.551  0.00  0.00    +0.124 A 
ATOM     30  C   UNL     1       2.137   1.579  -7.640  0.00  0.00    +0.040 A 
ATOM     31  C   UNL     1       0.765   1.588  -7.771  0.00  0.00    +0.029 A 
ATOM     32  F   UNL     1       4.087   0.954  -6.444  0.00  0.00    -0.205 F 
ENDBRANCH  21  22
ENDBRANCH  20  21
ENDBRANCH  18  20
ENDBRANCH   2  18
BRANCH   4  33
ATOM     33  C   UNL     1       0.026   1.305   2.929  0.00  0.00    +0.178 C 
BRANCH  33  34
ATOM     34  C   UNL     1       0.210   1.457   4.417  0.00  0.00    +0.313 C 
ATOM     35  O   UNL     1       0.417   0.484   5.103  0.00  0.00    -0.250 OA
BRANCH  34  36
ATOM     36  O   UNL     1       0.146   2.674   4.980  0.00  0.00    -0.468 OA
ATOM     37  C   UNL     1       0.330   2.745   6.395  0.00  0.00    +0.280 C 
ENDBRANCH  34  36
ENDBRANCH  33  34
ENDBRANCH   4  33
TORSDOF 9
