REMARK  Name = ZINC39977809
REMARK  3 active torsions:
REMARK  status: ('A' for Active; 'I' for Inactive)
REMARK    1  A    between atoms: C_1  and  C_2
REMARK    2  A    between atoms: C_8  and  C_10
REMARK    3  A    between atoms: C_15  and  C_20
REMARK                            x       y       z     vdW  Elec       q    Type
REMARK                         _______ _______ _______ _____ _____    ______ ____
ROOT
ATOM      1  C   UNL     1       0.089  -5.154   3.120  0.00  0.00    +0.039 A 
ATOM      2  C   UNL     1       0.082  -4.613   4.476  0.00  0.00    +0.015 A 
ATOM      3  C   UNL     1       0.097  -5.410   5.560  0.00  0.00    +0.028 A 
ATOM      4  C   UNL     1       0.122  -6.870   5.396  0.00  0.00    +0.060 A 
ATOM      5  N   UNL     1       0.141  -7.848   6.259  0.00  0.00    -0.356 N 
ATOM      6  C   UNL     1       0.162  -9.104   5.500  0.00  0.00    +0.281 C 
ATOM      7  N   UNL     1       0.153  -8.730   4.081  0.00  0.00    -0.356 N 
ATOM      8  C   UNL     1       0.130  -7.429   4.019  0.00  0.00    +0.061 A 
ATOM      9  C   UNL     1       0.106  -6.494   2.885  0.00  0.00    +0.040 A 
ATOM     10  H   UNL     1       0.162  -9.341   3.327  0.00  0.00    +0.162 HD
ATOM     11  H   UNL     1       0.141  -7.760   7.225  0.00  0.00    +0.162 HD
ENDROOT
BRANCH   1  19
ATOM     12  C   UNL     1      -0.018   1.503   0.010  0.00  0.00    +0.066 C 
ATOM     13  C   UNL     1       0.002  -0.004   0.002  0.00  0.00    +0.047 A 
ATOM     14  C   UNL     1       0.006  -0.706  -1.158  0.00  0.00    +0.071 A 
ATOM     15  S   UNL     1       0.032  -2.379  -0.535  0.00  0.00    -0.060 S 
ATOM     16  C   UNL     1       0.036  -2.015   1.108  0.00  0.00    +0.165 A 
ATOM     17  N   UNL     1       0.023  -0.699   1.124  0.00  0.00    -0.230 NA
ATOM     18  N   UNL     1       0.053  -2.891   2.186  0.00  0.00    -0.261 N 
ATOM     19  C   UNL     1       0.071  -4.221   1.972  0.00  0.00    +0.250 C 
ATOM     20  O   UNL     1       0.071  -4.655   0.837  0.00  0.00    -0.270 OA
ATOM     21  H   UNL     1       0.053  -2.545   3.092  0.00  0.00    +0.157 HD
ENDBRANCH   1  19
BRANCH   6  22
ATOM     22  C   UNL     1       1.430  -9.895   5.829  0.00  0.00    +0.428 C 
ATOM     23  F   UNL     1       1.442 -10.213   7.191  0.00  0.00    -0.167 F 
ATOM     24  F   UNL     1       1.453 -11.073   5.075  0.00  0.00    -0.167 F 
ATOM     25  F   UNL     1       2.554  -9.122   5.520  0.00  0.00    -0.167 F 
ENDBRANCH   6  22
TORSDOF 2
