REMARK  Name = ZINC36504756
REMARK  12 active torsions:
REMARK  status: ('A' for Active; 'I' for Inactive)
REMARK    1  A    between atoms: C_1  and  C_2
REMARK    2  A    between atoms: C_2  and  C_3
REMARK    3  A    between atoms: C_2  and  C_4
REMARK    4  A    between atoms: C_2  and  N_5
REMARK    5  A    between atoms: C_6  and  C_8
REMARK    6  A    between atoms: C_8  and  C_10
REMARK    7  A    between atoms: C_8  and  N_17
REMARK    8  A    between atoms: C_13  and  O_16
REMARK    9  A    between atoms: N_17  and  C_18
REMARK   10  A    between atoms: C_18  and  C_19
REMARK   11  A    between atoms: C_24  and  C_26
REMARK   12  A    between atoms: C_30  and  N_32
REMARK                            x       y       z     vdW  Elec       q    Type
REMARK                         _______ _______ _______ _____ _____    ______ ____
ROOT
ATOM      1  N   UNL     1      -0.829   2.990  -6.990  0.00  0.00    -0.275 N 
ATOM      2  C   UNL     1       0.131   2.044  -7.002  0.00  0.00    +0.248 C 
ATOM      3  O   UNL     1       0.823   1.868  -6.018  0.00  0.00    -0.270 OA
ENDROOT
BRANCH   2   4
ATOM      4  C   UNL     1       0.343   1.221  -8.211  0.00  0.00    +0.039 A 
ATOM      5  C   UNL     1      -0.716   0.495  -8.759  0.00  0.00    +0.013 A 
ATOM      6  C   UNL     1      -0.512  -0.271  -9.888  0.00  0.00    +0.003 A 
ATOM      7  C   UNL     1       0.739  -0.321 -10.477  0.00  0.00    +0.033 A 
ATOM      8  C   UNL     1       1.793   0.396  -9.939  0.00  0.00    +0.127 A 
ATOM      9  C   UNL     1       1.601   1.171  -8.813  0.00  0.00    +0.045 A 
BRANCH   8  10
ATOM     10  N   UNL     1       3.128   0.336 -10.575  0.00  0.00    +0.056 N 
ATOM     11  O   UNL     1       3.297  -0.339 -11.564  0.00  0.00    -0.126 OA
ATOM     12  O   UNL     1       4.050   0.962 -10.105  0.00  0.00    -0.126 OA
ENDBRANCH   8  10
ENDBRANCH   2   4
BRANCH   1  13
ATOM     13  C   UNL     1      -1.742   3.121  -8.128  0.00  0.00    +0.193 C 
BRANCH  13  14
ATOM     14  C   UNL     1      -3.126   2.692  -7.714  0.00  0.00    -0.018 A 
ATOM     15  C   UNL     1      -3.331   2.133  -6.466  0.00  0.00    +0.009 A 
ATOM     16  C   UNL     1      -4.598   1.738  -6.084  0.00  0.00    +0.046 A 
ATOM     17  C   UNL     1      -5.666   1.903  -6.954  0.00  0.00    +0.117 A 
ATOM     18  C   UNL     1      -5.458   2.464  -8.206  0.00  0.00    +0.046 A 
ATOM     19  C   UNL     1      -4.190   2.862  -8.581  0.00  0.00    +0.009 A 
BRANCH  17  20
ATOM     20  O   UNL     1      -6.914   1.515  -6.581  0.00  0.00    -0.507 OA
ATOM     21  H   UNL     1      -7.425   2.206  -6.137  0.00  0.00    +0.292 HD
ENDBRANCH  17  20
ENDBRANCH  13  14
BRANCH  13  23
ATOM     22  N   UNL     1      -2.370   4.883  -9.747  0.00  0.00    -0.309 N 
ATOM     23  C   UNL     1      -1.777   4.558  -8.581  0.00  0.00    +0.239 C 
ATOM     24  O   UNL     1      -1.271   5.422  -7.897  0.00  0.00    -0.273 OA
ATOM     25  H   UNL     1      -2.844   4.206 -10.255  0.00  0.00    +0.149 HD
BRANCH  22  27
ATOM     26  C   UNL     1      -0.849   6.746 -10.191  0.00  0.00    +0.031 C 
ATOM     27  C   UNL     1      -2.298   6.258 -10.248  0.00  0.00    +0.026 C 
ATOM     28  C   UNL     1      -3.176   7.162  -9.380  0.00  0.00    +0.031 C 
ATOM     29  C   UNL     1      -2.794   6.301 -11.694  0.00  0.00    +0.031 C 
ENDBRANCH  22  27
ENDBRANCH  13  23
ENDBRANCH   1  13
BRANCH   1  30
ATOM     30  C   UNL     1      -0.960   3.887  -5.839  0.00  0.00    +0.183 C 
BRANCH  30  31
ATOM     31  C   UNL     1       0.283   4.731  -5.716  0.00  0.00    +0.122 A 
ATOM     32  C   UNL     1       0.316   6.070  -5.594  0.00  0.00    +0.046 A 
ATOM     33  C   UNL     1       1.678   6.440  -5.510  0.00  0.00    +0.041 A 
ATOM     34  C   UNL     1       2.396   5.305  -5.585  0.00  0.00    +0.195 A 
ATOM     35  O   UNL     1       1.546   4.272  -5.704  0.00  0.00    -0.466 OA
ENDBRANCH  30  31
ENDBRANCH   1  30
TORSDOF 9
