REMARK  Name = ZINC00449259
REMARK  6 active torsions:
REMARK  status: ('A' for Active; 'I' for Inactive)
REMARK    1  A    between atoms: C_1  and  C_2
REMARK    2  A    between atoms: C_5  and  O_8
REMARK    3  A    between atoms: O_8  and  C_9
REMARK    4  A    between atoms: C_9  and  C_10
REMARK    5  A    between atoms: N_12  and  C_13
REMARK    6  A    between atoms: C_15  and  N_20
REMARK                            x       y       z     vdW  Elec       q    Type
REMARK                         _______ _______ _______ _____ _____    ______ ____
ROOT
ATOM      1  C   UNL     1       1.030   3.512   0.018  0.00  0.00    +0.255 C 
ATOM      2  O   UNL     1      -0.097   3.961   0.027  0.00  0.00    -0.272 OA
ATOM      3  N   UNL     1       2.088   4.347   0.005  0.00  0.00    -0.281 N 
ATOM      4  H   UNL     1       2.988   3.991   0.064  0.00  0.00    +0.155 HD
ENDROOT
BRANCH   3   5
ATOM      5  C   UNL     1       1.887   5.729  -0.091  0.00  0.00    +0.054 A 
ATOM      6  C   UNL     1       0.784   6.316   0.514  0.00  0.00    +0.057 A 
ATOM      7  C   UNL     1       0.591   7.681   0.420  0.00  0.00    +0.128 A 
ATOM      8  C   UNL     1       1.490   8.462  -0.282  0.00  0.00    +0.034 A 
ATOM      9  C   UNL     1       2.588   7.881  -0.890  0.00  0.00    +0.024 A 
ATOM     10  C   UNL     1       2.789   6.516  -0.797  0.00  0.00    +0.062 A 
ATOM     11 CL   UNL     1       4.167   5.787  -1.560  0.00  0.00    -0.082 Cl
BRANCH   7  12
ATOM     12  N   UNL     1      -0.583   8.307   1.069  0.00  0.00    +0.056 N 
ATOM     13  O   UNL     1      -0.756   9.510   0.984  0.00  0.00    -0.126 OA
ATOM     14  O   UNL     1      -1.375   7.620   1.688  0.00  0.00    -0.126 OA
ENDBRANCH   7  12
ENDBRANCH   3   5
BRANCH   1  15
ATOM     15  C   UNL     1       1.247   2.021   0.019  0.00  0.00    +0.324 C 
BRANCH  15  16
ATOM     16  O   UNL     1      -0.017   1.356   0.033  0.00  0.00    -0.483 OA
BRANCH  16  21
ATOM     17  C   UNL     1       0.057  -4.276   0.047  0.00  0.00    +0.044 C 
ATOM     18  C   UNL     1       0.037  -2.769   0.043  0.00  0.00    -0.050 A 
ATOM     19  C   UNL     1      -1.170  -2.095   0.053  0.00  0.00    +0.007 A 
ATOM     20  C   UNL     1      -1.191  -0.714   0.049  0.00  0.00    +0.046 A 
ATOM     21  C   UNL     1       0.001  -0.003   0.036  0.00  0.00    +0.121 A 
ATOM     22  C   UNL     1       1.210  -0.682   0.021  0.00  0.00    +0.046 A 
ATOM     23  C   UNL     1       1.226  -2.063   0.031  0.00  0.00    +0.007 A 
ENDBRANCH  16  21
ENDBRANCH  15  16
ENDBRANCH   1  15
TORSDOF 5
