REMARK  Name = ZINC08502087
REMARK  6 active torsions:
REMARK  status: ('A' for Active; 'I' for Inactive)
REMARK    1  A    between atoms: C_1  and  C_2
REMARK    2  A    between atoms: C_2  and  N_3
REMARK    3  A    between atoms: C_4  and  C_6
REMARK    4  A    between atoms: C_6  and  N_7
REMARK    5  A    between atoms: C_8  and  C_10
REMARK    6  A    between atoms: C_10  and  N_11
REMARK                            x       y       z     vdW  Elec       q    Type
REMARK                         _______ _______ _______ _____ _____    ______ ____
ROOT
ATOM      1  N   UNL     1      -6.117   1.129   0.037  0.00  0.00    -0.215 N 
ATOM      2  C   UNL     1      -6.784   1.505  -1.080  0.00  0.00    +0.251 C 
ATOM      3  O   UNL     1      -6.372   1.372  -2.212  0.00  0.00    -0.272 OA
ATOM      4  C   UNL     1      -8.080   2.091  -0.602  0.00  0.00    +0.138 C 
ATOM      5  C   UNL     1      -8.306   3.514  -1.097  0.00  0.00    +0.040 C 
ATOM      6  C   UNL     1      -8.041   3.660  -2.581  0.00  0.00    +0.003 C 
ATOM      7  C   UNL     1      -9.078   3.000  -3.467  0.00  0.00    +0.005 C 
ATOM      8  C   UNL     1      -8.936   1.480  -3.437  0.00  0.00    +0.035 C 
ATOM      9  C   UNL     1      -9.655   0.938  -2.219  0.00  0.00    -0.042 A 
ATOM     10  C   UNL     1      -9.263   1.214  -0.941  0.00  0.00    -0.012 A 
ATOM     11  C   UNL     1      -9.972   0.669   0.127  0.00  0.00    +0.006 A 
ATOM     12  C   UNL     1     -11.067  -0.139  -0.100  0.00  0.00    +0.000 A 
ATOM     13  C   UNL     1     -11.464  -0.412  -1.395  0.00  0.00    +0.000 A 
ATOM     14  C   UNL     1     -10.759   0.126  -2.453  0.00  0.00    +0.004 A 
ATOM     15  N   UNL     1      -7.927   2.123   0.868  0.00  0.00    -0.281 N 
ATOM     16  C   UNL     1      -6.766   1.504   1.144  0.00  0.00    +0.310 C 
ATOM     17  O   UNL     1      -6.352   1.308   2.271  0.00  0.00    -0.252 OA
ATOM     18  H   UNL     1      -8.548   2.520   1.496  0.00  0.00    +0.152 HD
ENDROOT
BRANCH   1  19
ATOM     19  C   UNL     1      -4.839   0.414   0.027  0.00  0.00    +0.213 C 
BRANCH  19  21
ATOM     20  N   UNL     1      -2.430   0.977   0.019  0.00  0.00    -0.305 N 
ATOM     21  C   UNL     1      -3.707   1.409   0.027  0.00  0.00    +0.231 C 
ATOM     22  O   UNL     1      -3.945   2.598   0.035  0.00  0.00    -0.274 OA
ATOM     23  H   UNL     1      -2.240   0.026   0.013  0.00  0.00    +0.149 HD
BRANCH  20  24
ATOM     24  C   UNL     1      -1.330   1.944   0.019  0.00  0.00    +0.200 C 
BRANCH  24  26
ATOM     25  N   UNL     1       1.143   1.898   0.001  0.00  0.00    -0.314 N 
ATOM     26  C   UNL     1      -0.014   1.209   0.009  0.00  0.00    +0.230 C 
ATOM     27  O   UNL     1       0.002  -0.004   0.002  0.00  0.00    -0.274 OA
ATOM     28  H   UNL     1       1.130   2.868   0.007  0.00  0.00    +0.149 HD
BRANCH  25  30
ATOM     29  C   UNL     1       3.571   2.193  -0.020  0.00  0.00    +0.024 C 
ATOM     30  C   UNL     1       2.422   1.183  -0.015  0.00  0.00    +0.101 C 
ENDBRANCH  25  30
ENDBRANCH  24  26
ENDBRANCH  20  24
ENDBRANCH  19  21
ENDBRANCH   1  19
TORSDOF 5
