REMARK  Name = ZINC53103124
REMARK  7 active torsions:
REMARK  status: ('A' for Active; 'I' for Inactive)
REMARK    1  A    between atoms: C_1  and  C_2
REMARK    2  A    between atoms: C_6  and  N_9
REMARK    3  A    between atoms: C_7  and  C_8
REMARK    4  A    between atoms: C_10  and  C_12
REMARK    5  A    between atoms: C_12  and  C_22
REMARK    6  A    between atoms: C_13  and  C_14
REMARK    7  A    between atoms: C_16  and  N_19
REMARK                            x       y       z     vdW  Elec       q    Type
REMARK                         _______ _______ _______ _____ _____    ______ ____
ROOT
ATOM      1  N   UNL     1       0.019  -2.795   2.391  0.00  0.00    -0.281 N 
ATOM      2  C   UNL     1      -0.064  -4.140   2.384  0.00  0.00    +0.259 C 
ATOM      3  O   UNL     1      -0.086  -4.743   1.327  0.00  0.00    -0.269 OA
ATOM      4  H   UNL     1       0.122  -2.320   3.230  0.00  0.00    +0.155 HD
ENDROOT
BRANCH   1  10
ATOM      5  C   UNL     1       1.090   1.245  -0.197  0.00  0.00    +0.044 C 
ATOM      6  C   UNL     1       0.467  -0.124  -0.095  0.00  0.00    -0.046 A 
ATOM      7  C   UNL     1      -0.168  -0.677  -1.191  0.00  0.00    +0.004 A 
ATOM      8  C   UNL     1      -0.741  -1.933  -1.101  0.00  0.00    +0.002 A 
ATOM      9  C   UNL     1      -0.681  -2.638   0.085  0.00  0.00    +0.023 A 
ATOM     10  C   UNL     1      -0.043  -2.084   1.188  0.00  0.00    +0.037 A 
ATOM     11  C   UNL     1       0.536  -0.825   1.093  0.00  0.00    -0.026 A 
ATOM     12  C   UNL     1       1.233  -0.224   2.285  0.00  0.00    +0.046 C 
ENDBRANCH   1  10
BRANCH   2  13
ATOM     13  C   UNL     1      -0.130  -4.879   3.652  0.00  0.00    +0.114 C 
ATOM     14  C   UNL     1      -0.215  -6.258   3.644  0.00  0.00    +0.032 C 
BRANCH  14  15
ATOM     15  C   UNL     1      -0.413  -6.962   4.858  0.00  0.00    -0.014 A 
ATOM     16  C   UNL     1       0.010  -8.335   5.018  0.00  0.00    +0.048 A 
ATOM     17  C   UNL     1      -0.236  -8.889   6.220  0.00  0.00    +0.164 A 
ATOM     18  S   UNL     1      -1.028  -7.573   7.120  0.00  0.00    -0.072 S 
ATOM     19  C   UNL     1      -1.017  -6.368   5.953  0.00  0.00    +0.055 A 
BRANCH  17  20
ATOM     20  N   UNL     1       0.075 -10.260   6.681  0.00  0.00    +0.063 N 
ATOM     21  O   UNL     1       0.622 -11.039   5.936  0.00  0.00    -0.126 OA
ATOM     22  O   UNL     1      -0.217 -10.601   7.804  0.00  0.00    -0.126 OA
ENDBRANCH  17  20
ENDBRANCH  14  15
BRANCH  13  23
ATOM     23  C   UNL     1      -0.104  -4.170   4.895  0.00  0.00    +0.104 C 
ATOM     24  N   UNL     1      -0.085  -3.607   5.882  0.00  0.00    -0.191 NA
ENDBRANCH  13  23
ENDBRANCH   2  13
TORSDOF 5
