REMARK  Name = ZINC39379326
REMARK  11 active torsions:
REMARK  status: ('A' for Active; 'I' for Inactive)
REMARK    1  A    between atoms: C_1  and  C_2
REMARK    2  A    between atoms: C_2  and  C_4
REMARK    3  A    between atoms: C_2  and  C_14
REMARK    4  A    between atoms: C_4  and  C_5
REMARK    5  A    between atoms: C_14  and  N_15
REMARK    6  A    between atoms: C_21  and  C_25
REMARK    7  A    between atoms: C_25  and  N_26
REMARK    8  A    between atoms: N_26  and  S_27
REMARK    9  A    between atoms: S_27  and  C_30
REMARK   10  A    between atoms: C_30  and  C_31
REMARK   11  A    between atoms: C_30  and  C_32
REMARK                            x       y       z     vdW  Elec       q    Type
REMARK                         _______ _______ _______ _____ _____    ______ ____
ROOT
ATOM      1  N   UNL     1      -0.114  -0.219  -2.435  0.00  0.00    +0.381 N 
ATOM      2  C   UNL     1      -1.432  -0.758  -2.182  0.00  0.00    -0.071 C 
ATOM      3  C   UNL     1      -2.466  -0.151  -3.147  0.00  0.00    +0.058 C 
ATOM      4  C   UNL     1      -2.308  -0.880  -4.470  0.00  0.00    +0.132 A 
ATOM      5  N   UNL     1      -3.169  -1.634  -5.081  0.00  0.00    -0.134 NA
ATOM      6  N   UNL     1      -2.648  -2.071  -6.178  0.00  0.00    -0.133 NA
ATOM      7  C   UNL     1      -1.430  -1.606  -6.306  0.00  0.00    +0.149 A 
ATOM      8  N   UNL     1      -1.191  -0.839  -5.228  0.00  0.00    -0.316 N 
ATOM      9  C   UNL     1       0.025  -0.077  -4.887  0.00  0.00    +0.106 C 
ATOM     10  C   UNL     1       0.594  -0.698  -3.600  0.00  0.00    -0.057 C 
ATOM     11  H   UNL     1      -0.201   0.783  -2.517  0.00  0.00    -0.082 HD
ENDROOT
BRANCH   1  12
ATOM     12  C   UNL     1       0.718  -0.497  -1.257  0.00  0.00    -0.075 C 
BRANCH  12  14
ATOM     13  C   UNL     1       0.032   1.674  -0.229  0.00  0.00    +0.006 C 
ATOM     14  C   UNL     1       0.093   0.159  -0.024  0.00  0.00    -0.026 C 
BRANCH  14  15
ATOM     15  C   UNL     1       0.945  -0.155   1.208  0.00  0.00    +0.036 C 
BRANCH  15  16
ATOM     16  C   UNL     1       0.266   0.386   2.439  0.00  0.00    -0.043 A 
ATOM     17  C   UNL     1       0.531   1.675   2.863  0.00  0.00    +0.007 A 
ATOM     18  C   UNL     1      -0.090   2.176   3.992  0.00  0.00    +0.050 A 
ATOM     19  C   UNL     1      -0.980   1.387   4.702  0.00  0.00    +0.166 A 
ATOM     20  C   UNL     1      -1.247   0.088   4.275  0.00  0.00    +0.166 A 
ATOM     21  C   UNL     1      -0.626  -0.406   3.139  0.00  0.00    +0.053 A 
ATOM     22  O   UNL     1      -2.147  -0.477   5.133  0.00  0.00    -0.453 OA
ATOM     23  C   UNL     1      -2.116   0.343   6.316  0.00  0.00    +0.466 C 
ATOM     24  O   UNL     1      -1.712   1.635   5.827  0.00  0.00    -0.453 OA
ENDBRANCH  15  16
ENDBRANCH  14  15
ENDBRANCH  12  14
ENDBRANCH   1  12
BRANCH   7  25
ATOM     25  C   UNL     1      -0.479  -1.879  -7.443  0.00  0.00    +0.181 C 
BRANCH  25  26
ATOM     26  N   UNL     1      -0.662  -0.866  -8.486  0.00  0.00    -0.187 NA
ATOM     27  H   UNL     1      -1.451  -0.302  -8.481  0.00  0.00    +0.148 HD
BRANCH  26  28
ATOM     28  S   UNL     1       0.479  -0.684  -9.672  0.00  0.00    +0.032 S 
ATOM     29  O   UNL     1      -0.003   0.381 -10.479  0.00  0.00    -0.158 OA
ATOM     30  O   UNL     1       1.712  -0.565  -8.975  0.00  0.00    -0.158 OA
BRANCH  28  31
ATOM     31  C   UNL     1       0.436  -2.241 -10.602  0.00  0.00    +0.142 C 
ATOM     32  C   UNL     1      -0.962  -2.447 -11.189  0.00  0.00    +0.033 C 
ATOM     33  C   UNL     1       1.462  -2.186 -11.737  0.00  0.00    +0.033 C 
ENDBRANCH  28  31
ENDBRANCH  26  28
ENDBRANCH  25  26
ENDBRANCH   7  25
TORSDOF 8
