REMARK  Name = ZINC10690836
REMARK  12 active torsions:
REMARK  status: ('A' for Active; 'I' for Inactive)
REMARK    1  A    between atoms: C_1  and  C_2
REMARK    2  A    between atoms: C_7  and  C_13
REMARK    3  A    between atoms: C_13  and  O_14
REMARK    4  A    between atoms: O_14  and  C_15
REMARK    5  A    between atoms: C_15  and  C_17
REMARK    6  A    between atoms: C_20  and  C_23
REMARK    7  A    between atoms: C_23  and  N_24
REMARK    8  A    between atoms: C_25  and  O_27
REMARK    9  A    between atoms: O_27  and  C_28
REMARK   10  A    between atoms: C_28  and  C_29
REMARK   11  A    between atoms: C_28  and  C_30
REMARK   12  A    between atoms: C_28  and  C_31
REMARK                            x       y       z     vdW  Elec       q    Type
REMARK                         _______ _______ _______ _____ _____    ______ ____
ROOT
ATOM      1  C   UNL     1      -0.321   7.729   0.046  0.00  0.00    +0.340 C 
ATOM      2  O   UNL     1      -0.223   8.334  -1.004  0.00  0.00    -0.245 OA
ENDROOT
BRANCH   1   3
ATOM      3  C   UNL     1      -0.571   6.273   0.039  0.00  0.00    +0.059 A 
ATOM      4  C   UNL     1      -0.695   5.589  -1.172  0.00  0.00    +0.015 A 
ATOM      5  C   UNL     1      -0.928   4.229  -1.171  0.00  0.00    +0.006 A 
ATOM      6  C   UNL     1      -1.040   3.544   0.026  0.00  0.00    -0.030 A 
ATOM      7  C   UNL     1      -0.923   4.217   1.230  0.00  0.00    +0.006 A 
ATOM      8  C   UNL     1      -0.684   5.576   1.243  0.00  0.00    +0.015 A 
BRANCH   6   9
ATOM      9  C   UNL     1      -1.295   2.059   0.019  0.00  0.00    +0.142 C 
BRANCH   9  10
ATOM     10  N   UNL     1      -0.016   1.344   0.009  0.00  0.00    -0.277 N 
ATOM     11  C   UNL     1       0.002  -0.004   0.002  0.00  0.00    +0.401 C 
ATOM     12  O   UNL     1      -1.042  -0.626   0.009  0.00  0.00    -0.226 OA
ATOM     13  H   UNL     1       0.817   1.840   0.004  0.00  0.00    +0.152 HD
BRANCH  11  14
ATOM     14  O   UNL     1       1.177  -0.661  -0.013  0.00  0.00    -0.445 OA
BRANCH  14  15
ATOM     15  C   UNL     1       1.121  -2.112  -0.020  0.00  0.00    +0.107 C 
ATOM     16  C   UNL     1       0.368  -2.587  -1.265  0.00  0.00    +0.055 C 
ATOM     17  C   UNL     1       2.542  -2.678  -0.037  0.00  0.00    +0.055 C 
ATOM     18  C   UNL     1       0.392  -2.601   1.234  0.00  0.00    +0.055 C 
ENDBRANCH  14  15
ENDBRANCH  11  14
ENDBRANCH   9  10
ENDBRANCH   6   9
ENDBRANCH   1   3
BRANCH   1  19
ATOM     19  O   UNL     1      -0.202   8.387   1.215  0.00  0.00    -0.455 OA
BRANCH  19  20
ATOM     20  C   UNL     1       0.043   9.816   1.146  0.00  0.00    +0.288 C 
BRANCH  20  27
ATOM     21  C   UNL     1      -0.642  12.404   8.531  0.00  0.00    +0.045 C 
ATOM     22  C   UNL     1      -0.722  11.849   7.132  0.00  0.00    -0.034 A 
ATOM     23  C   UNL     1      -1.925  11.302   6.665  0.00  0.00    +0.008 A 
ATOM     24  C   UNL     1      -1.989  10.802   5.399  0.00  0.00    +0.047 A 
ATOM     25  C   UNL     1      -0.846  10.843   4.580  0.00  0.00    +0.141 A 
ATOM     26  N   UNL     1      -0.907  10.356   3.342  0.00  0.00    -0.231 NA
ATOM     27  C   UNL     1       0.147  10.377   2.541  0.00  0.00    +0.086 A 
ATOM     28  C   UNL     1       1.343  10.906   2.985  0.00  0.00    +0.097 A 
ATOM     29  C   UNL     1       1.413  11.425   4.283  0.00  0.00    +0.259 A 
ATOM     30  O   UNL     1       2.454  11.904   4.704  0.00  0.00    -0.267 OA
ATOM     31  N   UNL     1       0.313  11.383   5.064  0.00  0.00    -0.268 N 
ATOM     32  C   UNL     1       0.366  11.879   6.331  0.00  0.00    +0.099 A 
ENDBRANCH  20  27
ENDBRANCH  19  20
ENDBRANCH   1  19
TORSDOF 8
