REMARK  Name = ZINC31056778
REMARK  9 active torsions:
REMARK  status: ('A' for Active; 'I' for Inactive)
REMARK    1  A    between atoms: C_1  and  C_2
REMARK    2  A    between atoms: C_2  and  O_3
REMARK    3  A    between atoms: O_3  and  C_4
REMARK    4  A    between atoms: C_4  and  C_6
REMARK    5  A    between atoms: C_10  and  N_11
REMARK    6  A    between atoms: C_12  and  C_14
REMARK    7  A    between atoms: N_19  and  C_21
REMARK    8  A    between atoms: C_21  and  C_22
REMARK    9  A    between atoms: C_24  and  C_27
REMARK                            x       y       z     vdW  Elec       q    Type
REMARK                         _______ _______ _______ _____ _____    ______ ____
ROOT
ATOM      1  N   UNL     1      -1.072  -0.880   0.007  0.00  0.00    -0.279 N 
ATOM      2  C   UNL     1      -0.857  -2.211  -0.002  0.00  0.00    +0.219 C 
ATOM      3  O   UNL     1       0.277  -2.641  -0.015  0.00  0.00    -0.275 OA
ATOM      4  H   UNL     1      -2.100  -0.489   0.019  0.00  0.00    +0.155 HD
ENDROOT
BRANCH   1   9
ATOM      5  C   UNL     1      -0.017   1.385   0.010  0.00  0.00    +0.091 A 
ATOM      6  C   UNL     1       1.263   2.073   0.001  0.00  0.00    -0.021 A 
ATOM      7  C   UNL     1       2.349   1.270  -0.014  0.00  0.00    -0.004 A 
ATOM      8  S   UNL     1       1.694  -0.376  -0.016  0.00  0.00    -0.077 S 
ATOM      9  C   UNL     1       0.002  -0.004   0.002  0.00  0.00    +0.086 A 
ATOM     10  C   UNL     1       3.785   1.692  -0.027  0.00  0.00    +0.043 C 
ATOM     11  C   UNL     1       3.848   3.181  -0.397  0.00  0.00    +0.005 C 
ATOM     12  C   UNL     1       2.830   3.945   0.454  0.00  0.00    +0.005 C 
ATOM     13  C   UNL     1       1.410   3.590   0.009  0.00  0.00    +0.037 C 
BRANCH   5  14
ATOM     14  C   UNL     1      -1.279   2.127   0.020  0.00  0.00    +0.342 C 
ATOM     15  O   UNL     1      -1.798   2.430   1.077  0.00  0.00    -0.245 OA
BRANCH  14  16
ATOM     16  O   UNL     1      -1.866   2.475  -1.144  0.00  0.00    -0.461 OA
BRANCH  16  18
ATOM     17  C   UNL     1      -3.626   3.514  -2.467  0.00  0.00    +0.048 C 
ATOM     18  C   UNL     1      -3.115   3.210  -1.058  0.00  0.00    +0.229 C 
ENDBRANCH  16  18
ENDBRANCH  14  16
ENDBRANCH   5  14
ENDBRANCH   1   9
BRANCH   2  19
ATOM     19  C   UNL     1      -2.025  -3.163   0.004  0.00  0.00    +0.059 C 
ATOM     20  C   UNL     1      -2.863  -2.937   1.265  0.00  0.00    +0.009 C 
ATOM     21  C   UNL     1      -4.012  -3.948   1.292  0.00  0.00    -0.018 C 
ATOM     22  C   UNL     1      -3.439  -5.366   1.243  0.00  0.00    -0.078 C 
ATOM     23  N   UNL     1      -2.646  -5.532   0.018  0.00  0.00    +0.386 N 
ATOM     24  C   UNL     1      -1.509  -4.604  -0.009  0.00  0.00    -0.065 C 
ATOM     25  H   UNL     1      -3.296  -5.292  -0.837  0.00  0.00    -0.081 HD
BRANCH  23  26
ATOM     26  C   UNL     1      -2.195  -6.922  -0.133  0.00  0.00    +0.022 C 
BRANCH  26  27
ATOM     27  C   UNL     1      -3.388  -7.817  -0.347  0.00  0.00    +0.211 A 
ATOM     28  N   UNL     1      -3.924  -8.135  -1.498  0.00  0.00    -0.192 NA
ATOM     29  C   UNL     1      -4.961  -8.955  -1.203  0.00  0.00    +0.209 A 
ATOM     30  N   UNL     1      -4.995  -9.077   0.101  0.00  0.00    -0.056 NA
ATOM     31  O   UNL     1      -4.100  -8.431   0.603  0.00  0.00    -0.340 OA
BRANCH  29  32
ATOM     32  C   UNL     1      -5.882  -9.587  -2.169  0.00  0.00    +0.060 A 
ATOM     33  C   UNL     1      -6.946 -10.417  -1.931  0.00  0.00    +0.019 A 
ATOM     34  C   UNL     1      -7.669 -10.890  -3.002  0.00  0.00    +0.008 A 
ATOM     35  C   UNL     1      -7.308 -10.521  -4.259  0.00  0.00    +0.046 A 
ATOM     36  S   UNL     1      -5.905  -9.463  -3.950  0.00  0.00    -0.093 S 
ENDBRANCH  29  32
ENDBRANCH  26  27
ENDBRANCH  23  26
ENDBRANCH   2  19
TORSDOF 8
