REMARK  Name = ZINC59588824
REMARK  9 active torsions:
REMARK  status: ('A' for Active; 'I' for Inactive)
REMARK    1  A    between atoms: C_1  and  C_2
REMARK    2  A    between atoms: C_5  and  C_8
REMARK    3  A    between atoms: N_10  and  C_11
REMARK    4  A    between atoms: C_11  and  C_13
REMARK    5  A    between atoms: C_11  and  C_16
REMARK    6  A    between atoms: C_13  and  C_14
REMARK    7  A    between atoms: C_13  and  C_15
REMARK    8  A    between atoms: N_18  and  C_19
REMARK    9  A    between atoms: C_22  and  C_25
REMARK                            x       y       z     vdW  Elec       q    Type
REMARK                         _______ _______ _______ _____ _____    ______ ____
ROOT
ATOM      1  C   UNL     1      -0.492  -6.913   2.422  0.00  0.00    +0.238 C 
ATOM      2  O   UNL     1      -0.880  -6.135   3.268  0.00  0.00    -0.273 OA
ATOM      3  N   UNL     1      -0.580  -8.241   2.638  0.00  0.00    -0.284 N 
ATOM      4  H   UNL     1      -0.332  -8.864   1.937  0.00  0.00    +0.155 HD
ENDROOT
BRANCH   3   5
ATOM      5  C   UNL     1      -1.027  -8.721   3.874  0.00  0.00    +0.033 A 
ATOM      6  C   UNL     1      -2.013  -8.032   4.570  0.00  0.00    +0.024 A 
ATOM      7  C   UNL     1      -2.455  -8.503   5.788  0.00  0.00    +0.012 A 
ATOM      8  C   UNL     1      -1.913  -9.672   6.321  0.00  0.00    -0.000 A 
ATOM      9  C   UNL     1      -0.924 -10.361   5.621  0.00  0.00    +0.012 A 
ATOM     10  C   UNL     1      -0.489  -9.889   4.401  0.00  0.00    +0.024 A 
BRANCH   8  11
ATOM     11  C   UNL     1      -2.387 -10.180   7.632  0.00  0.00    +0.064 A 
ATOM     12  C   UNL     1      -3.344  -9.612   8.414  0.00  0.00    +0.113 A 
ATOM     13  N   UNL     1      -3.464 -10.402   9.517  0.00  0.00    -0.335 N 
ATOM     14  C   UNL     1      -2.585 -11.425   9.386  0.00  0.00    +0.087 A 
ATOM     15  N   UNL     1      -1.950 -11.293   8.259  0.00  0.00    -0.343 N 
ATOM     16  C   UNL     1      -2.409 -12.523  10.409  0.00  0.00    +0.072 C 
ATOM     17  C   UNL     1      -3.060 -12.065  11.720  0.00  0.00    +0.009 C 
ATOM     18  C   UNL     1      -4.467 -11.536  11.428  0.00  0.00    +0.022 C 
ATOM     19  C   UNL     1      -4.366 -10.216  10.656  0.00  0.00    +0.123 C 
ATOM     20  H   UNL     1      -1.269 -11.896   7.923  0.00  0.00    +0.167 HD
ENDBRANCH   8  11
ENDBRANCH   3   5
BRANCH   1  21
ATOM     21  C   UNL     1       0.087  -6.396   1.131  0.00  0.00    +0.162 C 
BRANCH  21  24
ATOM     22  C   UNL     1       0.051  -4.250  -0.022  0.00  0.00    +0.245 C 
ATOM     23  O   UNL     1       0.045  -4.851  -1.079  0.00  0.00    -0.270 OA
ATOM     24  N   UNL     1       0.072  -4.932   1.141  0.00  0.00    -0.300 N 
ATOM     25  H   UNL     1       0.076  -4.452   1.984  0.00  0.00    +0.150 HD
BRANCH  22  30
ATOM     26  C   UNL     1      -0.013   1.504   0.015  0.00  0.00    +0.044 C 
ATOM     27  C   UNL     1       0.004  -0.003   0.005  0.00  0.00    -0.050 A 
ATOM     28  C   UNL     1      -0.003  -0.684  -1.199  0.00  0.00    +0.004 A 
ATOM     29  C   UNL     1       0.013  -2.063  -1.215  0.00  0.00    +0.013 A 
ATOM     30  C   UNL     1       0.035  -2.772  -0.013  0.00  0.00    +0.037 A 
ATOM     31  C   UNL     1       0.041  -2.079   1.199  0.00  0.00    +0.013 A 
ATOM     32  C   UNL     1       0.031  -0.699   1.201  0.00  0.00    +0.004 A 
ENDBRANCH  22  30
ENDBRANCH  21  24
BRANCH  21  33
ATOM     33  C   UNL     1       1.528  -6.890   0.985  0.00  0.00    +0.012 C 
ATOM     34  C   UNL     1       2.117  -6.365  -0.326  0.00  0.00    +0.009 C 
ATOM     35  C   UNL     1       2.364  -6.379   2.160  0.00  0.00    +0.009 C 
ENDBRANCH  21  33
ENDBRANCH   1  21
TORSDOF 6
