REMARK  Name = ZINC21577767
REMARK  9 active torsions:
REMARK  status: ('A' for Active; 'I' for Inactive)
REMARK    1  A    between atoms: C_1  and  N_2
REMARK    2  A    between atoms: N_2  and  C_19
REMARK    3  A    between atoms: C_3  and  C_5
REMARK    4  A    between atoms: C_5  and  O_6
REMARK    5  A    between atoms: O_6  and  C_7
REMARK    6  A    between atoms: C_7  and  C_9
REMARK    7  A    between atoms: C_12  and  N_18
REMARK    8  A    between atoms: C_13  and  N_15
REMARK    9  A    between atoms: C_19  and  C_26
REMARK                            x       y       z     vdW  Elec       q    Type
REMARK                         _______ _______ _______ _____ _____    ______ ____
ROOT
ATOM      1  C   UNL     1      -1.880  -2.585  -1.038  0.00  0.00    +0.133 C 
ATOM      2  N   UNL     1      -1.223  -1.818   0.022  0.00  0.00    -0.285 N 
ATOM      3  C   UNL     1      -0.424  -2.442   0.910  0.00  0.00    +0.254 C 
ATOM      4  O   UNL     1       0.120  -1.807   1.788  0.00  0.00    -0.272 OA
ENDROOT
BRANCH   2   5
ATOM      5  C   UNL     1      -1.434  -0.371   0.118  0.00  0.00    +0.122 C 
ATOM      6  C   UNL     1      -0.080   0.346   0.146  0.00  0.00    +0.038 C 
ATOM      7  C   UNL     1       0.634   0.136  -1.190  0.00  0.00    +0.003 C 
ATOM      8  C   UNL     1      -0.173   0.782  -2.317  0.00  0.00    +0.008 C 
ATOM      9  C   UNL     1      -1.531   0.082  -2.438  0.00  0.00    +0.077 C 
ATOM     10  C   UNL     1      -2.212   0.110  -1.087  0.00  0.00    +0.161 C 
ATOM     11  O   UNL     1      -3.346   0.508  -0.973  0.00  0.00    -0.295 OA
BRANCH   5  12
ATOM     12  C   UNL     1      -2.201  -0.053   1.375  0.00  0.00    +0.002 A 
ATOM     13  C   UNL     1      -2.588  -1.073   2.225  0.00  0.00    +0.007 A 
ATOM     14  C   UNL     1      -3.292  -0.782   3.379  0.00  0.00    +0.000 A 
ATOM     15  C   UNL     1      -3.610   0.529   3.683  0.00  0.00    +0.001 A 
ATOM     16  C   UNL     1      -3.224   1.549   2.834  0.00  0.00    +0.020 A 
ATOM     17  C   UNL     1      -2.519   1.258   1.679  0.00  0.00    +0.047 A 
ATOM     18 CL   UNL     1      -2.028   2.539   0.616  0.00  0.00    -0.083 Cl
ENDBRANCH   5  12
ENDBRANCH   2   5
BRANCH   3  19
ATOM     19  C   UNL     1      -0.207  -3.930   0.812  0.00  0.00    +0.328 C 
BRANCH  19  20
ATOM     20  O   UNL     1       0.685  -4.360   1.873  0.00  0.00    -0.452 OA
BRANCH  20  21
ATOM     21  C   UNL     1       0.984  -5.673   1.927  0.00  0.00    +0.340 C 
ATOM     22  O   UNL     1       0.511  -6.438   1.109  0.00  0.00    -0.245 OA
BRANCH  21  23
ATOM     23  C   UNL     1       1.884  -6.182   2.978  0.00  0.00    +0.061 A 
ATOM     24  C   UNL     1       2.433  -5.303   3.916  0.00  0.00    +0.017 A 
ATOM     25  C   UNL     1       3.263  -5.775   4.893  0.00  0.00    +0.026 A 
ATOM     26  C   UNL     1       3.573  -7.131   4.952  0.00  0.00    +0.055 A 
ATOM     27  C   UNL     1       3.035  -8.013   4.019  0.00  0.00    +0.147 A 
ATOM     28  C   UNL     1       2.195  -7.545   3.035  0.00  0.00    +0.049 A 
BRANCH  27  29
ATOM     29  N   UNL     1       3.367  -9.454   4.084  0.00  0.00    +0.058 N 
ATOM     30  O   UNL     1       2.990 -10.207   3.204  0.00  0.00    -0.126 OA
ATOM     31  O   UNL     1       4.018  -9.888   5.018  0.00  0.00    -0.126 OA
ENDBRANCH  27  29
BRANCH  26  32
ATOM     32  N   UNL     1       4.422  -7.606   5.945  0.00  0.00    -0.356 N 
ATOM     33  H   UNL     1       4.669  -8.677   5.993  0.00  0.00    +0.142 HD
ATOM     34  H   UNL     1       4.848  -6.910   6.683  0.00  0.00    +0.142 HD
ENDBRANCH  26  32
ENDBRANCH  21  23
ENDBRANCH  20  21
ENDBRANCH  19  20
ENDBRANCH   3  19
TORSDOF 8
