REMARK  Name = ZINC28676248
REMARK  10 active torsions:
REMARK  status: ('A' for Active; 'I' for Inactive)
REMARK    1  A    between atoms: C_1  and  C_2
REMARK    2  A    between atoms: C_2  and  C_3
REMARK    3  A    between atoms: C_3  and  C_4
REMARK    4  A    between atoms: C_4  and  C_5
REMARK    5  A    between atoms: C_8  and  N_11
REMARK    6  A    between atoms: C_12  and  S_16
REMARK    7  A    between atoms: S_16  and  C_17
REMARK    8  A    between atoms: C_17  and  C_19
REMARK    9  A    between atoms: C_17  and  C_20
REMARK   10  A    between atoms: N_22  and  C_23
REMARK                            x       y       z     vdW  Elec       q    Type
REMARK                         _______ _______ _______ _____ _____    ______ ____
ROOT
ATOM      1  S   UNL     1       4.676  -4.389   0.834  0.00  0.00    -0.072 S 
ENDROOT
BRANCH   1   3
ATOM      2  N   UNL     1       6.757  -6.155   1.443  0.00  0.00    -0.187 N 
ATOM      3  C   UNL     1       6.342  -4.947   0.971  0.00  0.00    +0.215 A 
ATOM      4  N   UNL     1       7.423  -4.277   0.631  0.00  0.00    -0.101 NA
ATOM      5  N   UNL     1       8.476  -4.973   0.864  0.00  0.00    -0.022 NA
ATOM      6  N   UNL     1       8.159  -6.123   1.352  0.00  0.00    -0.038 NA
BRANCH   2  10
ATOM      7  C   UNL     1       4.380  -9.277   2.853  0.00  0.00    -0.047 A 
ATOM      8  C   UNL     1       5.543  -9.555   2.158  0.00  0.00    +0.006 A 
ATOM      9  C   UNL     1       6.333  -8.523   1.690  0.00  0.00    +0.028 A 
ATOM     10  C   UNL     1       5.957  -7.205   1.917  0.00  0.00    +0.070 A 
ATOM     11  C   UNL     1       4.792  -6.930   2.619  0.00  0.00    +0.028 A 
ATOM     12  C   UNL     1       4.004  -7.966   3.081  0.00  0.00    +0.006 A 
BRANCH   7  13
ATOM     13  C   UNL     1       3.521 -10.405   3.362  0.00  0.00    +0.035 C 
BRANCH  13  14
ATOM     14  C   UNL     1       3.970 -10.790   4.774  0.00  0.00    +0.004 C 
BRANCH  14  16
ATOM     15  C   UNL     1       3.546 -12.321   6.703  0.00  0.00    +0.004 C 
ATOM     16  C   UNL     1       3.097 -11.936   5.291  0.00  0.00    -0.003 C 
ENDBRANCH  14  16
ENDBRANCH  13  14
ENDBRANCH   7  13
ENDBRANCH   2  10
ENDBRANCH   1   3
BRANCH   1  17
ATOM     17  C   UNL     1       4.953  -2.739   0.143  0.00  0.00    +0.137 C 
ATOM     18  C   UNL     1       5.566  -2.867  -1.253  0.00  0.00    +0.029 C 
BRANCH  17  19
ATOM     19  C   UNL     1       3.639  -2.007   0.050  0.00  0.00    +0.230 C 
ATOM     20  O   UNL     1       2.597  -2.628   0.058  0.00  0.00    -0.274 OA
ATOM     21  N   UNL     1       3.621  -0.663  -0.044  0.00  0.00    -0.284 N 
ATOM     22  H   UNL     1       4.565  -0.106  -0.140  0.00  0.00    +0.155 HD
BRANCH  21  23
ATOM     23  C   UNL     1       2.401   0.025  -0.020  0.00  0.00    +0.037 A 
ATOM     24  C   UNL     1       1.345  -0.460   0.740  0.00  0.00    +0.027 A 
ATOM     25  C   UNL     1       0.142   0.218   0.764  0.00  0.00    +0.051 A 
ATOM     26  C   UNL     1      -0.016   1.384   0.029  0.00  0.00    +0.162 A 
ATOM     27  C   UNL     1       1.040   1.873  -0.731  0.00  0.00    +0.164 A 
ATOM     28  C   UNL     1       2.248   1.192  -0.755  0.00  0.00    +0.072 A 
ATOM     29  O   UNL     1       0.907   3.021  -1.451  0.00  0.00    -0.485 OA
ATOM     30  C   UNL     1      -0.428   3.474  -1.700  0.00  0.00    +0.270 C 
ATOM     31  C   UNL     1      -1.215   3.396  -0.384  0.00  0.00    +0.270 C 
ATOM     32  O   UNL     1      -1.212   2.034   0.059  0.00  0.00    -0.485 OA
ENDBRANCH  21  23
ENDBRANCH  17  19
ENDBRANCH   1  17
TORSDOF 8
