REMARK  Name = ZINC59456558
REMARK  8 active torsions:
REMARK  status: ('A' for Active; 'I' for Inactive)
REMARK    1  A    between atoms: C_1  and  C_2
REMARK    2  A    between atoms: C_2  and  N_3
REMARK    3  A    between atoms: C_18  and  S_19
REMARK    4  A    between atoms: S_19  and  C_20
REMARK    5  A    between atoms: C_20  and  C_21
REMARK    6  A    between atoms: N_23  and  C_24
REMARK    7  A    between atoms: C_24  and  C_26
REMARK    8  A    between atoms: C_24  and  C_27
REMARK                            x       y       z     vdW  Elec       q    Type
REMARK                         _______ _______ _______ _____ _____    ______ ____
ROOT
ATOM      1  N   UNL     1      -1.372  -0.511   0.012  0.00  0.00    -0.325 N 
ATOM      2  C   UNL     1      -2.069  -0.877   1.150  0.00  0.00    +0.053 A 
ATOM      3  C   UNL     1      -1.733  -0.884   2.499  0.00  0.00    +0.026 A 
ATOM      4  C   UNL     1      -2.650  -1.312   3.436  0.00  0.00    +0.002 A 
ATOM      5  C   UNL     1      -3.911  -1.739   3.045  0.00  0.00    +0.001 A 
ATOM      6  C   UNL     1      -4.262  -1.740   1.713  0.00  0.00    +0.012 A 
ATOM      7  C   UNL     1      -3.346  -1.310   0.756  0.00  0.00    +0.029 A 
ATOM      8  C   UNL     1      -3.387  -1.183  -0.711  0.00  0.00    +0.136 A 
ATOM      9  C   UNL     1      -2.146  -0.683  -1.097  0.00  0.00    +0.152 A 
ATOM     10  N   UNL     1      -1.929  -0.467  -2.435  0.00  0.00    -0.237 N 
ATOM     11  C   UNL     1      -2.942  -0.748  -3.332  0.00  0.00    +0.276 A 
ATOM     12  N   UNL     1      -4.114  -1.224  -2.886  0.00  0.00    -0.108 NA
ATOM     13  N   UNL     1      -4.322  -1.439  -1.635  0.00  0.00    -0.142 NA
ATOM     14  N   UNL     1      -2.475  -0.455  -4.531  0.00  0.00    -0.106 NA
ATOM     15  N   UNL     1      -1.268  -0.020  -4.435  0.00  0.00    -0.120 NA
ATOM     16  C   UNL     1      -0.886  -0.007  -3.176  0.00  0.00    +0.199 A 
ENDROOT
BRANCH   1  18
ATOM     17  C   UNL     1      -0.019   1.525  -0.044  0.00  0.00    +0.027 C 
ATOM     18  C   UNL     1       0.002  -0.004   0.002  0.00  0.00    +0.120 C 
ENDBRANCH   1  18
BRANCH  16  19
ATOM     19  S   UNL     1       0.684   0.509  -2.565  0.00  0.00    -0.076 S 
BRANCH  19  20
ATOM     20  C   UNL     1       1.596   0.996  -4.055  0.00  0.00    +0.173 C 
BRANCH  20  21
ATOM     21  C   UNL     1       2.975   1.465  -3.669  0.00  0.00    +0.224 C 
ATOM     22  O   UNL     1       3.310   1.470  -2.503  0.00  0.00    -0.275 OA
ATOM     23  N   UNL     1       3.837   1.879  -4.619  0.00  0.00    -0.308 N 
ATOM     24  H   UNL     1       3.570   1.874  -5.552  0.00  0.00    +0.149 HD
BRANCH  23  25
ATOM     25  C   UNL     1       5.178   2.334  -4.244  0.00  0.00    +0.100 C 
ATOM     26  C   UNL     1       6.113   1.129  -4.128  0.00  0.00    +0.033 C 
BRANCH  25  27
ATOM     27  C   UNL     1       5.702   3.276  -5.297  0.00  0.00    -0.027 A 
ATOM     28  C   UNL     1       5.468   3.017  -6.634  0.00  0.00    +0.005 A 
ATOM     29  C   UNL     1       5.948   3.881  -7.601  0.00  0.00    +0.000 A 
ATOM     30  C   UNL     1       6.662   5.005  -7.229  0.00  0.00    +0.000 A 
ATOM     31  C   UNL     1       6.895   5.265  -5.892  0.00  0.00    +0.000 A 
ATOM     32  C   UNL     1       6.411   4.403  -4.925  0.00  0.00    +0.005 A 
ENDBRANCH  25  27
ENDBRANCH  23  25
ENDBRANCH  20  21
ENDBRANCH  19  20
ENDBRANCH  16  19
TORSDOF 6
