REMARK  Name = ZINC33038229
REMARK  2 active torsions:
REMARK  status: ('A' for Active; 'I' for Inactive)
REMARK    1  A    between atoms: N_24  and  C_25
REMARK    2  A    between atoms: C_25  and  C_26
REMARK                            x       y       z     vdW  Elec       q    Type
REMARK                         _______ _______ _______ _____ _____    ______ ____
ROOT
ATOM      1  C   UNL     1       0.726   1.568   4.733  0.00  0.00    +0.001 A 
ATOM      2  C   UNL     1       1.817   2.269   5.216  0.00  0.00    +0.004 A 
ATOM      3  C   UNL     1       2.127   3.515   4.705  0.00  0.00    +0.047 A 
ATOM      4  C   UNL     1       1.347   4.071   3.703  0.00  0.00    +0.139 A 
ATOM      5  C   UNL     1       0.257   3.352   3.194  0.00  0.00    +0.057 A 
ATOM      6  C   UNL     1      -0.051   2.101   3.724  0.00  0.00    +0.015 A 
ATOM      7  C   UNL     1      -0.544   3.905   2.090  0.00  0.00    +0.133 C 
ATOM      8  N   UNL     1      -0.872   5.145   1.957  0.00  0.00    -0.228 NA
ATOM      9  C   UNL     1      -0.561   6.171   2.797  0.00  0.00    +0.108 A 
ATOM     10  C   UNL     1      -1.529   7.145   3.063  0.00  0.00    +0.031 A 
ATOM     11  C   UNL     1      -1.231   8.214   3.883  0.00  0.00    +0.002 A 
ATOM     12  C   UNL     1       0.026   8.330   4.445  0.00  0.00    +0.004 A 
ATOM     13  C   UNL     1       0.989   7.366   4.200  0.00  0.00    +0.048 A 
ATOM     14  C   UNL     1       0.699   6.279   3.393  0.00  0.00    +0.154 A 
ATOM     15  O   UNL     1       1.635   5.308   3.234  0.00  0.00    -0.453 OA
ATOM     16  N   UNL     1      -0.984   3.028   1.125  0.00  0.00    -0.312 N 
ATOM     17  C   UNL     1      -0.519   1.633   1.119  0.00  0.00    +0.125 C 
ATOM     18  C   UNL     1       0.088   1.325  -0.255  0.00  0.00    +0.128 C 
ATOM     19  N   UNL     1      -0.850   1.767  -1.296  0.00  0.00    -0.283 N 
ATOM     20  C   UNL     1      -1.311   3.163  -1.289  0.00  0.00    +0.128 C 
ATOM     21  C   UNL     1      -1.922   3.470   0.084  0.00  0.00    +0.125 C 
ATOM     22  C   UNL     1      -1.281   0.908  -2.241  0.00  0.00    +0.303 C 
ATOM     23  O   UNL     1      -0.824  -0.218  -2.292  0.00  0.00    -0.253 OA
ATOM     24  N   UNL     1      -2.218   1.296  -3.128  0.00  0.00    -0.295 N 
ATOM     25  H   UNL     1      -2.571   2.338  -3.135  0.00  0.00    +0.151 HD
ENDROOT
BRANCH  24  26
ATOM     26  C   UNL     1      -2.767   0.330  -4.083  0.00  0.00    +0.141 C 
BRANCH  26  27
ATOM     27  C   UNL     1      -3.789   1.012  -4.956  0.00  0.00    -0.030 A 
ATOM     28  C   UNL     1      -5.118   1.034  -4.576  0.00  0.00    +0.008 A 
ATOM     29  C   UNL     1      -6.055   1.663  -5.373  0.00  0.00    +0.038 A 
ATOM     30  C   UNL     1      -5.665   2.263  -6.558  0.00  0.00    +0.123 A 
ATOM     31  C   UNL     1      -4.334   2.236  -6.940  0.00  0.00    +0.038 A 
ATOM     32  C   UNL     1      -3.398   1.611  -6.139  0.00  0.00    +0.008 A 
ATOM     33  F   UNL     1      -6.581   2.875  -7.340  0.00  0.00    -0.205 F 
ENDBRANCH  26  27
ENDBRANCH  24  26
TORSDOF 2
