REMARK  Name = ZINC20696413
REMARK  8 active torsions:
REMARK  status: ('A' for Active; 'I' for Inactive)
REMARK    1  A    between atoms: C_1  and  C_2
REMARK    2  A    between atoms: C_2  and  C_3
REMARK    3  A    between atoms: C_3  and  C_5
REMARK    4  A    between atoms: C_3  and  N_6
REMARK    5  A    between atoms: N_6  and  S_7
REMARK    6  A    between atoms: S_7  and  C_10
REMARK    7  A    between atoms: C_23  and  C_26
REMARK    8  A    between atoms: C_31  and  O_32
REMARK                            x       y       z     vdW  Elec       q    Type
REMARK                         _______ _______ _______ _____ _____    ______ ____
ROOT
ATOM      1  C   UNL     1       4.110  -0.434   2.207  0.00  0.00    +0.106 A 
ATOM      2  C   UNL     1       3.447  -0.848   1.066  0.00  0.00    +0.030 A 
ATOM      3  C   UNL     1       4.119  -0.884  -0.140  0.00  0.00    +0.025 A 
ATOM      4  C   UNL     1       5.457  -0.518  -0.201  0.00  0.00    +0.031 A 
ATOM      5  C   UNL     1       6.127  -0.109   0.941  0.00  0.00    -0.018 A 
ATOM      6  C   UNL     1       5.439  -0.070   2.146  0.00  0.00    +0.034 A 
ATOM      7  C   UNL     1       7.568   0.292   0.924  0.00  0.00    +0.049 C 
ATOM      8  C   UNL     1       8.444  -0.781   1.525  0.00  0.00    -0.023 C 
ATOM      9  C   UNL     1       9.585  -0.849   0.882  0.00  0.00    -0.030 C 
ATOM     10  C   UNL     1       9.627   0.177  -0.234  0.00  0.00    +0.033 C 
ATOM     11  C   UNL     1       8.124   0.481  -0.501  0.00  0.00    +0.029 C 
ATOM     12  C   UNL     1       7.593  -0.623  -1.420  0.00  0.00    +0.108 C 
ATOM     13  N   UNL     1       6.127  -0.570  -1.429  0.00  0.00    -0.336 N 
ATOM     14  H   UNL     1       5.582  -0.571  -2.384  0.00  0.00    +0.147 HD
ENDROOT
BRANCH  12  15
ATOM     15  C   UNL     1       8.046  -1.966  -0.909  0.00  0.00    +0.015 A 
ATOM     16  C   UNL     1       7.321  -2.613   0.073  0.00  0.00    +0.024 A 
ATOM     17  C   UNL     1       7.737  -3.846   0.543  0.00  0.00    +0.018 A 
ATOM     18  C   UNL     1       8.879  -4.434   0.031  0.00  0.00    +0.019 A 
ATOM     19  C   UNL     1       9.607  -3.791  -0.952  0.00  0.00    +0.047 A 
ATOM     20  C   UNL     1       9.188  -2.557  -1.429  0.00  0.00    +0.122 A 
ATOM     21 BR   UNL     1       6.743  -4.728   1.888  0.00  0.00    -0.050 Br
BRANCH  20  22
ATOM     22  O   UNL     1       9.900  -1.925  -2.399  0.00  0.00    -0.506 OA
ATOM     23  H   UNL     1      10.806  -2.395  -2.811  0.00  0.00    +0.292 HD
ENDBRANCH  20  22
ENDBRANCH  12  15
BRANCH   1  24
ATOM     24  S   UNL     1       3.255  -0.378   3.746  0.00  0.00    +0.059 S 
ATOM     25  O   UNL     1       4.241  -0.484   4.763  0.00  0.00    -0.153 OA
ATOM     26  O   UNL     1       2.168  -1.288   3.641  0.00  0.00    -0.153 OA
BRANCH  24  27
ATOM     27  N   UNL     1       2.594   1.135   3.885  0.00  0.00    -0.187 NA
ATOM     28  H   UNL     1       3.055   1.862   4.569  0.00  0.00    +0.148 HD
BRANCH  27  29
ATOM     29  C   UNL     1       1.551   1.566   2.951  0.00  0.00    +0.073 C 
ATOM     30  C   UNL     1       0.175   1.307   3.568  0.00  0.00    +0.025 C 
BRANCH  29  32
ATOM     31  C   UNL     1       3.031   3.304   1.936  0.00  0.00    +0.005 C 
ATOM     32  C   UNL     1       1.708   3.061   2.666  0.00  0.00    +0.017 C 
ENDBRANCH  29  32
ENDBRANCH  27  29
ENDBRANCH  24  27
ENDBRANCH   1  24
TORSDOF 6
