REMARK  Name = ZINC55972027
REMARK  8 active torsions:
REMARK  status: ('A' for Active; 'I' for Inactive)
REMARK    1  A    between atoms: C_1  and  C_2
REMARK    2  A    between atoms: C_7  and  C_32
REMARK    3  A    between atoms: N_12  and  C_16
REMARK    4  A    between atoms: C_16  and  C_17
REMARK    5  A    between atoms: C_17  and  C_19
REMARK    6  A    between atoms: C_17  and  O_31
REMARK    7  A    between atoms: C_19  and  O_20
REMARK    8  A    between atoms: O_20  and  C_21
REMARK                            x       y       z     vdW  Elec       q    Type
REMARK                         _______ _______ _______ _____ _____    ______ ____
ROOT
ATOM      1  C   UNL     1      -1.060  -1.237   4.398  0.00  0.00    +0.152 C 
ENDROOT
BRANCH   1  11
ATOM      2  C   UNL     1      -0.019   1.526   0.010  0.00  0.00    +0.010 C 
ATOM      3  C   UNL     1       0.002  -0.004   0.002  0.00  0.00    +0.019 C 
ATOM      4  C   UNL     1       0.718  -0.498  -1.258  0.00  0.00    +0.006 C 
ATOM      5  C   UNL     1       2.160   0.015  -1.257  0.00  0.00    +0.001 C 
ATOM      6  C   UNL     1       2.892  -0.516  -0.024  0.00  0.00    +0.006 C 
ATOM      7  C   UNL     1       2.184  -0.023   1.241  0.00  0.00    +0.019 C 
ATOM      8  C   UNL     1       0.739  -0.509   1.238  0.00  0.00    +0.118 C 
ATOM      9  C   UNL     1       0.029  -0.062   2.495  0.00  0.00    +0.247 C 
ATOM     10  O   UNL     1      -0.169   1.076   2.861  0.00  0.00    -0.273 OA
ATOM     11  N   UNL     1      -0.337  -1.198   3.124  0.00  0.00    -0.222 N 
ATOM     12  C   UNL     1       0.041  -2.285   2.441  0.00  0.00    +0.309 C 
ATOM     13  O   UNL     1      -0.176  -3.423   2.807  0.00  0.00    -0.252 OA
ATOM     14  N   UNL     1       0.690  -1.975   1.302  0.00  0.00    -0.284 N 
ATOM     15  C   UNL     1       2.904  -0.570   2.475  0.00  0.00    +0.010 C 
ATOM     16  H   UNL     1       1.053  -2.598   0.653  0.00  0.00    +0.151 HD
ENDBRANCH   1  11
BRANCH   1  17
ATOM     17  C   UNL     1      -2.566  -1.239   4.130  0.00  0.00    +0.170 C 
BRANCH  17  18
ATOM     18  O   UNL     1      -2.925  -0.055   3.415  0.00  0.00    -0.387 OA
ATOM     19  H   UNL     1      -2.720   0.765   3.884  0.00  0.00    +0.210 HD
ENDBRANCH  17  18
BRANCH  17  20
ATOM     20  C   UNL     1      -3.321  -1.280   5.460  0.00  0.00    +0.262 C 
BRANCH  20  21
ATOM     21  O   UNL     1      -4.723  -1.399   5.209  0.00  0.00    -0.489 OA
BRANCH  21  22
ATOM     22  C   UNL     1      -5.541  -1.449   6.292  0.00  0.00    +0.128 A 
ATOM     23  C   UNL     1      -5.019  -1.380   7.553  0.00  0.00    +0.046 A 
ATOM     24  C   UNL     1      -5.844  -1.429   8.673  0.00  0.00    +0.004 A 
ATOM     25  C   UNL     1      -7.194  -1.548   8.545  0.00  0.00    +0.009 A 
ATOM     26  C   UNL     1      -7.771  -1.622   7.266  0.00  0.00    -0.014 A 
ATOM     27  C   UNL     1      -6.936  -1.567   6.123  0.00  0.00    +0.024 A 
ATOM     28  C   UNL     1      -7.512  -1.636   4.844  0.00  0.00    +0.012 A 
ATOM     29  C   UNL     1      -8.863  -1.750   4.719  0.00  0.00    +0.001 A 
ATOM     30  C   UNL     1      -9.685  -1.799   5.843  0.00  0.00    +0.001 A 
ATOM     31  C   UNL     1      -9.161  -1.745   7.098  0.00  0.00    +0.008 A 
ENDBRANCH  21  22
ENDBRANCH  20  21
ENDBRANCH  17  20
ENDBRANCH   1  17
TORSDOF 6
