REMARK  Name = ZINC08699168
REMARK  7 active torsions:
REMARK  status: ('A' for Active; 'I' for Inactive)
REMARK    1  A    between atoms: C_13  and  C_14
REMARK    2  A    between atoms: C_14  and  O_15
REMARK    3  A    between atoms: O_15  and  C_16
REMARK    4  A    between atoms: N_18  and  CA_19
REMARK    5  A    between atoms: CA_19  and  C_21
REMARK    6  A    between atoms: CA_19  and  C_30
REMARK    7  A    between atoms: C_24  and  N_27
REMARK                            x       y       z     vdW  Elec       q    Type
REMARK                         _______ _______ _______ _____ _____    ______ ____
ROOT
ATOM      1  C   UNL     1      -2.502   6.498  -2.157  0.00  0.00    +0.401 C 
ATOM      2  O   UNL     1      -1.903   6.983  -3.097  0.00  0.00    -0.226 OA
ATOM      3  N   UNL     1      -3.849   6.505  -2.140  0.00  0.00    -0.264 N 
ATOM      4  H   UNL     1      -4.327   6.118  -1.390  0.00  0.00    +0.153 HD
ENDROOT
BRANCH   1   5
ATOM      5  O   UNL     1      -1.819   5.954  -1.132  0.00  0.00    -0.449 OA
BRANCH   5   6
ATOM      6  C   UNL     1      -0.369   5.982  -1.218  0.00  0.00    +0.246 C 
BRANCH   6  19
ATOM      7  C   UNL     1      -0.013   1.076   0.008  0.00  0.00    +0.001 A 
ATOM      8  C   UNL     1      -1.221   1.748   0.017  0.00  0.00    +0.000 A 
ATOM      9  C   UNL     1      -1.246   3.132   0.030  0.00  0.00    +0.005 A 
ATOM     10  C   UNL     1      -0.064   3.843   0.023  0.00  0.00    -0.029 A 
ATOM     11  C   UNL     1       1.157   3.175   0.008  0.00  0.00    -0.014 A 
ATOM     12  C   UNL     1       1.174   1.779   0.000  0.00  0.00    +0.009 A 
ATOM     13  C   UNL     1       2.262   4.166   0.002  0.00  0.00    -0.014 A 
ATOM     14  C   UNL     1       3.648   3.998  -0.013  0.00  0.00    +0.009 A 
ATOM     15  C   UNL     1       4.476   5.101  -0.015  0.00  0.00    +0.001 A 
ATOM     16  C   UNL     1       3.938   6.376  -0.003  0.00  0.00    +0.000 A 
ATOM     17  C   UNL     1       2.566   6.550   0.011  0.00  0.00    +0.005 A 
ATOM     18  C   UNL     1       1.731   5.452   0.014  0.00  0.00    -0.029 A 
ATOM     19  C   UNL     1       0.227   5.323   0.028  0.00  0.00    +0.088 C 
ENDBRANCH   6  19
ENDBRANCH   5   6
ENDBRANCH   1   5
BRANCH   3  20
ATOM     20  CA  UNL     1      -4.593   7.097  -3.255  0.00  0.00    +0.220 C 
BRANCH  20  21
ATOM     21  C   UNL     1      -5.951   7.540  -2.775  0.00  0.00    -0.016 A 
ATOM     22  C   UNL     1      -6.662   6.750  -1.891  0.00  0.00    +0.008 A 
ATOM     23  C   UNL     1      -7.906   7.158  -1.447  0.00  0.00    +0.033 A 
ATOM     24  C   UNL     1      -8.443   8.351  -1.895  0.00  0.00    +0.126 A 
ATOM     25  C   UNL     1      -7.734   9.138  -2.783  0.00  0.00    +0.033 A 
ATOM     26  C   UNL     1      -6.488   8.732  -3.223  0.00  0.00    +0.008 A 
BRANCH  24  27
ATOM     27  N   UNL     1      -9.777   8.785  -1.424  0.00  0.00    +0.056 N 
ATOM     28  O   UNL     1     -10.251   9.836  -1.819  0.00  0.00    -0.126 OA
ATOM     29  O   UNL     1     -10.402   8.092  -0.641  0.00  0.00    -0.126 OA
ENDBRANCH  24  27
ENDBRANCH  20  21
BRANCH  20  30
ATOM     30  C   UNL     1      -4.756   6.074  -4.350  0.00  0.00    +0.380 C 
ATOM     31  O   UNL     1      -4.298   4.964  -4.212  0.00  0.00    -0.244 OA
ATOM     32  OXT UNL     1      -5.409   6.395  -5.477  0.00  0.00    -0.244 OA
ENDBRANCH  20  30
ENDBRANCH   3  20
TORSDOF 7
