REMARK  Name = ZINC12483435
REMARK  9 active torsions:
REMARK  status: ('A' for Active; 'I' for Inactive)
REMARK    1  A    between atoms: C_4  and  C_7
REMARK    2  A    between atoms: C_7  and  C_8
REMARK    3  A    between atoms: N_11  and  C_14
REMARK    4  A    between atoms: C_16  and  O_36
REMARK    5  A    between atoms: C_18  and  N_27
REMARK    6  A    between atoms: N_27  and  C_28
REMARK    7  A    between atoms: C_28  and  C_29
REMARK    8  A    between atoms: C_32  and  C_34
REMARK    9  A    between atoms: C_34  and  O_35
REMARK                            x       y       z     vdW  Elec       q    Type
REMARK                         _______ _______ _______ _____ _____    ______ ____
ROOT
ATOM      1  C   UNL     1       7.028  -0.761   4.678  0.00  0.00    +0.140 C 
ATOM      2  C   UNL     1       8.272  -1.651   4.586  0.00  0.00    +0.125 C 
ATOM      3  C   UNL     1       7.848  -3.079   4.225  0.00  0.00    -0.009 C 
ATOM      4  C   UNL     1       6.755  -3.528   5.209  0.00  0.00    +0.136 C 
ATOM      5  C   UNL     1       7.216  -3.141   6.633  0.00  0.00    +0.193 C 
ATOM      6  O   UNL     1       6.699  -1.815   6.843  0.00  0.00    -0.347 OA
ATOM      7  C   UNL     1       6.004  -1.430   5.608  0.00  0.00    +0.270 C 
ATOM      8  O   UNL     1       5.604  -2.675   4.988  0.00  0.00    -0.346 OA
ENDROOT
BRANCH   1  12
ATOM      9  C   UNL     1       5.382   0.846   1.074  0.00  0.00    -0.004 C 
ATOM     10  C   UNL     1       6.769   0.197   1.046  0.00  0.00    +0.019 C 
ATOM     11  C   UNL     1       7.341   0.168   2.464  0.00  0.00    +0.085 C 
ATOM     12  N   UNL     1       6.442  -0.594   3.341  0.00  0.00    -0.293 NA
ATOM     13  C   UNL     1       5.119   0.036   3.421  0.00  0.00    +0.085 C 
ATOM     14  C   UNL     1       4.479   0.062   2.030  0.00  0.00    +0.019 C 
BRANCH   9  15
ATOM     15  C   UNL     1       4.778   0.823  -0.332  0.00  0.00    +0.038 C 
BRANCH  15  19
ATOM     16  C   UNL     1       7.106   3.296  -2.923  0.00  0.00    +0.000 A 
ATOM     17  C   UNL     1       7.417   1.957  -2.783  0.00  0.00    +0.000 A 
ATOM     18  C   UNL     1       6.663   1.156  -1.944  0.00  0.00    +0.003 A 
ATOM     19  C   UNL     1       5.600   1.696  -1.246  0.00  0.00    -0.047 A 
ATOM     20  C   UNL     1       5.290   3.036  -1.385  0.00  0.00    +0.003 A 
ATOM     21  C   UNL     1       6.042   3.836  -2.225  0.00  0.00    +0.000 A 
ENDBRANCH  15  19
ENDBRANCH   9  15
ENDBRANCH   1  12
BRANCH   3  22
ATOM     22  N   UNL     1       7.323  -3.106   2.853  0.00  0.00    +0.389 N 
ATOM     23  H   UNL     1       6.466  -2.575   2.810  0.00  0.00    -0.085 HD
ATOM     24  H   UNL     1       8.002  -2.701   2.225  0.00  0.00    -0.085 HD
BRANCH  22  25
ATOM     25  C   UNL     1       7.058  -4.495   2.457  0.00  0.00    -0.006 C 
BRANCH  25  26
ATOM     26  C   UNL     1       6.638  -4.534   1.010  0.00  0.00    +0.089 A 
ATOM     27  C   UNL     1       7.467  -4.582  -0.048  0.00  0.00    +0.043 A 
ATOM     28  C   UNL     1       6.654  -4.605  -1.205  0.00  0.00    +0.047 A 
ATOM     29  C   UNL     1       5.377  -4.569  -0.784  0.00  0.00    +0.130 A 
ATOM     30  O   UNL     1       5.374  -4.532   0.559  0.00  0.00    -0.464 OA
BRANCH  29  31
ATOM     31  C   UNL     1       4.157  -4.576  -1.668  0.00  0.00    +0.230 C 
BRANCH  31  32
ATOM     32  O   UNL     1       3.748  -5.924  -1.906  0.00  0.00    -0.387 OA
ATOM     33  H   UNL     1       2.966  -6.004  -2.469  0.00  0.00    +0.210 HD
ENDBRANCH  31  32
ENDBRANCH  29  31
ENDBRANCH  25  26
ENDBRANCH  22  25
ENDBRANCH   3  22
BRANCH   2  34
ATOM     34  O   UNL     1       8.948  -1.657   5.845  0.00  0.00    -0.392 OA
ATOM     35  H   UNL     1       9.243  -0.784   6.138  0.00  0.00    +0.210 HD
ENDBRANCH   2  34
TORSDOF 9
