REMARK  Name = ZINC15866419
REMARK  6 active torsions:
REMARK  status: ('A' for Active; 'I' for Inactive)
REMARK    1  A    between atoms: C_1  and  C_2
REMARK    2  A    between atoms: C_5  and  C_8
REMARK    3  A    between atoms: C_11  and  C_19
REMARK    4  A    between atoms: C_22  and  C_25
REMARK    5  A    between atoms: C_25  and  C_26
REMARK    6  A    between atoms: C_25  and  C_27
REMARK                            x       y       z     vdW  Elec       q    Type
REMARK                         _______ _______ _______ _____ _____    ______ ____
ROOT
ATOM      1  C   UNL     1      -0.728   1.579   1.272  0.00  0.00    +0.144 C 
ATOM      2  C   UNL     1      -0.013   1.086   0.008  0.00  0.00    +0.059 C 
ATOM      3  C   UNL     1      -0.752   1.592  -1.236  0.00  0.00    +0.106 C 
ATOM      4  N   UNL     1      -2.115   1.026  -1.240  0.00  0.00    -0.305 N 
ATOM      5  C   UNL     1      -2.785   1.036  -0.025  0.00  0.00    +0.236 A 
ATOM      6  N   UNL     1      -2.154   1.294   1.149  0.00  0.00    -0.206 N 
ATOM      7  N   UNL     1      -3.143   1.221   2.129  0.00  0.00    -0.042 NA
ATOM      8  N   UNL     1      -4.247   0.936   1.517  0.00  0.00    -0.021 NA
ATOM      9  N   UNL     1      -4.042   0.826   0.249  0.00  0.00    -0.092 NA
ATOM     10  H   UNL     1      -2.518   0.666  -2.045  0.00  0.00    +0.150 HD
ENDROOT
BRANCH   1  15
ATOM     11  C   UNL     1       1.393  -1.163   5.896  0.00  0.00    +0.044 C 
ATOM     12  C   UNL     1       0.840  -0.448   4.690  0.00  0.00    -0.050 A 
ATOM     13  C   UNL     1       0.926   0.929   4.603  0.00  0.00    +0.004 A 
ATOM     14  C   UNL     1       0.418   1.585   3.497  0.00  0.00    +0.006 A 
ATOM     15  C   UNL     1      -0.175   0.864   2.478  0.00  0.00    -0.023 A 
ATOM     16  C   UNL     1      -0.265  -0.512   2.567  0.00  0.00    +0.006 A 
ATOM     17  C   UNL     1       0.246  -1.169   3.671  0.00  0.00    +0.004 A 
ENDBRANCH   1  15
BRANCH   3  18
ATOM     18  C   UNL     1      -0.017   1.151  -2.475  0.00  0.00    -0.027 A 
ATOM     19  C   UNL     1      -0.171  -0.140  -2.947  0.00  0.00    +0.006 A 
ATOM     20  C   UNL     1       0.499  -0.543  -4.087  0.00  0.00    +0.004 A 
ATOM     21  C   UNL     1       1.332   0.340  -4.748  0.00  0.00    -0.045 A 
ATOM     22  C   UNL     1       1.490   1.629  -4.274  0.00  0.00    +0.004 A 
ATOM     23  C   UNL     1       0.815   2.034  -3.137  0.00  0.00    +0.006 A 
BRANCH  21  24
ATOM     24  C   UNL     1       2.067  -0.102  -5.987  0.00  0.00    +0.013 C 
ATOM     25  C   UNL     1       2.978  -1.283  -5.646  0.00  0.00    +0.012 C 
ATOM     26  C   UNL     1       1.057  -0.529  -7.055  0.00  0.00    +0.012 C 
ENDBRANCH  21  24
ENDBRANCH   3  18
TORSDOF 3
