REMARK  Name = ZINC09405998
REMARK  6 active torsions:
REMARK  status: ('A' for Active; 'I' for Inactive)
REMARK    1  A    between atoms: C_1  and  C_2
REMARK    2  A    between atoms: C_2  and  O_3
REMARK    3  A    between atoms: O_3  and  C_4
REMARK    4  A    between atoms: C_4  and  C_6
REMARK    5  A    between atoms: C_10  and  N_11
REMARK    6  A    between atoms: C_16  and  C_26
REMARK                            x       y       z     vdW  Elec       q    Type
REMARK                         _______ _______ _______ _____ _____    ______ ____
ROOT
ATOM      1  N   UNL     1       4.799   0.178  -0.508  0.00  0.00    -0.263 N 
ATOM      2  C   UNL     1       4.761   1.512  -0.322  0.00  0.00    +0.311 C 
ATOM      3  O   UNL     1       5.779   2.169  -0.420  0.00  0.00    -0.252 OA
ATOM      4  N   UNL     1       3.594   2.119  -0.027  0.00  0.00    -0.248 N 
ATOM      5  C   UNL     1       2.330   1.362   0.011  0.00  0.00    +0.159 C 
ATOM      6  C   UNL     1       1.538   1.845   1.234  0.00  0.00    +0.188 C 
ATOM      7  O   UNL     1       1.321   3.253   1.117  0.00  0.00    -0.486 OA
ATOM      8  C   UNL     1       2.394   4.037   0.831  0.00  0.00    +0.142 A 
ATOM      9  C   UNL     1       3.540   3.495   0.255  0.00  0.00    +0.081 A 
ATOM     10  C   UNL     1       4.624   4.306  -0.037  0.00  0.00    +0.047 A 
ATOM     11  C   UNL     1       4.568   5.660   0.246  0.00  0.00    +0.043 A 
ATOM     12  C   UNL     1       3.432   6.200   0.821  0.00  0.00    +0.024 A 
ATOM     13  C   UNL     1       2.347   5.394   1.113  0.00  0.00    +0.049 A 
ATOM     14 CL   UNL     1       5.924   6.680  -0.120  0.00  0.00    -0.083 Cl
ATOM     15  C   UNL     1       0.190   1.122   1.290  0.00  0.00    +0.053 C 
ATOM     16  H   UNL     1       3.976  -0.336  -0.504  0.00  0.00    +0.157 HD
ENDROOT
BRANCH   1  21
ATOM     17  C   UNL     1       6.254  -1.812  -0.912  0.00  0.00    +0.091 A 
ATOM     18  C   UNL     1       7.636  -2.227  -1.094  0.00  0.00    -0.021 A 
ATOM     19  C   UNL     1       8.547  -1.232  -1.040  0.00  0.00    -0.004 A 
ATOM     20  S   UNL     1       7.599   0.237  -0.761  0.00  0.00    -0.077 S 
ATOM     21  C   UNL     1       6.013  -0.460  -0.705  0.00  0.00    +0.087 A 
ATOM     22  C   UNL     1      10.032  -1.358  -1.190  0.00  0.00    +0.043 C 
ATOM     23  C   UNL     1      10.409  -2.839  -1.043  0.00  0.00    +0.005 C 
ATOM     24  C   UNL     1       9.474  -3.676  -1.921  0.00  0.00    +0.005 C 
ATOM     25  C   UNL     1       8.063  -3.670  -1.331  0.00  0.00    +0.037 C 
BRANCH  17  26
ATOM     26  C   UNL     1       5.159  -2.783  -0.946  0.00  0.00    +0.342 C 
ATOM     27  O   UNL     1       4.610  -3.044  -1.999  0.00  0.00    -0.245 OA
BRANCH  26  28
ATOM     28  O   UNL     1       4.759  -3.387   0.192  0.00  0.00    -0.461 OA
BRANCH  28  30
ATOM     29  C   UNL     1       3.356  -4.916   1.466  0.00  0.00    +0.048 C 
ATOM     30  C   UNL     1       3.667  -4.338   0.084  0.00  0.00    +0.229 C 
ENDBRANCH  28  30
ENDBRANCH  26  28
ENDBRANCH  17  26
ENDBRANCH   1  21
TORSDOF 4
