REMARK  Name = ZINC11854424
REMARK  7 active torsions:
REMARK  status: ('A' for Active; 'I' for Inactive)
REMARK    1  A    between atoms: C_1  and  C_2
REMARK    2  A    between atoms: C_11  and  N_20
REMARK    3  A    between atoms: C_13  and  C_15
REMARK    4  A    between atoms: C_21  and  C_23
REMARK    5  A    between atoms: C_23  and  C_25
REMARK    6  A    between atoms: C_23  and  O_26
REMARK    7  A    between atoms: O_26  and  C_27
REMARK                            x       y       z     vdW  Elec       q    Type
REMARK                         _______ _______ _______ _____ _____    ______ ____
ROOT
ATOM      1  C   UNL     1       2.139  11.876  -0.176  0.00  0.00    +0.066 C 
ATOM      2  C   UNL     1       1.109  10.810   0.097  0.00  0.00    +0.047 A 
ATOM      3  C   UNL     1      -0.209  11.146   0.194  0.00  0.00    +0.093 A 
ATOM      4  C   UNL     1      -1.152  10.132   0.449  0.00  0.00    +0.253 A 
ATOM      5  O   UNL     1      -2.339  10.395   0.542  0.00  0.00    -0.268 OA
ATOM      6  N   UNL     1      -0.716   8.861   0.583  0.00  0.00    -0.291 N 
ATOM      7  H   UNL     1      -1.347   8.146   0.755  0.00  0.00    +0.172 HD
ATOM      8  C   UNL     1       0.613   8.589   0.481  0.00  0.00    +0.234 A 
ATOM      9  N   UNL     1       1.487   9.542   0.243  0.00  0.00    -0.217 NA
ATOM     10  N   UNL     1       1.050   7.287   0.625  0.00  0.00    -0.185 N 
ATOM     11  C   UNL     1       2.346   6.862   0.542  0.00  0.00    +0.132 A 
ATOM     12  C   UNL     1       2.353   5.520   0.746  0.00  0.00    +0.074 A 
ATOM     13  C   UNL     1       1.020   5.107   0.950  0.00  0.00    +0.102 A 
ATOM     14  N   UNL     1       0.244   6.170   0.880  0.00  0.00    -0.162 NA
ENDROOT
BRANCH  13  15
ATOM     15  C   UNL     1       0.570   3.722   1.205  0.00  0.00    +0.039 A 
ATOM     16  C   UNL     1      -0.698   3.252   1.416  0.00  0.00    +0.018 A 
ATOM     17  C   UNL     1      -0.877   1.902   1.630  0.00  0.00    +0.008 A 
ATOM     18  C   UNL     1       0.207   1.084   1.637  0.00  0.00    +0.046 A 
ATOM     19  S   UNL     1       1.540   2.228   1.319  0.00  0.00    -0.095 S 
ENDBRANCH  13  15
BRANCH  11  20
ATOM     20  N   UNL     1       3.460   7.662   0.300  0.00  0.00    -0.267 N 
ATOM     21  C   UNL     1       4.688   7.109   0.244  0.00  0.00    +0.259 C 
ATOM     22  O   UNL     1       4.823   5.915   0.406  0.00  0.00    -0.271 OA
ATOM     23  H   UNL     1       3.352   8.617   0.170  0.00  0.00    +0.156 HD
BRANCH  21  24
ATOM     24  C   UNL     1       5.893   7.975  -0.019  0.00  0.00    +0.256 C 
ATOM     25  C   UNL     1       6.085   8.949   1.145  0.00  0.00    +0.062 C 
BRANCH  24  26
ATOM     26  O   UNL     1       7.053   7.151  -0.146  0.00  0.00    -0.480 OA
BRANCH  26  27
ATOM     27  C   UNL     1       8.090   7.652  -0.867  0.00  0.00    +0.122 A 
ATOM     28  C   UNL     1       8.036   8.951  -1.352  0.00  0.00    +0.045 A 
ATOM     29  C   UNL     1       9.094   9.460  -2.080  0.00  0.00    +0.004 A 
ATOM     30  C   UNL     1      10.201   8.672  -2.336  0.00  0.00    +0.000 A 
ATOM     31  C   UNL     1      10.255   7.376  -1.859  0.00  0.00    +0.004 A 
ATOM     32  C   UNL     1       9.203   6.864  -1.125  0.00  0.00    +0.045 A 
ENDBRANCH  26  27
ENDBRANCH  24  26
ENDBRANCH  21  24
ENDBRANCH  11  20
TORSDOF 5
