REMARK  Name = ZINC20109359
REMARK  14 active torsions:
REMARK  status: ('A' for Active; 'I' for Inactive)
REMARK    1  A    between atoms: C_1  and  C_2
REMARK    2  A    between atoms: C_2  and  C_3
REMARK    3  A    between atoms: C_3  and  C_4
REMARK    4  A    between atoms: C_3  and  C_5
REMARK    5  A    between atoms: C_3  and  N_6
REMARK    6  A    between atoms: C_7  and  C_11
REMARK    7  A    between atoms: C_11  and  N_12
REMARK    8  A    between atoms: N_12  and  C_13
REMARK    9  A    between atoms: N_12  and  C_29
REMARK   10  A    between atoms: C_13  and  C_14
REMARK   11  A    between atoms: C_18  and  O_27
REMARK   12  A    between atoms: C_19  and  O_25
REMARK   13  A    between atoms: O_25  and  C_26
REMARK   14  A    between atoms: O_27  and  C_28
REMARK                            x       y       z     vdW  Elec       q    Type
REMARK                         _______ _______ _______ _____ _____    ______ ____
ROOT
ATOM      1  N   UNL     1       3.826  -2.689  -3.224  0.00  0.00    +0.389 N 
ATOM      2  H   UNL     1       4.067  -3.659  -3.083  0.00  0.00    -0.080 HD
ENDROOT
BRANCH   1   3
ATOM      3  C   UNL     1       4.034  -1.946  -1.975  0.00  0.00    -0.068 C 
ATOM      4  C   UNL     1       3.216  -2.587  -0.835  0.00  0.00    -0.015 C 
ATOM      5  C   UNL     1       2.725  -1.383   0.005  0.00  0.00    -0.002 C 
ATOM      6  C   UNL     1       2.406  -0.320  -1.075  0.00  0.00    -0.002 C 
ATOM      7  C   UNL     1       3.519  -0.504  -2.127  0.00  0.00    -0.015 C 
ENDBRANCH   1   3
BRANCH   1   8
ATOM      8  C   UNL     1       2.416  -2.589  -3.624  0.00  0.00    +0.001 C 
BRANCH   8  10
ATOM      9  N   UNL     1       1.750  -4.697  -4.896  0.00  0.00    -0.226 N 
ATOM     10  C   UNL     1       2.183  -3.424  -4.858  0.00  0.00    +0.136 A 
ATOM     11  N   UNL     1       2.362  -3.049  -6.101  0.00  0.00    -0.115 NA
ATOM     12  N   UNL     1       2.055  -4.041  -6.863  0.00  0.00    -0.023 NA
ATOM     13  N   UNL     1       1.691  -5.041  -6.138  0.00  0.00    -0.043 NA
BRANCH   9  14
ATOM     14  C   UNL     1       1.416  -5.538  -3.744  0.00  0.00    +0.061 C 
ATOM     15  C   UNL     1       0.190  -4.964  -3.033  0.00  0.00    +0.036 C 
ATOM     16  C   UNL     1       2.600  -5.569  -2.775  0.00  0.00    +0.036 C 
BRANCH  14  18
ATOM     17  C   UNL     1       0.762  -7.838  -3.018  0.00  0.00    +0.006 C 
ATOM     18  C   UNL     1       1.111  -6.959  -4.221  0.00  0.00    +0.026 C 
ENDBRANCH  14  18
ENDBRANCH   9  14
ENDBRANCH   8  10
ENDBRANCH   1   8
BRANCH   1  19
ATOM     19  C   UNL     1       4.675  -2.121  -4.280  0.00  0.00    -0.037 C 
BRANCH  19  20
ATOM     20  C   UNL     1       6.124  -2.378  -3.951  0.00  0.00    +0.001 A 
ATOM     21  C   UNL     1       6.746  -3.475  -4.451  0.00  0.00    +0.017 A 
ATOM     22  C   UNL     1       8.152  -3.696  -4.114  0.00  0.00    +0.002 A 
ATOM     23  C   UNL     1       8.845  -4.811  -4.602  0.00  0.00    +0.059 A 
ATOM     24  C   UNL     1      10.169  -4.991  -4.267  0.00  0.00    +0.162 A 
ATOM     25  C   UNL     1      10.820  -4.067  -3.444  0.00  0.00    +0.163 A 
ATOM     26  C   UNL     1      10.145  -2.963  -2.957  0.00  0.00    +0.075 A 
ATOM     27  C   UNL     1       8.809  -2.766  -3.285  0.00  0.00    +0.053 A 
ATOM     28  N   UNL     1       8.118  -1.670  -2.809  0.00  0.00    -0.322 N 
ATOM     29  C   UNL     1       6.828  -1.474  -3.130  0.00  0.00    +0.251 A 
ATOM     30  O   UNL     1       6.250  -0.492  -2.695  0.00  0.00    -0.268 OA
ATOM     31  H   UNL     1       8.572  -1.030  -2.239  0.00  0.00    +0.169 HD
BRANCH  25  32
ATOM     32  O   UNL     1      12.125  -4.255  -3.120  0.00  0.00    -0.491 OA
ATOM     33  C   UNL     1      12.732  -3.275  -2.276  0.00  0.00    +0.277 C 
ENDBRANCH  25  32
BRANCH  24  34
ATOM     34  O   UNL     1      10.846  -6.073  -4.738  0.00  0.00    -0.491 OA
ATOM     35  C   UNL     1      10.121  -6.978  -5.574  0.00  0.00    +0.277 C 
ENDBRANCH  24  34
ENDBRANCH  19  20
ENDBRANCH   1  19
TORSDOF 9
