REMARK  Name = ZINC48261824
REMARK  10 active torsions:
REMARK  status: ('A' for Active; 'I' for Inactive)
REMARK    1  A    between atoms: C_1  and  C_2
REMARK    2  A    between atoms: C_2  and  C_3
REMARK    3  A    between atoms: C_3  and  N_4
REMARK    4  A    between atoms: C_6  and  C_10
REMARK    5  A    between atoms: C_7  and  C_9
REMARK    6  A    between atoms: N_16  and  C_17
REMARK    7  A    between atoms: C_19  and  C_25
REMARK    8  A    between atoms: C_19  and  C_26
REMARK    9  A    between atoms: C_21  and  C_23
REMARK   10  A    between atoms: C_21  and  C_24
REMARK                            x       y       z     vdW  Elec       q    Type
REMARK                         _______ _______ _______ _____ _____    ______ ____
ROOT
ATOM      1  C   UNL     1      -0.258  -5.218  -2.674  0.00  0.00    +0.079 A 
ATOM      2  C   UNL     1      -0.936  -5.090  -3.890  0.00  0.00    +0.048 A 
ATOM      3  C   UNL     1      -1.281  -6.240  -4.576  0.00  0.00    +0.116 A 
ATOM      4  N   UNL     1      -0.961  -7.420  -4.065  0.00  0.00    -0.223 NA
ATOM      5  C   UNL     1      -0.318  -7.511  -2.910  0.00  0.00    +0.216 A 
ATOM      6  N   UNL     1       0.036  -6.435  -2.224  0.00  0.00    -0.214 NA
ATOM      7  N   UNL     1      -0.003  -8.763  -2.411  0.00  0.00    -0.311 N 
ATOM      8  H   UNL     1       0.468  -8.844  -1.567  0.00  0.00    +0.149 HD
ENDROOT
BRANCH   7   9
ATOM      9  C   UNL     1      -0.381  -9.968  -3.160  0.00  0.00    +0.071 C 
ATOM     10  C   UNL     1      -1.806 -10.373  -2.775  0.00  0.00    +0.009 C 
ATOM     11  C   UNL     1      -2.210 -11.634  -3.537  0.00  0.00    -0.072 C 
ATOM     12  N   UNL     1      -1.254 -12.716  -3.353  0.00  0.00    +0.386 N 
ATOM     13  C   UNL     1       0.159 -12.400  -3.493  0.00  0.00    -0.072 C 
ATOM     14  C   UNL     1       0.560 -11.112  -2.783  0.00  0.00    +0.009 C 
ATOM     15  C   UNL     1       0.583 -12.339  -4.963  0.00  0.00    -0.010 C 
ATOM     16  C   UNL     1       0.959 -13.552  -2.840  0.00  0.00    -0.010 C 
ATOM     17  C   UNL     1      -2.436 -11.310  -5.013  0.00  0.00    -0.010 C 
ATOM     18  C   UNL     1      -3.564 -12.105  -2.959  0.00  0.00    -0.010 C 
ATOM     19  H   UNL     1      -1.402 -13.121  -2.426  0.00  0.00    -0.084 HD
ATOM     20  H   UNL     1      -1.484 -13.463  -4.012  0.00  0.00    -0.084 HD
ENDBRANCH   7   9
BRANCH   1  23
ATOM     21  N   UNL     1       0.408  -1.933  -1.285  0.00  0.00    -0.271 N 
ATOM     22  C   UNL     1      -0.106  -2.716  -2.251  0.00  0.00    +0.118 A 
ATOM     23  C   UNL     1       0.134  -4.015  -1.902  0.00  0.00    +0.041 A 
ATOM     24  C   UNL     1       0.822  -4.002  -0.672  0.00  0.00    +0.069 A 
ATOM     25  N   UNL     1       0.987  -2.757  -0.313  0.00  0.00    -0.176 NA
ATOM     26  C   UNL     1       1.292  -5.213   0.093  0.00  0.00    +0.068 C 
BRANCH  21  27
ATOM     27  C   UNL     1       0.373  -0.468  -1.259  0.00  0.00    +0.143 C 
BRANCH  27  29
ATOM     28  C   UNL     1      -0.296   1.533   0.080  0.00  0.00    +0.005 C 
ATOM     29  C   UNL     1      -0.259   0.003   0.052  0.00  0.00    +0.020 C 
ENDBRANCH  27  29
ENDBRANCH  21  27
ENDBRANCH   1  23
TORSDOF 4
