REMARK  Name = ZINC53545115
REMARK  12 active torsions:
REMARK  status: ('A' for Active; 'I' for Inactive)
REMARK    1  A    between atoms: C_1  and  C_2
REMARK    2  A    between atoms: C_3  and  N_12
REMARK    3  A    between atoms: C_7  and  S_8
REMARK    4  A    between atoms: S_8  and  N_11
REMARK    5  A    between atoms: C_13  and  C_15
REMARK    6  A    between atoms: C_15  and  C_17
REMARK    7  A    between atoms: C_15  and  O_18
REMARK    8  A    between atoms: O_18  and  C_19
REMARK    9  A    between atoms: C_22  and  C_25
REMARK   10  A    between atoms: C_25  and  C_26
REMARK   11  A    between atoms: C_25  and  C_27
REMARK   12  A    between atoms: C_25  and  C_28
REMARK                            x       y       z     vdW  Elec       q    Type
REMARK                         _______ _______ _______ _____ _____    ______ ____
ROOT
ATOM      1  N   UNL     1      -0.011  -0.009  -2.409  0.00  0.00    -0.282 N 
ATOM      2  C   UNL     1       0.089  -0.666  -3.581  0.00  0.00    +0.258 C 
ATOM      3  O   UNL     1       0.088  -1.879  -3.599  0.00  0.00    -0.271 OA
ATOM      4  H   UNL     1      -0.094   0.958  -2.400  0.00  0.00    +0.155 HD
ENDROOT
BRANCH   1   7
ATOM      5  C   UNL     1      -1.250   1.170  -0.134  0.00  0.00    +0.048 C 
ATOM      6  C   UNL     1      -0.588  -0.182  -0.070  0.00  0.00    -0.003 A 
ATOM      7  C   UNL     1       0.006  -0.720  -1.204  0.00  0.00    +0.038 A 
ATOM      8  C   UNL     1       0.616  -1.966  -1.141  0.00  0.00    +0.024 A 
ATOM      9  C   UNL     1       0.631  -2.666   0.050  0.00  0.00    +0.004 A 
ATOM     10  C   UNL     1       0.039  -2.128   1.177  0.00  0.00    +0.029 A 
ATOM     11  C   UNL     1      -0.565  -0.885   1.119  0.00  0.00    +0.110 A 
BRANCH  11  12
ATOM     12  S   UNL     1      -1.312  -0.201   2.560  0.00  0.00    +0.056 S 
ATOM     13  O   UNL     1      -2.609   0.236   2.177  0.00  0.00    -0.153 OA
ATOM     14  O   UNL     1      -1.102  -1.136   3.609  0.00  0.00    -0.153 OA
BRANCH  12  15
ATOM     15  N   UNL     1      -0.454   1.158   2.958  0.00  0.00    -0.204 NA
ATOM     16  H   UNL     1      -0.896   1.899   3.402  0.00  0.00    +0.144 HD
ATOM     17  H   UNL     1       0.491   1.214   2.748  0.00  0.00    +0.144 HD
ENDBRANCH  12  15
ENDBRANCH  11  12
ENDBRANCH   1   7
BRANCH   2  18
ATOM     18  C   UNL     1       0.201   0.106  -4.871  0.00  0.00    +0.256 C 
ATOM     19  C   UNL     1      -1.089   0.894  -5.108  0.00  0.00    +0.062 C 
BRANCH  18  20
ATOM     20  O   UNL     1       0.410  -0.803  -5.953  0.00  0.00    -0.480 OA
BRANCH  20  21
ATOM     21  C   UNL     1       1.204  -0.378  -6.971  0.00  0.00    +0.122 A 
ATOM     22  C   UNL     1       1.682   0.925  -6.983  0.00  0.00    +0.046 A 
ATOM     23  C   UNL     1       2.489   1.354  -8.018  0.00  0.00    +0.008 A 
ATOM     24  C   UNL     1       2.821   0.487  -9.043  0.00  0.00    -0.042 A 
ATOM     25  C   UNL     1       2.347  -0.812  -9.033  0.00  0.00    +0.008 A 
ATOM     26  C   UNL     1       1.544  -1.248  -7.997  0.00  0.00    +0.046 A 
BRANCH  24  27
ATOM     27  C   UNL     1       3.702   0.958 -10.171  0.00  0.00    -0.013 C 
ATOM     28  C   UNL     1       5.054   1.404  -9.611  0.00  0.00    +0.015 C 
ATOM     29  C   UNL     1       3.915  -0.187 -11.164  0.00  0.00    +0.015 C 
ATOM     30  C   UNL     1       3.032   2.134 -10.884  0.00  0.00    +0.015 C 
ENDBRANCH  24  27
ENDBRANCH  20  21
ENDBRANCH  18  20
ENDBRANCH   2  18
TORSDOF 7
