REMARK  Name = ZINC63267359
REMARK  8 active torsions:
REMARK  status: ('A' for Active; 'I' for Inactive)
REMARK    1  A    between atoms: C_4  and  C_7
REMARK    2  A    between atoms: N_9  and  C_10
REMARK    3  A    between atoms: C_10  and  C_19
REMARK    4  A    between atoms: C_11  and  C_12
REMARK    5  A    between atoms: N_21  and  CA_22
REMARK    6  A    between atoms: CA_22  and  CB_24
REMARK    7  A    between atoms: CA_22  and  C_34
REMARK    8  A    between atoms: CB_24  and  CG_25
REMARK                            x       y       z     vdW  Elec       q    Type
REMARK                         _______ _______ _______ _____ _____    ______ ____
ROOT
ATOM      1  C   UNK A   1       4.860  -2.861   0.014  0.00  0.00    +0.097 C 
ATOM      2  C   UNK A   1       6.053  -2.246  -0.155  0.00  0.00    +0.036 C 
ENDROOT
BRANCH   2   3
ATOM      3  C   UNK A   1       6.127  -0.777  -0.177  0.00  0.00    -0.023 A 
ATOM      4  C   UNK A   1       5.162  -0.015   0.491  0.00  0.00    +0.011 A 
ATOM      5  C   UNK A   1       5.237   1.361   0.468  0.00  0.00    +0.039 A 
ATOM      6  C   UNK A   1       6.266   1.990  -0.216  0.00  0.00    +0.123 A 
ATOM      7  C   UNK A   1       7.226   1.241  -0.881  0.00  0.00    +0.039 A 
ATOM      8  C   UNK A   1       7.166  -0.136  -0.860  0.00  0.00    +0.011 A 
ATOM      9  F   UNK A   1       6.334   3.339  -0.236  0.00  0.00    -0.205 F 
ENDBRANCH   2   3
BRANCH   1  12
ATOM     10  C   UNK A   0       2.934  -2.305   1.295  0.00  0.00    +0.248 C 
ATOM     11  O   UNK A   0       3.290  -3.091   2.151  0.00  0.00    -0.270 OA
ATOM     12  N   UNK A   1       3.702  -2.100   0.206  0.00  0.00    -0.277 N 
ATOM     13  H   UNK A   1       3.452  -1.426  -0.444  0.00  0.00    +0.155 HD
BRANCH  10  17
ATOM     14  C   UNK A   0      -0.728  -0.200   1.736  0.00  0.00    +0.000 A 
ATOM     15  C   UNK A   0      -0.379  -1.174   2.655  0.00  0.00    +0.001 A 
ATOM     16  C   UNK A   0       0.809  -1.861   2.517  0.00  0.00    +0.013 A 
ATOM     17  C   UNK A   0       1.660  -1.572   1.448  0.00  0.00    +0.037 A 
ATOM     18  C   UNK A   0       1.301  -0.588   0.526  0.00  0.00    +0.013 A 
ATOM     19  C   UNK A   0       0.110   0.092   0.675  0.00  0.00    +0.001 A 
ENDBRANCH  10  17
ENDBRANCH   1  12
BRANCH   1  20
ATOM     20  C   UNK A   1       4.780  -4.328  -0.004  0.00  0.00    +0.259 C 
ATOM     21  O   UNK A   1       3.708  -4.881   0.149  0.00  0.00    -0.269 OA
ATOM     22  N   TRP A   2       5.896  -5.061  -0.189  0.00  0.00    -0.297 N 
ATOM     23  H   TRP A   2       6.752  -4.620  -0.310  0.00  0.00    +0.150 HD
BRANCH  22  24
ATOM     24  CA  TRP A   2       5.817  -6.524  -0.206  0.00  0.00    +0.191 C 
BRANCH  24  25
ATOM     25  C   TRP A   2       5.881  -7.048   1.205  0.00  0.00    +0.376 C 
ATOM     26  O   TRP A   2       5.315  -8.087   1.496  0.00  0.00    -0.244 OA
ATOM     27  OXT TRP A   2       6.499  -6.431   2.057  0.00  0.00    -0.244 OA
ENDBRANCH  24  25
BRANCH  24  28
ATOM     28  CB  TRP A   2       6.988  -7.088  -1.013  0.00  0.00    +0.067 C 
BRANCH  28  29
ATOM     29  CG  TRP A   2       6.856  -6.664  -2.453  0.00  0.00    -0.039 C 
ATOM     30  CD2 TRP A   2       7.441  -5.597  -3.044  0.00  0.00    -0.001 A 
ATOM     31  CE3 TRP A   2       8.339  -4.551  -2.541  0.00  0.00    +0.010 A 
ATOM     32  CZ3 TRP A   2       8.768  -3.590  -3.390  0.00  0.00    +0.001 A 
ATOM     33  CH2 TRP A   2       8.378  -3.569  -4.736  0.00  0.00    +0.002 A 
ATOM     34  CZ2 TRP A   2       7.555  -4.496  -5.272  0.00  0.00    +0.026 A 
ATOM     35  CE2 TRP A   2       7.044  -5.552  -4.469  0.00  0.00    +0.043 A 
ATOM     36  NE1 TRP A   2       6.245  -6.553  -4.749  0.00  0.00    -0.380 N 
ATOM     37  CD1 TRP A   2       6.049  -7.350  -3.533  0.00  0.00    +0.144 C 
ATOM     38  HE1 TRP A   2       5.851  -6.738  -5.616  0.00  0.00    +0.160 HD
ENDBRANCH  28  29
ENDBRANCH  24  28
ENDBRANCH  22  24
ENDBRANCH   1  20
TORSDOF 8
