REMARK  Name = ZINC05086891
REMARK  5 active torsions:
REMARK  status: ('A' for Active; 'I' for Inactive)
REMARK    1  A    between atoms: C_1  and  C_2
REMARK    2  A    between atoms: C_2  and  N_3
REMARK    3  A    between atoms: C_17  and  S_18
REMARK    4  A    between atoms: S_18  and  C_19
REMARK    5  A    between atoms: C_19  and  C_20
REMARK                            x       y       z     vdW  Elec       q    Type
REMARK                         _______ _______ _______ _____ _____    ______ ____
ROOT
ATOM      1  N   UNL     1      -0.698   1.558   1.213  0.00  0.00    -0.286 N 
ATOM      2  C   UNL     1      -0.345   2.738   1.768  0.00  0.00    +0.279 A 
ATOM      3  O   UNL     1       0.540   3.417   1.275  0.00  0.00    -0.265 OA
ATOM      4  C   UNL     1      -1.026   3.171   2.925  0.00  0.00    +0.131 A 
ATOM      5  C   UNL     1      -2.026   2.355   3.452  0.00  0.00    +0.104 A 
ATOM      6  C   UNL     1      -2.545   3.047   4.641  0.00  0.00    +0.026 A 
ATOM      7  C   UNL     1      -3.537   2.740   5.574  0.00  0.00    +0.012 A 
ATOM      8  C   UNL     1      -3.799   3.606   6.598  0.00  0.00    +0.001 A 
ATOM      9  C   UNL     1      -3.085   4.791   6.717  0.00  0.00    +0.002 A 
ATOM     10  C   UNL     1      -2.103   5.113   5.808  0.00  0.00    +0.026 A 
ATOM     11  C   UNL     1      -1.819   4.244   4.756  0.00  0.00    +0.049 A 
ATOM     12  N   UNL     1      -0.912   4.301   3.719  0.00  0.00    -0.349 N 
ATOM     13  H   UNL     1      -0.287   5.027   3.566  0.00  0.00    +0.166 HD
ATOM     14  N   UNL     1      -2.324   1.191   2.853  0.00  0.00    -0.221 NA
ATOM     15  C   UNL     1      -1.686   0.801   1.772  0.00  0.00    +0.173 A 
ENDROOT
BRANCH   1  17
ATOM     16  C   UNL     1      -0.753   1.593  -1.232  0.00  0.00    +0.027 C 
ATOM     17  C   UNL     1      -0.013   1.086   0.008  0.00  0.00    +0.124 C 
ENDBRANCH   1  17
BRANCH  15  18
ATOM     18  S   UNL     1      -2.117  -0.736   1.028  0.00  0.00    -0.083 S 
BRANCH  18  19
ATOM     19  C   UNL     1      -3.428  -1.274   2.153  0.00  0.00    +0.114 C 
BRANCH  19  20
ATOM     20  C   UNL     1      -3.963  -2.608   1.699  0.00  0.00    -0.019 A 
ATOM     21  C   UNL     1      -5.028  -2.673   0.813  0.00  0.00    +0.007 A 
ATOM     22  C   UNL     1      -5.484  -3.922   0.420  0.00  0.00    +0.020 A 
ATOM     23  C   UNL     1      -4.873  -5.053   0.928  0.00  0.00    +0.111 A 
ATOM     24  N   UNL     1      -3.866  -4.953   1.774  0.00  0.00    -0.263 NA
ATOM     25  C   UNL     1      -3.403  -3.782   2.166  0.00  0.00    +0.115 A 
ENDBRANCH  19  20
ENDBRANCH  18  19
ENDBRANCH  15  18
TORSDOF 4
