REMARK  Name = ZINC04907810
REMARK  8 active torsions:
REMARK  status: ('A' for Active; 'I' for Inactive)
REMARK    1  A    between atoms: C_1  and  C_2
REMARK    2  A    between atoms: C_8  and  C_10
REMARK    3  A    between atoms: C_8  and  C_11
REMARK    4  A    between atoms: C_8  and  N_50
REMARK    5  A    between atoms: N_13  and  C_14
REMARK    6  A    between atoms: C_23  and  C_24
REMARK    7  A    between atoms: C_24  and  O_26
REMARK    8  A    between atoms: O_26  and  C_27
REMARK                            x       y       z     vdW  Elec       q    Type
REMARK                         _______ _______ _______ _____ _____    ______ ____
ROOT
ATOM      1  C   UNL     1       2.605   3.641  -0.143  0.00  0.00    +0.073 A 
ATOM      2  C   UNL     1       3.403   2.514  -0.633  0.00  0.00    +0.023 A 
ATOM      3  C   UNL     1       4.703   2.402  -1.135  0.00  0.00    +0.031 A 
ATOM      4  C   UNL     1       5.178   1.181  -1.522  0.00  0.00    +0.042 A 
ATOM      5  C   UNL     1       4.381   0.048  -1.415  0.00  0.00    +0.022 A 
ATOM      6  C   UNL     1       3.096   0.136  -0.929  0.00  0.00    +0.028 A 
ATOM      7  C   UNL     1       2.590   1.371  -0.528  0.00  0.00    +0.049 A 
ATOM      8  N   UNL     1       1.376   1.759  -0.011  0.00  0.00    -0.348 N 
ATOM      9  H   UNL     1       0.629   1.165   0.164  0.00  0.00    +0.166 HD
ATOM     10  C   UNL     1       1.379   3.126   0.224  0.00  0.00    +0.147 A 
ATOM     11 CL   UNL     1       6.793   1.044  -2.145  0.00  0.00    -0.084 Cl
ENDROOT
BRANCH   1  14
ATOM     12  C   UNL     1       4.267   5.273   0.305  0.00  0.00    +0.203 C 
ATOM     13  O   UNL     1       5.079   4.388   0.471  0.00  0.00    -0.277 OA
ATOM     14  N   UNL     1       3.006   4.971  -0.062  0.00  0.00    -0.284 N 
ATOM     15  H   UNL     1       2.378   5.680  -0.270  0.00  0.00    +0.155 HD
BRANCH  12  16
ATOM     16  C   UNL     1       4.668   6.711   0.509  0.00  0.00    +0.016 C 
ATOM     17  C   UNL     1       4.635   7.445  -0.833  0.00  0.00    -0.004 C 
BRANCH  16  24
ATOM     18  C   UNL     1       9.446   5.916  -0.343  0.00  0.00    +0.005 C 
ATOM     19  C   UNL     1       8.406   6.304   0.710  0.00  0.00    -0.031 C 
ATOM     20  C   UNL     1       8.759   7.672   1.299  0.00  0.00    -0.001 C 
ATOM     21  C   UNL     1       7.681   8.079   2.307  0.00  0.00    -0.018 C 
ATOM     22  C   UNL     1       6.318   8.099   1.610  0.00  0.00    -0.078 C 
ATOM     23  C   UNL     1       7.023   6.375   0.059  0.00  0.00    -0.075 C 
ATOM     24  N   UNL     1       6.027   6.747   1.087  0.00  0.00    +0.387 N 
ATOM     25  H   UNL     1       6.079   6.073   1.860  0.00  0.00    -0.081 HD
ENDBRANCH  16  24
ENDBRANCH  12  16
ENDBRANCH   1  14
BRANCH  10  26
ATOM     26  C   UNL     1       0.296   3.874   0.754  0.00  0.00    +0.357 C 
ATOM     27  O   UNL     1       0.375   5.085   0.833  0.00  0.00    -0.243 OA
BRANCH  26  28
ATOM     28  O   UNL     1      -0.821   3.241   1.171  0.00  0.00    -0.463 OA
ATOM     29  C   UNL     1      -1.871   4.057   1.694  0.00  0.00    +0.280 C 
ENDBRANCH  26  28
ENDBRANCH  10  26
TORSDOF 5
