REMARK  Name = ZINC56247674
REMARK  10 active torsions:
REMARK  status: ('A' for Active; 'I' for Inactive)
REMARK    1  A    between atoms: C_1  and  C_2
REMARK    2  A    between atoms: C_2  and  C_3
REMARK    3  A    between atoms: C_2  and  C_4
REMARK    4  A    between atoms: C_2  and  C_5
REMARK    5  A    between atoms: N_7  and  C_8
REMARK    6  A    between atoms: C_8  and  C_9
REMARK    7  A    between atoms: C_9  and  C_10
REMARK    8  A    between atoms: C_10  and  C_11
REMARK    9  A    between atoms: C_16  and  N_19
REMARK   10  A    between atoms: N_22  and  C_23
REMARK                            x       y       z     vdW  Elec       q    Type
REMARK                         _______ _______ _______ _____ _____    ______ ____
ROOT
ATOM      1  C   UNL     1       2.289  -5.815  -3.940  0.00  0.00    +0.216 C 
ATOM      2  O   UNL     1       1.781  -6.433  -3.029  0.00  0.00    -0.276 OA
ATOM      3  N   UNL     1       2.873  -6.475  -4.960  0.00  0.00    -0.301 N 
ATOM      4  C   UNL     1       3.498  -5.740  -6.068  0.00  0.00    +0.109 C 
ATOM      5  C   UNL     1       2.909  -6.244  -7.389  0.00  0.00    +0.041 C 
ATOM      6  C   UNL     1       3.075  -7.763  -7.470  0.00  0.00    +0.077 C 
ATOM      7  C   UNL     1       2.313  -8.424  -6.319  0.00  0.00    +0.041 C 
ATOM      8  C   UNL     1       2.900  -7.944  -4.983  0.00  0.00    +0.109 C 
ENDROOT
BRANCH   6   9
ATOM      9  N   UNL     1       2.542  -8.245  -8.747  0.00  0.00    -0.296 N 
ATOM     10  C   UNL     1       2.998  -9.398  -9.276  0.00  0.00    +0.300 C 
ATOM     11  O   UNL     1       3.852 -10.038  -8.693  0.00  0.00    -0.253 OA
ATOM     12  N   UNL     1       2.508  -9.841 -10.450  0.00  0.00    -0.297 N 
ATOM     13  H   UNL     1       1.861  -7.735  -9.212  0.00  0.00    +0.151 HD
ATOM     14  H   UNL     1       1.827  -9.331 -10.915  0.00  0.00    +0.151 HD
BRANCH  12  15
ATOM     15  C   UNL     1       3.004 -11.095 -11.025  0.00  0.00    +0.074 C 
ATOM     16  C   UNL     1       4.277 -10.819 -11.827  0.00  0.00    +0.022 C 
ATOM     17  C   UNL     1       4.795 -12.128 -12.427  0.00  0.00    +0.002 C 
ATOM     18  C   UNL     1       3.729 -12.723 -13.350  0.00  0.00    +0.000 C 
ATOM     19  C   UNL     1       2.456 -12.998 -12.547  0.00  0.00    +0.002 C 
ATOM     20  C   UNL     1       1.938 -11.690 -11.947  0.00  0.00    +0.022 C 
ENDBRANCH  12  15
ENDBRANCH   6   9
BRANCH   1  21
ATOM     21  C   UNL     1       2.269  -4.308  -3.932  0.00  0.00    +0.097 C 
BRANCH  21  22
ATOM     22  C   UNL     1       1.553  -3.814  -2.673  0.00  0.00    +0.028 C 
BRANCH  22  23
ATOM     23  C   UNL     1       1.532  -2.285  -2.665  0.00  0.00    +0.104 C 
BRANCH  23  26
ATOM     24  C   UNL     1       0.707  -0.490  -1.238  0.00  0.00    +0.218 C 
ATOM     25  O   UNL     1       1.150   0.308  -2.036  0.00  0.00    -0.275 OA
ATOM     26  N   UNL     1       0.847  -1.812  -1.460  0.00  0.00    -0.315 N 
ATOM     27  H   UNL     1       0.493  -2.451  -0.821  0.00  0.00    +0.149 HD
BRANCH  24  29
ATOM     28  C   UNL     1      -0.019   1.526   0.010  0.00  0.00    +0.020 C 
ATOM     29  C   UNL     1       0.002  -0.004   0.002  0.00  0.00    +0.039 C 
ATOM     30  C   UNL     1       0.742  -0.511   1.242  0.00  0.00    +0.020 C 
ATOM     31  C   UNL     1      -1.433  -0.534   0.013  0.00  0.00    +0.020 C 
ENDBRANCH  24  29
ENDBRANCH  23  26
ENDBRANCH  22  23
ENDBRANCH  21  22
ENDBRANCH   1  21
TORSDOF 7
