REMARK  Name = ZINC43223260
REMARK  7 active torsions:
REMARK  status: ('A' for Active; 'I' for Inactive)
REMARK    1  A    between atoms: C_3  and  C_9
REMARK    2  A    between atoms: C_9  and  C_10
REMARK    3  A    between atoms: C_10  and  N_11
REMARK    4  A    between atoms: C_12  and  C_14
REMARK    5  A    between atoms: C_19  and  C_21
REMARK    6  A    between atoms: N_23  and  C_24
REMARK    7  A    between atoms: C_24  and  C_25
REMARK                            x       y       z     vdW  Elec       q    Type
REMARK                         _______ _______ _______ _____ _____    ______ ____
ROOT
ATOM      1  C   UNL     1       7.498   3.913   2.517  0.00  0.00    +0.068 C 
ATOM      2  C   UNL     1       7.246   5.378   2.100  0.00  0.00    -0.069 C 
ATOM      3  N   UNL     1       7.105   6.113   3.383  0.00  0.00    +0.380 N 
ATOM      4  C   UNL     1       8.133   5.506   4.267  0.00  0.00    -0.069 C 
ATOM      5  C   UNL     1       8.083   3.995   3.942  0.00  0.00    +0.068 C 
ATOM      6  H   UNL     1       7.292   7.096   3.248  0.00  0.00    -0.086 HD
ATOM      7  H   UNL     1       6.183   5.977   3.768  0.00  0.00    -0.086 HD
ENDROOT
BRANCH   1   9
ATOM      8  N   UNL     1       5.510   2.975   1.383  0.00  0.00    -0.315 N 
ATOM      9  C   UNL     1       6.204   3.141   2.527  0.00  0.00    +0.215 C 
ATOM     10  O   UNL     1       5.787   2.668   3.563  0.00  0.00    -0.276 OA
ATOM     11  H   UNL     1       5.843   3.353   0.554  0.00  0.00    +0.149 HD
BRANCH   8  12
ATOM     12  C   UNL     1       4.252   2.224   1.392  0.00  0.00    +0.109 C 
BRANCH  12  13
ATOM     13  C   UNL     1       3.671   2.185  -0.023  0.00  0.00    +0.055 C 
BRANCH  13  16
ATOM     14  C   UNL     1      -0.017   1.379   0.010  0.00  0.00    +0.020 A 
ATOM     15  C   UNL     1       1.171   2.087   0.002  0.00  0.00    +0.006 A 
ATOM     16  C   UNL     1       2.377   1.413  -0.013  0.00  0.00    -0.027 A 
ATOM     17  C   UNL     1       2.397   0.029  -0.021  0.00  0.00    +0.046 A 
ATOM     18  C   UNL     1       1.210  -0.679  -0.013  0.00  0.00    +0.040 A 
ATOM     19  C   UNL     1       0.002  -0.004   0.002  0.00  0.00    +0.042 A 
ATOM     20 CL   UNL     1      -1.489  -0.893   0.012  0.00  0.00    -0.083 Cl
ATOM     21 CL   UNL     1       3.913  -0.817  -0.041  0.00  0.00    -0.083 Cl
ENDBRANCH  13  16
ENDBRANCH  12  13
ENDBRANCH   8  12
ENDBRANCH   1   9
BRANCH   5  22
ATOM     22  C   UNL     1       9.470   3.405   3.974  0.00  0.00    +0.215 C 
ATOM     23  O   UNL     1       9.961   2.956   2.960  0.00  0.00    -0.276 OA
ATOM     24  N   UNL     1      10.164   3.377   5.129  0.00  0.00    -0.313 N 
ATOM     25  H   UNL     1       9.771   3.736   5.939  0.00  0.00    +0.149 HD
BRANCH  24  26
ATOM     26  C   UNL     1      11.512   2.804   5.159  0.00  0.00    +0.135 C 
BRANCH  26  27
ATOM     27  C   UNL     1      12.073   2.895   6.580  0.00  0.00    +0.135 C 
ATOM     28  C   UNL     1      13.537   2.404   6.597  0.00  0.00    +0.035 C 
ATOM     29  C   UNL     1      13.604   1.617   7.934  0.00  0.00    +0.031 C 
ATOM     30  C   UNL     1      12.174   1.027   8.001  0.00  0.00    +0.160 C 
ATOM     31  O   UNL     1      11.320   2.047   7.455  0.00  0.00    -0.375 OA
ENDBRANCH  26  27
ENDBRANCH  24  26
ENDBRANCH   5  22
TORSDOF 7
