REMARK  Name = ZINC61718298
REMARK  7 active torsions:
REMARK  status: ('A' for Active; 'I' for Inactive)
REMARK    1  A    between atoms: C_1  and  C_2
REMARK    2  A    between atoms: C_2  and  C_4
REMARK    3  A    between atoms: C_2  and  N_15
REMARK    4  A    between atoms: N_6  and  C_7
REMARK    5  A    between atoms: C_11  and  S_13
REMARK    6  A    between atoms: S_13  and  C_14
REMARK    7  A    between atoms: N_21  and  C_24
REMARK                            x       y       z     vdW  Elec       q    Type
REMARK                         _______ _______ _______ _____ _____    ______ ____
ROOT
ATOM      1  N   UNL     1       0.850  -0.779   1.107  0.00  0.00    -0.288 N 
ATOM      2  C   UNL     1       0.158  -0.898   2.258  0.00  0.00    +0.303 C 
ATOM      3  O   UNL     1      -1.044  -0.714   2.266  0.00  0.00    -0.253 OA
ATOM      4  N   UNL     1       0.798  -1.222   3.399  0.00  0.00    -0.283 N 
ATOM      5  C   UNL     1       2.231  -1.550   3.385  0.00  0.00    +0.128 C 
ATOM      6  C   UNL     1       2.953  -0.631   4.378  0.00  0.00    +0.124 C 
ATOM      7  N   UNL     1       2.231  -0.662   5.657  0.00  0.00    -0.327 N 
ATOM      8  C   UNL     1       0.799  -0.334   5.671  0.00  0.00    +0.124 C 
ATOM      9  C   UNL     1       0.077  -1.248   4.679  0.00  0.00    +0.128 C 
ATOM     10  H   UNL     1       1.794  -0.997   1.085  0.00  0.00    +0.151 HD
ENDROOT
BRANCH   7  11
ATOM     11  C   UNL     1       2.895  -0.997   6.840  0.00  0.00    +0.030 A 
ATOM     12  C   UNL     1       4.271  -1.186   6.836  0.00  0.00    +0.023 A 
ATOM     13  C   UNL     1       4.924  -1.517   8.007  0.00  0.00    +0.002 A 
ATOM     14  C   UNL     1       4.210  -1.661   9.182  0.00  0.00    +0.000 A 
ATOM     15  C   UNL     1       2.840  -1.474   9.189  0.00  0.00    +0.002 A 
ATOM     16  C   UNL     1       2.181  -1.137   8.023  0.00  0.00    +0.023 A 
ENDBRANCH   7  11
BRANCH   1  18
ATOM     17  C   UNL     1       0.155   1.212  -0.133  0.00  0.00    +0.038 C 
ATOM     18  C   UNL     1       0.175  -0.318  -0.109  0.00  0.00    +0.158 C 
BRANCH  18  19
ATOM     19  C   UNL     1       0.914  -0.830  -1.318  0.00  0.00    +0.237 C 
ATOM     20  O   UNL     1       1.907  -1.512  -1.178  0.00  0.00    -0.273 OA
ATOM     21  N   UNL     1       0.472  -0.529  -2.555  0.00  0.00    -0.284 N 
ATOM     22  H   UNL     1      -0.357  -0.038  -2.668  0.00  0.00    +0.155 HD
BRANCH  21  23
ATOM     23  C   UNL     1       1.209  -0.925  -3.677  0.00  0.00    +0.034 A 
ATOM     24  C   UNL     1       1.259  -0.108  -4.800  0.00  0.00    +0.023 A 
ATOM     25  C   UNL     1       1.986  -0.498  -5.908  0.00  0.00    +0.003 A 
ATOM     26  C   UNL     1       2.666  -1.701  -5.904  0.00  0.00    +0.015 A 
ATOM     27  C   UNL     1       2.620  -2.522  -4.784  0.00  0.00    +0.009 A 
ATOM     28  C   UNL     1       1.895  -2.130  -3.666  0.00  0.00    +0.038 A 
BRANCH  27  29
ATOM     29  S   UNL     1       3.487  -4.056  -4.780  0.00  0.00    -0.129 S 
ATOM     30  C   UNL     1       4.270  -4.123  -6.415  0.00  0.00    +0.090 C 
ENDBRANCH  27  29
ENDBRANCH  21  23
ENDBRANCH  18  19
ENDBRANCH   1  18
TORSDOF 5
