REMARK  Name = ZINC12489450
REMARK  12 active torsions:
REMARK  status: ('A' for Active; 'I' for Inactive)
REMARK    1  A    between atoms: C_1  and  C_2
REMARK    2  A    between atoms: C_5  and  C_8
REMARK    3  A    between atoms: C_9  and  C_10
REMARK    4  A    between atoms: N_12  and  C_13
REMARK    5  A    between atoms: C_13  and  N_15
REMARK    6  A    between atoms: N_15  and  N_16
REMARK    7  A    between atoms: C_17  and  C_19
REMARK    8  A    between atoms: C_19  and  O_20
REMARK    9  A    between atoms: O_20  and  C_21
REMARK   10  A    between atoms: C_24  and  C_28
REMARK   11  A    between atoms: C_28  and  C_29
REMARK   12  A    between atoms: C_28  and  C_30
REMARK                            x       y       z     vdW  Elec       q    Type
REMARK                         _______ _______ _______ _____ _____    ______ ____
ROOT
ATOM      1  N   UNL     1       5.213  -2.708  -0.062  0.00  0.00    -0.245 N 
ATOM      2  H   UNL     1       5.973  -2.106  -0.066  0.00  0.00    +0.172 HD
ENDROOT
BRANCH   1   3
ATOM      3  N   UNL     1       3.910  -2.192  -0.047  0.00  0.00    -0.232 N 
ATOM      4  C   UNL     1       3.714  -0.859  -0.038  0.00  0.00    +0.267 C 
ATOM      5  O   UNL     1       4.664  -0.105  -0.043  0.00  0.00    -0.271 OA
ATOM      6  H   UNL     1       3.150  -2.794  -0.043  0.00  0.00    +0.173 HD
BRANCH   4   7
ATOM      7  C   UNL     1       2.313  -0.304  -0.022  0.00  0.00    +0.326 C 
BRANCH   7   8
ATOM      8  O   UNL     1       2.366   1.124  -0.015  0.00  0.00    -0.482 OA
BRANCH   8   9
ATOM      9  C   UNL     1       1.179   1.786   0.000  0.00  0.00    +0.135 A 
ATOM     10  C   UNL     1      -0.013   1.076   0.008  0.00  0.00    +0.047 A 
ATOM     11  C   UNL     1      -1.218   1.751   0.017  0.00  0.00    +0.007 A 
ATOM     12  C   UNL     1      -1.238   3.133   0.030  0.00  0.00    -0.044 A 
ATOM     13  C   UNL     1      -0.052   3.844   0.022  0.00  0.00    +0.022 A 
ATOM     14  C   UNL     1       1.157   3.174   0.008  0.00  0.00    +0.060 A 
ATOM     15 BR   UNL     1       2.778   4.147  -0.002  0.00  0.00    -0.047 Br
BRANCH  12  16
ATOM     16  C   UNL     1      -2.554   3.866   0.046  0.00  0.00    +0.013 C 
ATOM     17  C   UNL     1      -3.363   3.491  -1.197  0.00  0.00    +0.012 C 
ATOM     18  C   UNL     1      -3.339   3.478   1.301  0.00  0.00    +0.012 C 
ENDBRANCH  12  16
ENDBRANCH   8   9
ENDBRANCH   7   8
ENDBRANCH   4   7
ENDBRANCH   1   3
BRANCH   1  19
ATOM     19  C   UNL     1       5.409  -4.041  -0.071  0.00  0.00    +0.153 C 
ATOM     20  S   UNL     1       7.001  -4.672  -0.090  0.00  0.00    -0.017 S 
BRANCH  19  23
ATOM     21  C   UNL     1       4.549  -6.212  -0.075  0.00  0.00    +0.242 C 
ATOM     22  O   UNL     1       5.681  -6.660  -0.088  0.00  0.00    -0.270 OA
ATOM     23  N   UNL     1       4.353  -4.878  -0.066  0.00  0.00    -0.263 N 
ATOM     24  H   UNL     1       3.451  -4.521  -0.055  0.00  0.00    +0.157 HD
BRANCH  21  26
ATOM     25  C   UNL     1       3.599  -8.454  -0.077  0.00  0.00    +0.013 C 
ATOM     26  C   UNL     1       3.403  -7.120  -0.069  0.00  0.00    +0.068 C 
BRANCH  25  31
ATOM     27  C   UNL     1      -0.906 -12.025  -0.053  0.00  0.00    +0.044 C 
ATOM     28  C   UNL     1       0.275 -11.089  -0.059  0.00  0.00    -0.050 A 
ATOM     29  C   UNL     1       1.560 -11.602  -0.074  0.00  0.00    +0.004 A 
ATOM     30  C   UNL     1       2.646 -10.753  -0.081  0.00  0.00    +0.008 A 
ATOM     31  C   UNL     1       2.446  -9.368  -0.071  0.00  0.00    -0.025 A 
ATOM     32  C   UNL     1       1.144  -8.857  -0.050  0.00  0.00    +0.008 A 
ATOM     33  C   UNL     1       0.069  -9.720  -0.050  0.00  0.00    +0.004 A 
ENDBRANCH  25  31
ENDBRANCH  21  26
ENDBRANCH  19  23
ENDBRANCH   1  19
TORSDOF 9
