REMARK  Name = ZINC20835308
REMARK  8 active torsions:
REMARK  status: ('A' for Active; 'I' for Inactive)
REMARK    1  A    between atoms: C_1  and  C_2
REMARK    2  A    between atoms: C_2  and  C_3
REMARK    3  A    between atoms: C_3  and  C_25
REMARK    4  A    between atoms: N_4  and  N_5
REMARK    5  A    between atoms: C_8  and  S_11
REMARK    6  A    between atoms: S_11  and  C_12
REMARK    7  A    between atoms: C_12  and  C_13
REMARK    8  A    between atoms: C_16  and  C_18
REMARK                            x       y       z     vdW  Elec       q    Type
REMARK                         _______ _______ _______ _____ _____    ______ ____
ROOT
ATOM      1  N   UNL     1      -0.017   1.397   0.010  0.00  0.00    -0.205 N 
ATOM      2  C   UNL     1      -1.228   2.074   0.019  0.00  0.00    +0.232 A 
ATOM      3  N   UNL     1      -1.389   3.432   0.027  0.00  0.00    -0.186 NA
ATOM      4  C   UNL     1      -2.729   3.698   0.034  0.00  0.00    +0.211 A 
ATOM      5  N   UNL     1      -3.369   2.553   0.031  0.00  0.00    -0.144 NA
ATOM      6  N   UNL     1      -2.418   1.525   0.016  0.00  0.00    -0.245 N 
ATOM      7  H   UNL     1       0.928   1.960   0.008  0.00  0.00    +0.177 HD
ATOM      8  H   UNL     1      -2.518   0.429   0.004  0.00  0.00    +0.192 HD
ENDROOT
BRANCH   1  10
ATOM      9  C   UNL     1       1.135  -0.638  -0.012  0.00  0.00    +0.066 C 
ATOM     10  N   UNL     1       0.002  -0.004   0.002  0.00  0.00    -0.184 NA
BRANCH   9  11
ATOM     11  C   UNL     1       1.155  -2.112  -0.020  0.00  0.00    -0.002 A 
ATOM     12  C   UNL     1       2.373  -2.797  -0.041  0.00  0.00    +0.010 A 
ATOM     13  C   UNL     1       2.384  -4.177  -0.044  0.00  0.00    +0.001 A 
ATOM     14  C   UNL     1       1.193  -4.881  -0.036  0.00  0.00    +0.000 A 
ATOM     15  C   UNL     1      -0.017  -4.209  -0.020  0.00  0.00    +0.001 A 
ATOM     16  C   UNL     1      -0.043  -2.830  -0.013  0.00  0.00    +0.010 A 
ENDBRANCH   9  11
BRANCH   9  18
ATOM     17  C   UNL     1       2.882   0.386   1.419  0.00  0.00    +0.010 C 
ATOM     18  C   UNL     1       2.430   0.133  -0.020  0.00  0.00    +0.054 C 
ENDBRANCH   9  18
ENDBRANCH   1  10
BRANCH   4  19
ATOM     19  S   UNL     1      -3.467   5.298   0.046  0.00  0.00    -0.075 S 
BRANCH  19  20
ATOM     20  C   UNL     1      -5.249   4.959   0.052  0.00  0.00    +0.175 C 
BRANCH  20  21
ATOM     21  C   UNL     1      -6.008   6.261   0.062  0.00  0.00    +0.228 A 
ATOM     22  N   UNL     1      -6.400   6.931  -0.985  0.00  0.00    -0.111 NA
ATOM     23  N   UNL     1      -7.020   7.994  -0.608  0.00  0.00    -0.107 NA
ATOM     24  C   UNL     1      -7.045   8.038   0.704  0.00  0.00    +0.248 A 
ATOM     25  O   UNL     1      -6.408   6.938   1.152  0.00  0.00    -0.419 OA
BRANCH  24  26
ATOM     26  C   UNL     1      -7.660   9.095   1.534  0.00  0.00    +0.039 A 
ATOM     27  C   UNL     1      -7.614   9.007   2.926  0.00  0.00    +0.016 A 
ATOM     28  C   UNL     1      -8.185   9.999   3.696  0.00  0.00    +0.039 A 
ATOM     29  C   UNL     1      -8.813  11.075   3.090  0.00  0.00    +0.123 A 
ATOM     30  C   UNL     1      -8.866  11.164   1.708  0.00  0.00    +0.039 A 
ATOM     31  C   UNL     1      -8.294  10.181   0.928  0.00  0.00    +0.016 A 
ATOM     32  F   UNL     1      -9.375  12.041   3.849  0.00  0.00    -0.205 F 
ENDBRANCH  24  26
ENDBRANCH  20  21
ENDBRANCH  19  20
ENDBRANCH   4  19
TORSDOF 7
