REMARK  Name = ZINC03903206
REMARK  5 active torsions:
REMARK  status: ('A' for Active; 'I' for Inactive)
REMARK    1  A    between atoms: C_1  and  C_2
REMARK    2  A    between atoms: C_9  and  C_12
REMARK    3  A    between atoms: C_12  and  C_24
REMARK    4  A    between atoms: C_13  and  C_14
REMARK    5  A    between atoms: C_16  and  N_21
REMARK                            x       y       z     vdW  Elec       q    Type
REMARK                         _______ _______ _______ _____ _____    ______ ____
ROOT
ATOM      1  C   UNL     1       0.253  -5.487   2.407  0.00  0.00    +0.095 C 
ATOM      2  C   UNL     1       0.092  -5.456   3.761  0.00  0.00    +0.033 C 
ENDROOT
BRANCH   1  11
ATOM      3  C   UNL     1      -0.281   1.438  -0.091  0.00  0.00    +0.044 C 
ATOM      4  C   UNL     1      -0.105  -0.059  -0.072  0.00  0.00    -0.048 A 
ATOM      5  C   UNL     1       0.113  -0.740  -1.261  0.00  0.00    +0.005 A 
ATOM      6  C   UNL     1       0.276  -2.110  -1.263  0.00  0.00    +0.028 A 
ATOM      7  C   UNL     1       0.221  -2.810  -0.066  0.00  0.00    +0.066 A 
ATOM      8  C   UNL     1       0.000  -2.120   1.139  0.00  0.00    +0.090 A 
ATOM      9  C   UNL     1      -0.157  -0.730   1.116  0.00  0.00    +0.033 A 
ATOM     10  N   UNL     1      -0.006  -3.041   2.133  0.00  0.00    -0.227 NA
ATOM     11  C   UNL     1       0.194  -4.236   1.628  0.00  0.00    +0.150 A 
ATOM     12  N   UNL     1       0.341  -4.146   0.269  0.00  0.00    -0.337 N 
ATOM     13  H   UNL     1       0.499  -4.881  -0.343  0.00  0.00    +0.167 HD
ENDBRANCH   1  11
BRANCH   2  14
ATOM     14  C   UNL     1       0.002  -6.709   4.518  0.00  0.00    +0.014 A 
ATOM     15  C   UNL     1      -0.596  -7.838   3.944  0.00  0.00    +0.043 A 
ATOM     16  C   UNL     1      -0.677  -9.011   4.661  0.00  0.00    +0.127 A 
ATOM     17  C   UNL     1      -0.169  -9.078   5.948  0.00  0.00    +0.035 A 
ATOM     18  C   UNL     1       0.423  -7.970   6.526  0.00  0.00    +0.041 A 
ATOM     19  C   UNL     1       0.518  -6.786   5.820  0.00  0.00    +0.131 A 
ATOM     20  F   UNL     1       1.102  -5.706   6.383  0.00  0.00    -0.205 F 
BRANCH  16  21
ATOM     21  N   UNL     1      -1.309 -10.204   4.055  0.00  0.00    +0.056 N 
ATOM     22  O   UNL     1      -1.753 -10.148   2.932  0.00  0.00    -0.126 OA
ATOM     23  O   UNL     1      -1.381 -11.235   4.683  0.00  0.00    -0.126 OA
ENDBRANCH  16  21
ENDBRANCH   2  14
BRANCH   1  24
ATOM     24  C   UNL     1       0.478  -6.735   1.741  0.00  0.00    +0.103 C 
ATOM     25  N   UNL     1       0.657  -7.724   1.213  0.00  0.00    -0.191 NA
ENDBRANCH   1  24
TORSDOF 4
