REMARK  Name = ZINC11440843
REMARK  14 active torsions:
REMARK  status: ('A' for Active; 'I' for Inactive)
REMARK    1  A    between atoms: C_1  and  C_2
REMARK    2  A    between atoms: C_3  and  C_33
REMARK    3  A    between atoms: C_4  and  C_32
REMARK    4  A    between atoms: C_7  and  C_8
REMARK    5  A    between atoms: C_8  and  C_10
REMARK    6  A    between atoms: C_10  and  C_12
REMARK    7  A    between atoms: C_10  and  O_13
REMARK    8  A    between atoms: O_13  and  C_14
REMARK    9  A    between atoms: C_14  and  C_16
REMARK   10  A    between atoms: C_16  and  C_17
REMARK   11  A    between atoms: C_17  and  N_18
REMARK   12  A    between atoms: N_21  and  C_22
REMARK   13  A    between atoms: C_33  and  O_35
REMARK   14  A    between atoms: O_35  and  C_36
REMARK                            x       y       z     vdW  Elec       q    Type
REMARK                         _______ _______ _______ _____ _____    ______ ____
ROOT
ATOM      1  C   UNL     1       2.274   0.831  -0.613  0.00  0.00    +0.309 C 
ATOM      2  O   UNL     1       1.955  -0.217  -1.123  0.00  0.00    -0.251 OA
ENDROOT
BRANCH   1   3
ATOM      3  O   UNL     1       1.349   1.588  -0.002  0.00  0.00    -0.453 OA
BRANCH   3   4
ATOM      4  C   UNL     1      -0.013   1.086   0.008  0.00  0.00    +0.245 C 
ATOM      5  C   UNL     1      -0.753   1.593  -1.232  0.00  0.00    +0.061 C 
BRANCH   4   6
ATOM      6  C   UNL     1      -0.718   1.572   1.248  0.00  0.00    +0.219 C 
ATOM      7  O   UNL     1      -0.292   2.536   1.850  0.00  0.00    -0.287 OA
BRANCH   6  14
ATOM      8  C   UNL     1      -2.343   2.381   3.771  0.00  0.00    +0.047 C 
ATOM      9  C   UNL     1      -2.616   1.241   2.824  0.00  0.00    -0.008 A 
ATOM     10  C   UNL     1      -3.677   0.314   2.907  0.00  0.00    +0.083 A 
ATOM     11  C   UNL     1      -3.544  -0.555   1.838  0.00  0.00    +0.028 A 
ATOM     12  N   UNL     1      -2.469  -0.195   1.122  0.00  0.00    -0.355 N 
ATOM     13  H   UNL     1      -2.156  -0.638   0.318  0.00  0.00    +0.166 HD
ATOM     14  C   UNL     1      -1.877   0.904   1.710  0.00  0.00    +0.090 A 
ATOM     15  C   UNL     1      -4.460  -1.711   1.526  0.00  0.00    +0.064 C 
BRANCH  10  16
ATOM     16  C   UNL     1      -4.728   0.278   3.938  0.00  0.00    +0.341 C 
ATOM     17  O   UNL     1      -5.761   0.896   3.774  0.00  0.00    -0.245 OA
BRANCH  16  18
ATOM     18  O   UNL     1      -4.544  -0.441   5.063  0.00  0.00    -0.464 OA
ATOM     19  C   UNL     1      -5.622  -0.431   6.035  0.00  0.00    +0.280 C 
ENDBRANCH  16  18
ENDBRANCH  10  16
ENDBRANCH   6  14
ENDBRANCH   4   6
ENDBRANCH   3   4
ENDBRANCH   1   3
BRANCH   1  20
ATOM     20  C   UNL     1       3.709   1.288  -0.664  0.00  0.00    +0.139 C 
BRANCH  20  21
ATOM     21  C   UNL     1       4.549   0.250  -1.411  0.00  0.00    +0.117 C 
BRANCH  21  22
ATOM     22  N   UNL     1       5.944   0.694  -1.460  0.00  0.00    -0.299 N 
ATOM     23  C   UNL     1       6.872  -0.067  -2.074  0.00  0.00    +0.300 C 
ATOM     24  O   UNL     1       6.552  -1.121  -2.586  0.00  0.00    -0.253 OA
ATOM     25  N   UNL     1       8.156   0.342  -2.119  0.00  0.00    -0.294 N 
ATOM     26  H   UNL     1       6.200   1.536  -1.052  0.00  0.00    +0.150 HD
ATOM     27  H   UNL     1       8.411   1.184  -1.710  0.00  0.00    +0.151 HD
BRANCH  25  28
ATOM     28  C   UNL     1       9.165  -0.485  -2.786  0.00  0.00    +0.037 C 
ATOM     29  C   UNL     1       9.236  -1.852  -2.103  0.00  0.00    +0.029 C 
ATOM     30  C   UNL     1      10.290  -2.715  -2.799  0.00  0.00    -0.008 C 
ATOM     31  C   UNL     1      11.654  -2.028  -2.708  0.00  0.00    +0.007 C 
ATOM     32  C   UNL     1      11.582  -0.661  -3.391  0.00  0.00    -0.008 C 
ATOM     33  C   UNL     1      10.528   0.203  -2.695  0.00  0.00    +0.029 C 
ATOM     34  C   UNL     1      11.201  -0.844  -4.862  0.00  0.00    +0.007 C 
ATOM     35  C   UNL     1       9.837  -1.532  -4.952  0.00  0.00    -0.008 C 
ATOM     36  C   UNL     1       9.908  -2.899  -4.270  0.00  0.00    +0.007 C 
ATOM     37  C   UNL     1       8.783  -0.668  -4.256  0.00  0.00    +0.029 C 
ENDBRANCH  25  28
ENDBRANCH  21  22
ENDBRANCH  20  21
ENDBRANCH   1  20
TORSDOF 10
