REMARK  Name = ZINC39495768
REMARK  11 active torsions:
REMARK  status: ('A' for Active; 'I' for Inactive)
REMARK    1  A    between atoms: C_4  and  O_7
REMARK    2  A    between atoms: O_7  and  S_8
REMARK    3  A    between atoms: S_8  and  C_11
REMARK    4  A    between atoms: C_12  and  C_32
REMARK    5  A    between atoms: C_15  and  C_24
REMARK    6  A    between atoms: C_16  and  C_17
REMARK    7  A    between atoms: C_22  and  O_23
REMARK    8  A    between atoms: C_24  and  C_26
REMARK    9  A    between atoms: C_24  and  N_29
REMARK   10  A    between atoms: C_26  and  C_27
REMARK   11  A    between atoms: C_37  and  O_38
REMARK                            x       y       z     vdW  Elec       q    Type
REMARK                         _______ _______ _______ _____ _____    ______ ____
ROOT
ATOM      1  C   UNL     1       3.297  -2.221   2.156  0.00  0.00    +0.144 A 
ATOM      2  C   UNL     1       1.945  -1.956   2.358  0.00  0.00    +0.015 A 
ATOM      3  C   UNL     1       1.032  -3.009   2.409  0.00  0.00    +0.011 A 
ATOM      4  C   UNL     1       1.466  -4.311   2.260  0.00  0.00    +0.007 A 
ATOM      5  C   UNL     1       2.806  -4.579   2.059  0.00  0.00    -0.017 A 
ATOM      6  C   UNL     1       3.728  -3.534   2.001  0.00  0.00    +0.019 A 
ENDROOT
BRANCH   6   7
ATOM      7  C   UNL     1       5.166  -3.824   1.779  0.00  0.00    +0.026 A 
ATOM      8  C   UNL     1       6.009  -4.051   2.865  0.00  0.00    +0.012 A 
ATOM      9  C   UNL     1       7.346  -4.320   2.653  0.00  0.00    +0.001 A 
ATOM     10  C   UNL     1       7.853  -4.364   1.367  0.00  0.00    +0.004 A 
ATOM     11  C   UNL     1       7.026  -4.139   0.283  0.00  0.00    +0.046 A 
ATOM     12  C   UNL     1       5.680  -3.874   0.480  0.00  0.00    +0.125 A 
BRANCH  12  13
ATOM     13  O   UNL     1       4.864  -3.659  -0.585  0.00  0.00    -0.506 OA
ATOM     14  H   UNL     1       4.808  -2.732  -0.855  0.00  0.00    +0.292 HD
ENDBRANCH  12  13
ENDBRANCH   6   7
BRANCH   2  15
ATOM     15  C   UNL     1       1.477  -0.558   2.519  0.00  0.00    +0.026 A 
ATOM     16  C   UNL     1       1.181  -0.061   3.786  0.00  0.00    +0.012 A 
ATOM     17  C   UNL     1       0.746   1.241   3.930  0.00  0.00    +0.001 A 
ATOM     18  C   UNL     1       0.604   2.055   2.821  0.00  0.00    +0.004 A 
ATOM     19  C   UNL     1       0.895   1.572   1.559  0.00  0.00    +0.046 A 
ATOM     20  C   UNL     1       1.338   0.269   1.400  0.00  0.00    +0.125 A 
BRANCH  20  21
ATOM     21  O   UNL     1       1.629  -0.206   0.161  0.00  0.00    -0.506 OA
ATOM     22  H   UNL     1       0.862  -0.542  -0.322  0.00  0.00    +0.292 HD
ENDBRANCH  20  21
ENDBRANCH   2  15
BRANCH   1  23
ATOM     23  S   UNL     1       4.456  -0.896   2.089  0.00  0.00    +0.152 S 
ATOM     24  O   UNL     1       3.835   0.151   1.356  0.00  0.00    -0.131 OA
ATOM     25  O   UNL     1       5.700  -1.464   1.701  0.00  0.00    -0.131 OA
BRANCH  23  26
ATOM     26  O   UNL     1       4.637  -0.384   3.511  0.00  0.00    -0.342 OA
BRANCH  26  30
ATOM     27  C   UNL     1       6.841  -2.893   5.933  0.00  0.00    +0.000 A 
ATOM     28  C   UNL     1       7.484  -1.987   5.109  0.00  0.00    +0.004 A 
ATOM     29  C   UNL     1       6.749  -1.146   4.298  0.00  0.00    +0.048 A 
ATOM     30  C   UNL     1       5.363  -1.211   4.308  0.00  0.00    +0.157 A 
ATOM     31  C   UNL     1       4.720  -2.121   5.135  0.00  0.00    +0.048 A 
ATOM     32  C   UNL     1       5.460  -2.959   5.945  0.00  0.00    +0.004 A 
ENDBRANCH  26  30
ENDBRANCH  23  26
ENDBRANCH   1  23
BRANCH   5  33
ATOM     33  C   UNL     1       3.272  -6.003   1.899  0.00  0.00    +0.110 C 
BRANCH  33  34
ATOM     34  N   UNL     1       2.166  -6.826   1.402  0.00  0.00    -0.311 N 
ATOM     35  C   UNL     1       2.423  -7.957   0.716  0.00  0.00    +0.326 C 
ATOM     36  O   UNL     1       3.570  -8.295   0.510  0.00  0.00    -0.280 OA
ATOM     37  H   UNL     1       1.249  -6.556   1.566  0.00  0.00    +0.149 HD
ENDBRANCH  33  34
BRANCH  33  38
ATOM     38  C   UNL     1       3.741  -6.543   3.251  0.00  0.00    +0.097 C 
BRANCH  38  39
ATOM     39  C   UNL     1       4.321  -7.922   3.069  0.00  0.00    +0.225 C 
ATOM     40  O   UNL     1       5.441  -8.162   3.452  0.00  0.00    -0.301 OA
ENDBRANCH  38  39
ENDBRANCH  33  38
ENDBRANCH   5  33
TORSDOF 11
