REMARK  Name = ZINC58358527
REMARK  8 active torsions:
REMARK  status: ('A' for Active; 'I' for Inactive)
REMARK    1  A    between atoms: C_1  and  C_2
REMARK    2  A    between atoms: C_2  and  C_3
REMARK    3  A    between atoms: C_2  and  C_4
REMARK    4  A    between atoms: C_2  and  N_5
REMARK    5  A    between atoms: C_6  and  S_10
REMARK    6  A    between atoms: S_10  and  C_11
REMARK    7  A    between atoms: C_11  and  C_12
REMARK    8  A    between atoms: N_14  and  C_15
REMARK                            x       y       z     vdW  Elec       q    Type
REMARK                         _______ _______ _______ _____ _____    ______ ____
ROOT
ATOM      1  C   UNL     1       0.646  -5.884  -1.077  0.00  0.00    +0.227 C 
ATOM      2  O   UNL     1       0.056  -5.894  -0.018  0.00  0.00    -0.275 OA
ATOM      3  N   UNL     1       0.986  -7.045  -1.671  0.00  0.00    -0.285 N 
ATOM      4  H   UNL     1       1.398  -7.039  -2.549  0.00  0.00    +0.155 HD
ENDROOT
BRANCH   3   5
ATOM      5  C   UNL     1       0.744  -8.262  -1.019  0.00  0.00    +0.037 A 
ATOM      6  C   UNL     1       1.637  -9.315  -1.163  0.00  0.00    +0.027 A 
ATOM      7  C   UNL     1       1.401 -10.516  -0.521  0.00  0.00    +0.051 A 
ATOM      8  C   UNL     1       0.275 -10.671   0.267  0.00  0.00    +0.167 A 
ATOM      9  C   UNL     1      -0.624  -9.614   0.414  0.00  0.00    +0.169 A 
ATOM     10  C   UNL     1      -0.385  -8.412  -0.225  0.00  0.00    +0.072 A 
ATOM     11  O   UNL     1      -1.639 -10.024   1.239  0.00  0.00    -0.447 OA
ATOM     12  C   UNL     1      -1.586 -11.456   1.165  0.00  0.00    +0.254 C 
ATOM     13  O   UNL     1      -0.188 -11.734   1.000  0.00  0.00    -0.448 OA
ATOM     14  C   UNL     1      -2.403 -11.983  -0.018  0.00  0.00    +0.093 C 
ATOM     15  C   UNL     1      -2.990 -13.323   0.499  0.00  0.00    +0.008 C 
ATOM     16  C   UNL     1      -3.303 -13.012   1.985  0.00  0.00    +0.008 C 
ATOM     17  C   UNL     1      -2.139 -12.102   2.436  0.00  0.00    +0.093 C 
ENDBRANCH   3   5
BRANCH   1  18
ATOM     18  C   UNL     1       0.999  -4.572  -1.730  0.00  0.00    +0.173 C 
BRANCH  18  19
ATOM     19  S   UNL     1       0.411  -3.204  -0.695  0.00  0.00    -0.075 S 
BRANCH  19  21
ATOM     20  N   UNL     1       0.677  -0.476  -1.210  0.00  0.00    -0.215 N 
ATOM     21  C   UNL     1       0.894  -1.760  -1.583  0.00  0.00    +0.210 A 
ATOM     22  N   UNL     1       1.535  -1.726  -2.731  0.00  0.00    -0.101 NA
ATOM     23  N   UNL     1       1.731  -0.512  -3.101  0.00  0.00    -0.022 NA
ATOM     24  N   UNL     1       1.236   0.305  -2.236  0.00  0.00    -0.043 NA
BRANCH  20  26
ATOM     25  C   UNL     1      -0.025   1.526   0.005  0.00  0.00    +0.036 C 
ATOM     26  C   UNL     1      -0.002  -0.004  -0.001  0.00  0.00    +0.060 C 
ATOM     27  C   UNL     1       0.748  -0.507   1.234  0.00  0.00    +0.036 C 
ATOM     28  C   UNL     1      -1.436  -0.537   0.021  0.00  0.00    +0.036 C 
ENDBRANCH  20  26
ENDBRANCH  19  21
ENDBRANCH  18  19
ENDBRANCH   1  18
TORSDOF 5
