REMARK  Name = ZINC03598647
REMARK  8 active torsions:
REMARK  status: ('A' for Active; 'I' for Inactive)
REMARK    1  A    between atoms: C_1  and  C_2
REMARK    2  A    between atoms: C_2  and  C_3
REMARK    3  A    between atoms: C_7  and  C_27
REMARK    4  A    between atoms: C_8  and  N_9
REMARK    5  A    between atoms: C_10  and  C_12
REMARK    6  A    between atoms: C_12  and  N_13
REMARK    7  A    between atoms: C_20  and  N_24
REMARK    8  A    between atoms: C_27  and  C_28
REMARK                            x       y       z     vdW  Elec       q    Type
REMARK                         _______ _______ _______ _____ _____    ______ ____
ROOT
ATOM      1  C   UNL     1      -0.864  -3.649   0.550  0.00  0.00    +0.213 C 
ENDROOT
BRANCH   1   2
ATOM      2  N   UNL     1      -1.010  -4.801   1.444  0.00  0.00    -0.225 N 
ATOM      3  C   UNL     1      -1.916  -5.782   1.280  0.00  0.00    +0.254 C 
ATOM      4  O   UNL     1      -2.731  -5.851   0.383  0.00  0.00    -0.270 OA
ATOM      5  C   UNL     1      -1.754  -6.760   2.376  0.00  0.00    +0.052 A 
ATOM      6  C   UNL     1      -2.388  -7.943   2.719  0.00  0.00    +0.014 A 
ATOM      7  C   UNL     1      -1.980  -8.641   3.845  0.00  0.00    +0.003 A 
ATOM      8  C   UNL     1      -0.945  -8.164   4.628  0.00  0.00    +0.033 A 
ATOM      9  C   UNL     1      -0.301  -6.982   4.297  0.00  0.00    +0.139 A 
ATOM     10  C   UNL     1      -0.698  -6.274   3.174  0.00  0.00    +0.080 A 
ATOM     11  C   UNL     1      -0.251  -5.019   2.533  0.00  0.00    +0.256 C 
ATOM     12  O   UNL     1       0.648  -4.304   2.926  0.00  0.00    -0.269 OA
BRANCH   9  13
ATOM     13  N   UNL     1       0.806  -6.478   5.140  0.00  0.00    +0.057 N 
ATOM     14  O   UNL     1       1.154  -7.102   6.127  0.00  0.00    -0.126 OA
ATOM     15  O   UNL     1       1.371  -5.439   4.847  0.00  0.00    -0.126 OA
ENDBRANCH   9  13
ENDBRANCH   1   2
BRANCH   1  17
ATOM     16  N   UNL     1      -1.775  -1.357   0.359  0.00  0.00    -0.284 N 
ATOM     17  C   UNL     1      -1.745  -2.525   1.031  0.00  0.00    +0.235 C 
ATOM     18  O   UNL     1      -2.428  -2.672   2.023  0.00  0.00    -0.274 OA
ATOM     19  H   UNL     1      -1.213  -1.233  -0.422  0.00  0.00    +0.155 HD
BRANCH  16  25
ATOM     20  C   UNL     1      -2.132   0.973   0.884  0.00  0.00    -0.026 A 
ATOM     21  C   UNL     1      -2.966   1.991   1.302  0.00  0.00    +0.005 A 
ATOM     22  C   UNL     1      -4.282   1.718   1.629  0.00  0.00    +0.001 A 
ATOM     23  C   UNL     1      -4.766   0.426   1.538  0.00  0.00    +0.005 A 
ATOM     24  C   UNL     1      -3.937  -0.596   1.121  0.00  0.00    -0.026 A 
ATOM     25  C   UNL     1      -2.616  -0.325   0.787  0.00  0.00    +0.040 A 
BRANCH  20  27
ATOM     26  C   UNL     1      -0.583   1.491  -0.982  0.00  0.00    +0.009 C 
ATOM     27  C   UNL     1      -0.698   1.271   0.528  0.00  0.00    +0.033 C 
ENDBRANCH  20  27
BRANCH  24  28
ATOM     28  C   UNL     1      -4.466  -2.004   1.022  0.00  0.00    +0.033 C 
ATOM     29  C   UNL     1      -5.170  -2.377   2.329  0.00  0.00    +0.009 C 
ENDBRANCH  24  28
ENDBRANCH  16  25
ENDBRANCH   1  17
TORSDOF 6
