REMARK  Name = ZINC39584602
REMARK  7 active torsions:
REMARK  status: ('A' for Active; 'I' for Inactive)
REMARK    1  A    between atoms: C_1  and  O_2
REMARK    2  A    between atoms: O_2  and  C_3
REMARK    3  A    between atoms: C_6  and  C_9
REMARK    4  A    between atoms: C_11  and  C_15
REMARK    5  A    between atoms: N_17  and  N_18
REMARK    6  A    between atoms: C_19  and  C_20
REMARK    7  A    between atoms: C_24  and  N_26
REMARK                            x       y       z     vdW  Elec       q    Type
REMARK                         _______ _______ _______ _____ _____    ______ ____
ROOT
ATOM      1  C   UNL     1       4.650  -4.691  -5.642  0.00  0.00    +0.263 C 
ATOM      2  O   UNL     1       5.685  -4.062  -5.566  0.00  0.00    -0.271 OA
ATOM      3  N   UNL     1       4.670  -6.035  -5.540  0.00  0.00    -0.205 N 
ATOM      4  H   UNL     1       3.843  -6.538  -5.601  0.00  0.00    +0.177 HD
ENDROOT
BRANCH   1   7
ATOM      5  C   UNL     1       2.496  -2.494  -4.366  0.00  0.00    +0.092 C 
ATOM      6  C   UNL     1       2.595  -3.827  -4.537  0.00  0.00    +0.041 C 
ATOM      7  C   UNL     1       3.343  -3.970  -5.850  0.00  0.00    +0.240 C 
ATOM      8  N   UNL     1       3.575  -2.575  -6.259  0.00  0.00    -0.170 NA
ATOM      9  N   UNL     1       3.080  -1.838  -5.403  0.00  0.00    -0.153 NA
BRANCH   5  13
ATOM     10  C   UNL     1       0.606  -0.607  -1.056  0.00  0.00    +0.120 A 
ATOM     11  C   UNL     1       1.173   0.164  -2.062  0.00  0.00    +0.046 A 
ATOM     12  C   UNL     1       1.786  -0.445  -3.136  0.00  0.00    +0.013 A 
ATOM     13  C   UNL     1       1.837  -1.836  -3.211  0.00  0.00    +0.002 A 
ATOM     14  C   UNL     1       1.267  -2.607  -2.199  0.00  0.00    +0.013 A 
ATOM     15  C   UNL     1       0.659  -1.993  -1.125  0.00  0.00    +0.046 A 
BRANCH  10  17
ATOM     16  C   UNL     1      -0.017   1.425   0.010  0.00  0.00    +0.277 C 
ATOM     17  O   UNL     1       0.002  -0.004   0.002  0.00  0.00    -0.495 OA
ENDBRANCH  10  17
ENDBRANCH   5  13
ENDBRANCH   1   7
BRANCH   3  18
ATOM     18  N   UNL     1       5.885  -6.705  -5.347  0.00  0.00    -0.188 NA
ATOM     19  C   UNL     1       5.904  -7.999  -5.249  0.00  0.00    +0.138 C 
BRANCH  19  20
ATOM     20  C   UNL     1       7.183  -8.704  -5.045  0.00  0.00    -0.003 A 
ATOM     21  C   UNL     1       8.375  -7.982  -4.951  0.00  0.00    +0.011 A 
ATOM     22  C   UNL     1       9.567  -8.648  -4.760  0.00  0.00    +0.023 A 
ATOM     23  C   UNL     1       9.585 -10.029  -4.661  0.00  0.00    +0.071 A 
ATOM     24  C   UNL     1       8.406 -10.751  -4.753  0.00  0.00    +0.145 A 
ATOM     25  C   UNL     1       7.206 -10.097  -4.939  0.00  0.00    +0.043 A 
ATOM     26 CL   UNL     1      11.090 -10.860  -4.421  0.00  0.00    -0.081 Cl
BRANCH  24  27
ATOM     27  N   UNL     1       8.434 -12.227  -4.647  0.00  0.00    +0.058 N 
ATOM     28  O   UNL     1       7.406 -12.858  -4.727  0.00  0.00    -0.126 OA
ATOM     29  O   UNL     1       9.485 -12.801  -4.480  0.00  0.00    -0.126 OA
ENDBRANCH  24  27
ENDBRANCH  19  20
ENDBRANCH   3  18
TORSDOF 6
