REMARK  Name = ZINC28627721
REMARK  11 active torsions:
REMARK  status: ('A' for Active; 'I' for Inactive)
REMARK    1  A    between atoms: C_1  and  C_2
REMARK    2  A    between atoms: C_7  and  N_8
REMARK    3  A    between atoms: C_9  and  C_11
REMARK    4  A    between atoms: C_12  and  C_37
REMARK    5  A    between atoms: C_14  and  S_25
REMARK    6  A    between atoms: C_15  and  C_23
REMARK    7  A    between atoms: C_16  and  C_18
REMARK    8  A    between atoms: S_25  and  C_26
REMARK    9  A    between atoms: C_26  and  C_27
REMARK   10  A    between atoms: N_29  and  C_30
REMARK   11  A    between atoms: C_30  and  C_31
REMARK                            x       y       z     vdW  Elec       q    Type
REMARK                         _______ _______ _______ _____ _____    ______ ____
ROOT
ATOM      1  C   UNL     1      -0.858   2.891   1.453  0.00  0.00    +0.047 C 
ATOM      2  C   UNL     1      -0.734   1.572   1.238  0.00  0.00    +0.015 C 
ATOM      3  N   UNL     1      -1.238   0.661   2.126  0.00  0.00    -0.312 N 
ATOM      4  C   UNL     1      -1.558   1.049   3.408  0.00  0.00    +0.080 C 
ATOM      5  C   UNL     1      -1.722   2.365   3.710  0.00  0.00    +0.072 C 
ATOM      6  C   UNL     1      -1.569   3.430   2.662  0.00  0.00    +0.134 C 
ATOM      7  C   UNL     1      -0.023   1.086   0.001  0.00  0.00    +0.061 C 
ATOM      8  H   UNL     1      -1.388  -0.384   1.817  0.00  0.00    +0.152 HD
ENDROOT
BRANCH   6   9
ATOM      9  C   UNL     1      -2.933   3.929   2.259  0.00  0.00    +0.118 A 
ATOM     10  C   UNL     1      -3.374   5.194   2.377  0.00  0.00    +0.045 A 
ATOM     11  C   UNL     1      -4.697   5.214   1.879  0.00  0.00    +0.041 A 
ATOM     12  C   UNL     1      -4.988   3.958   1.494  0.00  0.00    +0.195 A 
ATOM     13  O   UNL     1      -3.915   3.184   1.726  0.00  0.00    -0.467 OA
ENDBRANCH   6   9
BRANCH   1  15
ATOM     14  N   UNL     1      -0.424   5.126   0.715  0.00  0.00    -0.281 N 
ATOM     15  C   UNL     1      -0.309   3.798   0.515  0.00  0.00    +0.247 C 
ATOM     16  O   UNL     1       0.267   3.378  -0.472  0.00  0.00    -0.270 OA
ATOM     17  H   UNL     1      -1.008   5.506   1.566  0.00  0.00    +0.155 HD
BRANCH  14  24
ATOM     18  C   UNL     1       0.608   7.552   1.784  0.00  0.00    +0.045 C 
ATOM     19  C   UNL     1       0.717   7.217   0.319  0.00  0.00    -0.029 A 
ATOM     20  C   UNL     1       1.336   8.096  -0.548  0.00  0.00    +0.005 A 
ATOM     21  C   UNL     1       1.431   7.792  -1.893  0.00  0.00    +0.000 A 
ATOM     22  C   UNL     1       0.913   6.603  -2.375  0.00  0.00    +0.002 A 
ATOM     23  C   UNL     1       0.297   5.717  -1.513  0.00  0.00    +0.023 A 
ATOM     24  C   UNL     1       0.199   6.020  -0.161  0.00  0.00    +0.037 A 
ENDBRANCH  14  24
ENDBRANCH   1  15
BRANCH   5  25
ATOM     25  C   UNL     1      -2.046   2.743   5.053  0.00  0.00    +0.098 C 
ATOM     26  N   UNL     1      -2.303   3.042   6.118  0.00  0.00    -0.191 NA
ENDBRANCH   5  25
BRANCH   4  27
ATOM     27  S   UNL     1      -1.757  -0.168   4.666  0.00  0.00    -0.100 S 
BRANCH  27  28
ATOM     28  C   UNL     1      -1.430  -1.668   3.707  0.00  0.00    +0.171 C 
BRANCH  28  29
ATOM     29  C   UNL     1      -1.548  -2.873   4.604  0.00  0.00    +0.224 C 
ATOM     30  O   UNL     1      -1.825  -2.732   5.776  0.00  0.00    -0.275 OA
ATOM     31  N   UNL     1      -1.345  -4.108   4.103  0.00  0.00    -0.311 N 
ATOM     32  H   UNL     1      -1.094  -4.236   3.040  0.00  0.00    +0.149 HD
BRANCH  31  33
ATOM     33  C   UNL     1      -1.460  -5.280   4.975  0.00  0.00    +0.139 C 
BRANCH  33  34
ATOM     34  C   UNL     1      -1.188  -6.529   4.176  0.00  0.00    -0.030 A 
ATOM     35  C   UNL     1      -2.228  -7.188   3.549  0.00  0.00    +0.005 A 
ATOM     36  C   UNL     1      -1.978  -8.331   2.813  0.00  0.00    +0.000 A 
ATOM     37  C   UNL     1      -0.689  -8.820   2.711  0.00  0.00    +0.000 A 
ATOM     38  C   UNL     1       0.350  -8.163   3.342  0.00  0.00    +0.000 A 
ATOM     39  C   UNL     1       0.101  -7.018   4.075  0.00  0.00    +0.005 A 
ENDBRANCH  33  34
ENDBRANCH  31  33
ENDBRANCH  28  29
ENDBRANCH  27  28
ENDBRANCH   4  27
TORSDOF 9
