REMARK  Name = ZINC26183409
REMARK  12 active torsions:
REMARK  status: ('A' for Active; 'I' for Inactive)
REMARK    1  A    between atoms: C_3  and  N_23
REMARK    2  A    between atoms: C_6  and  C_7
REMARK    3  A    between atoms: C_7  and  C_8
REMARK    4  A    between atoms: C_8  and  N_9
REMARK    5  A    between atoms: N_9  and  C_10
REMARK    6  A    between atoms: C_10  and  C_11
REMARK    7  A    between atoms: C_11  and  C_13
REMARK    8  A    between atoms: C_11  and  O_22
REMARK    9  A    between atoms: C_13  and  O_14
REMARK   10  A    between atoms: O_14  and  C_15
REMARK   11  A    between atoms: N_23  and  S_24
REMARK   12  A    between atoms: S_24  and  C_27
REMARK                            x       y       z     vdW  Elec       q    Type
REMARK                         _______ _______ _______ _____ _____    ______ ____
ROOT
ATOM      1  C   UNL     1       5.197  -1.590  -5.264  0.00  0.00    +0.016 C 
ENDROOT
BRANCH   1   7
ATOM      2  C   UNL     1       3.467  -3.151  -4.352  0.00  0.00    +0.005 A 
ATOM      3  C   UNL     1       2.471  -3.466  -3.448  0.00  0.00    +0.025 A 
ATOM      4  C   UNL     1       2.118  -2.555  -2.461  0.00  0.00    +0.048 A 
ATOM      5  C   UNL     1       2.763  -1.327  -2.391  0.00  0.00    +0.025 A 
ATOM      6  C   UNL     1       3.761  -1.020  -3.295  0.00  0.00    +0.005 A 
ATOM      7  C   UNL     1       4.111  -1.930  -4.276  0.00  0.00    -0.049 A 
BRANCH   4   8
ATOM      8  N   UNL     1       1.111  -2.870  -1.545  0.00  0.00    -0.216 N 
ATOM      9  H   UNL     1       0.122  -2.397  -1.631  0.00  0.00    +0.174 HD
BRANCH   8  10
ATOM     10  S   UNL     1       1.408  -3.954  -0.329  0.00  0.00    +0.072 S 
ATOM     11  O   UNL     1       1.972  -5.106  -0.942  0.00  0.00    -0.150 OA
ATOM     12  O   UNL     1       0.228  -4.012   0.460  0.00  0.00    -0.150 OA
BRANCH  10  13
ATOM     13  C   UNL     1       2.665  -3.261   0.693  0.00  0.00    +0.109 A 
ATOM     14  C   UNL     1       2.327  -2.375   1.699  0.00  0.00    +0.030 A 
ATOM     15  C   UNL     1       3.312  -1.831   2.501  0.00  0.00    +0.017 A 
ATOM     16  C   UNL     1       4.637  -2.172   2.296  0.00  0.00    +0.018 A 
ATOM     17  C   UNL     1       4.975  -3.058   1.289  0.00  0.00    +0.017 A 
ATOM     18  C   UNL     1       3.989  -3.602   0.487  0.00  0.00    +0.030 A 
ATOM     19 BR   UNL     1       5.985  -1.428   3.393  0.00  0.00    -0.050 Br
ENDBRANCH  10  13
ENDBRANCH   8  10
ENDBRANCH   4   8
ENDBRANCH   1   7
BRANCH   1  20
ATOM     20  C   UNL     1       4.580  -0.900  -6.483  0.00  0.00    -0.078 C 
BRANCH  20  21
ATOM     21  N   UNL     1       5.638  -0.569  -7.446  0.00  0.00    +0.381 N 
ATOM     22  H   UNL     1       6.366   0.106  -6.973  0.00  0.00    -0.086 HD
ATOM     23  H   UNL     1       6.146  -1.491  -7.764  0.00  0.00    -0.086 HD
BRANCH  21  24
ATOM     24  C   UNL     1       5.081   0.096  -8.632  0.00  0.00    -0.048 C 
BRANCH  24  25
ATOM     25  C   UNL     1       6.211   0.425  -9.610  0.00  0.00    +0.135 C 
BRANCH  25  26
ATOM     26  O   UNL     1       7.153   1.292  -8.975  0.00  0.00    -0.390 OA
ATOM     27  H   UNL     1       8.039   1.639  -9.526  0.00  0.00    +0.210 HD
ENDBRANCH  25  26
BRANCH  25  28
ATOM     28  C   UNL     1       5.631   1.117 -10.845  0.00  0.00    +0.258 C 
BRANCH  28  29
ATOM     29  O   UNL     1       6.667   1.319 -11.808  0.00  0.00    -0.488 OA
BRANCH  29  30
ATOM     30  C   UNL     1       6.317   1.928 -12.973  0.00  0.00    +0.139 A 
ATOM     31  C   UNL     1       7.271   2.160 -13.960  0.00  0.00    +0.050 A 
ATOM     32  C   UNL     1       6.871   2.781 -15.130  0.00  0.00    +0.047 A 
ATOM     33  C   UNL     1       5.538   3.151 -15.279  0.00  0.00    +0.116 A 
ATOM     34  N   UNL     1       4.660   2.914 -14.318  0.00  0.00    -0.237 NA
ATOM     35  C   UNL     1       5.007   2.318 -13.193  0.00  0.00    +0.158 A 
ATOM     36  N   UNL     1       5.125   3.777 -16.452  0.00  0.00    -0.343 N 
ATOM     37  H   UNL     1       4.072   4.072 -16.576  0.00  0.00    +0.144 HD
ATOM     38  H   UNL     1       5.850   3.977 -17.255  0.00  0.00    +0.144 HD
ENDBRANCH  29  30
ENDBRANCH  28  29
ENDBRANCH  25  28
ENDBRANCH  24  25
ENDBRANCH  21  24
ENDBRANCH  20  21
ENDBRANCH   1  20
TORSDOF 12
