REMARK  Name = ZINC08054113
REMARK  7 active torsions:
REMARK  status: ('A' for Active; 'I' for Inactive)
REMARK    1  A    between atoms: C_1  and  C_2
REMARK    2  A    between atoms: C_2  and  C_4
REMARK    3  A    between atoms: C_2  and  N_11
REMARK    4  A    between atoms: N_11  and  C_12
REMARK    5  A    between atoms: C_15  and  S_21
REMARK    6  A    between atoms: C_17  and  N_18
REMARK    7  A    between atoms: S_21  and  N_24
REMARK                            x       y       z     vdW  Elec       q    Type
REMARK                         _______ _______ _______ _____ _____    ______ ____
ROOT
ATOM      1  C   UNL     1      -2.022  -0.569  -1.494  0.00  0.00    +0.058 A 
ATOM      2  C   UNL     1      -1.141  -0.393  -2.553  0.00  0.00    +0.027 A 
ATOM      3  C   UNL     1      -1.576  -0.579  -3.850  0.00  0.00    +0.030 A 
ATOM      4  C   UNL     1      -2.888  -0.940  -4.096  0.00  0.00    +0.107 A 
ATOM      5  C   UNL     1      -3.769  -1.116  -3.044  0.00  0.00    +0.063 A 
ATOM      6  C   UNL     1      -3.338  -0.937  -1.744  0.00  0.00    +0.149 A 
ENDROOT
BRANCH   6   7
ATOM      7  N   UNL     1      -4.280  -1.131  -0.619  0.00  0.00    +0.058 N 
ATOM      8  O   UNL     1      -3.896  -1.636   0.411  0.00  0.00    -0.126 OA
ATOM      9  O   UNL     1      -5.433  -0.786  -0.729  0.00  0.00    -0.126 OA
ENDBRANCH   6   7
BRANCH   4  10
ATOM     10  S   UNL     1      -3.439  -1.176  -5.752  0.00  0.00    +0.056 S 
ATOM     11  O   UNL     1      -4.846  -0.978  -5.744  0.00  0.00    -0.153 OA
ATOM     12  O   UNL     1      -2.568  -0.419  -6.582  0.00  0.00    -0.153 OA
BRANCH  10  13
ATOM     13  N   UNL     1      -3.188  -2.768  -6.130  0.00  0.00    -0.204 NA
ATOM     14  H   UNL     1      -3.771  -3.214  -6.764  0.00  0.00    +0.144 HD
ATOM     15  H   UNL     1      -2.458  -3.255  -5.717  0.00  0.00    +0.144 HD
ENDBRANCH  10  13
ENDBRANCH   4  10
BRANCH   1  16
ATOM     16  N   UNL     1      -1.585  -0.383  -0.180  0.00  0.00    -0.335 N 
ATOM     17  H   UNL     1      -2.196  -0.528   0.559  0.00  0.00    +0.147 HD
BRANCH  16  19
ATOM     18  C   UNL     1      -0.103   1.556  -0.022  0.00  0.00    +0.033 C 
ATOM     19  C   UNL     1      -0.205   0.033   0.080  0.00  0.00    +0.099 C 
BRANCH  19  20
ATOM     20  C   UNL     1       0.199  -0.406   1.464  0.00  0.00    -0.009 A 
ATOM     21  C   UNL     1      -0.757  -0.541   2.453  0.00  0.00    +0.007 A 
ATOM     22  C   UNL     1      -0.387  -0.944   3.723  0.00  0.00    +0.000 A 
ATOM     23  C   UNL     1       0.940  -1.211   4.004  0.00  0.00    +0.001 A 
ATOM     24  C   UNL     1       1.897  -1.076   3.016  0.00  0.00    +0.020 A 
ATOM     25  C   UNL     1       1.526  -0.678   1.744  0.00  0.00    +0.046 A 
ATOM     26 CL   UNL     1       2.727  -0.515   0.500  0.00  0.00    -0.083 Cl
ENDBRANCH  19  20
ENDBRANCH  16  19
ENDBRANCH   1  16
TORSDOF 6
