REMARK  Name = ZINC39752608
REMARK  9 active torsions:
REMARK  status: ('A' for Active; 'I' for Inactive)
REMARK    1  A    between atoms: C_1  and  C_2
REMARK    2  A    between atoms: C_2  and  N_3
REMARK    3  A    between atoms: C_4  and  C_22
REMARK    4  A    between atoms: C_7  and  S_8
REMARK    5  A    between atoms: S_8  and  C_9
REMARK    6  A    between atoms: C_9  and  C_11
REMARK    7  A    between atoms: C_9  and  C_12
REMARK    8  A    between atoms: N_14  and  C_15
REMARK    9  A    between atoms: C_18  and  C_21
REMARK                            x       y       z     vdW  Elec       q    Type
REMARK                         _______ _______ _______ _____ _____    ______ ____
ROOT
ATOM      1  N   UNL     1      -1.382  -0.520   0.022  0.00  0.00    -0.302 N 
ATOM      2  C   UNL     1      -2.115  -0.935   1.110  0.00  0.00    +0.165 A 
ATOM      3  N   UNL     1      -3.277  -1.345   0.658  0.00  0.00    -0.128 NA
ATOM      4  N   UNL     1      -3.321  -1.217  -0.620  0.00  0.00    -0.122 NA
ATOM      5  C   UNL     1      -2.192  -0.711  -1.062  0.00  0.00    +0.193 A 
ENDROOT
BRANCH   2   6
ATOM      6  C   UNL     1      -1.676  -0.922   2.521  0.00  0.00    +0.023 A 
ATOM      7  C   UNL     1      -2.315  -1.734   3.460  0.00  0.00    +0.015 A 
ATOM      8  C   UNL     1      -1.904  -1.720   4.776  0.00  0.00    +0.050 A 
ATOM      9  C   UNL     1      -0.856  -0.902   5.172  0.00  0.00    +0.166 A 
ATOM     10  C   UNL     1      -0.213  -0.089   4.239  0.00  0.00    +0.167 A 
ATOM     11  C   UNL     1      -0.618  -0.103   2.917  0.00  0.00    +0.061 A 
ATOM     12  O   UNL     1       0.772   0.609   4.875  0.00  0.00    -0.453 OA
ATOM     13  C   UNL     1       0.460   0.523   6.278  0.00  0.00    +0.466 C 
ATOM     14  O   UNL     1      -0.271  -0.712   6.391  0.00  0.00    -0.453 OA
ENDBRANCH   2   6
BRANCH   1  16
ATOM     15  C   UNL     1      -0.079   1.549   0.063  0.00  0.00    +0.027 C 
ATOM     16  C   UNL     1      -0.021   0.021   0.025  0.00  0.00    +0.122 C 
ENDBRANCH   1  16
BRANCH   5  17
ATOM     17  S   UNL     1      -1.794  -0.351  -2.741  0.00  0.00    -0.074 S 
BRANCH  17  18
ATOM     18  C   UNL     1      -3.283  -0.833  -3.658  0.00  0.00    +0.137 C 
ATOM     19  C   UNL     1      -3.488  -2.344  -3.539  0.00  0.00    +0.029 C 
BRANCH  18  20
ATOM     20  C   UNL     1      -3.121  -0.460  -5.109  0.00  0.00    +0.230 C 
ATOM     21  O   UNL     1      -2.012  -0.357  -5.589  0.00  0.00    -0.274 OA
ATOM     22  N   UNL     1      -4.209  -0.242  -5.874  0.00  0.00    -0.285 N 
ATOM     23  H   UNL     1      -5.092  -0.241  -5.472  0.00  0.00    +0.155 HD
BRANCH  22  24
ATOM     24  C   UNL     1      -4.065  -0.016  -7.247  0.00  0.00    +0.033 A 
ATOM     25  C   UNL     1      -5.021   0.720  -7.935  0.00  0.00    +0.023 A 
ATOM     26  C   UNL     1      -4.876   0.941  -9.291  0.00  0.00    +0.005 A 
ATOM     27  C   UNL     1      -3.781   0.431  -9.963  0.00  0.00    -0.050 A 
ATOM     28  C   UNL     1      -2.827  -0.303  -9.281  0.00  0.00    +0.005 A 
ATOM     29  C   UNL     1      -2.963  -0.522  -7.924  0.00  0.00    +0.023 A 
ATOM     30  C   UNL     1      -3.626   0.674 -11.442  0.00  0.00    +0.044 C 
ENDBRANCH  22  24
ENDBRANCH  18  20
ENDBRANCH  17  18
ENDBRANCH   5  17
TORSDOF 6
