REMARK  Name = ZINC24275388
REMARK  10 active torsions:
REMARK  status: ('A' for Active; 'I' for Inactive)
REMARK    1  A    between atoms: C_1  and  C_2
REMARK    2  A    between atoms: C_2  and  C_4
REMARK    3  A    between atoms: C_2  and  O_16
REMARK    4  A    between atoms: N_6  and  C_7
REMARK    5  A    between atoms: C_10  and  C_13
REMARK    6  A    between atoms: C_13  and  C_15
REMARK    7  A    between atoms: O_16  and  C_17
REMARK    8  A    between atoms: C_17  and  C_19
REMARK    9  A    between atoms: N_22  and  C_25
REMARK   10  A    between atoms: C_30  and  N_31
REMARK                            x       y       z     vdW  Elec       q    Type
REMARK                         _______ _______ _______ _____ _____    ______ ____
ROOT
ATOM      1  C   UNL     1      -1.603   3.444  -2.462  0.00  0.00    +0.311 C 
ATOM      2  O   UNL     1      -2.151   2.659  -3.199  0.00  0.00    -0.251 OA
ENDROOT
BRANCH   1   3
ATOM      3  C   UNL     1      -0.815   2.944  -1.280  0.00  0.00    +0.101 C 
ATOM      4  C   UNL     1      -0.866   1.414  -1.240  0.00  0.00    +0.033 C 
ATOM      5  C   UNL     1      -0.115   0.915  -0.004  0.00  0.00    +0.106 C 
ATOM      6  N   UNL     1      -0.733   1.475   1.205  0.00  0.00    -0.328 N 
ATOM      7  C   UNL     1      -0.653   2.941   1.212  0.00  0.00    +0.106 C 
ATOM      8  C   UNL     1      -1.420   3.501   0.012  0.00  0.00    +0.033 C 
BRANCH   6   9
ATOM      9  C   UNL     1      -0.156   0.937   2.357  0.00  0.00    +0.060 A 
ATOM     10  C   UNL     1       1.182   1.178   2.644  0.00  0.00    +0.025 A 
ATOM     11  C   UNL     1       1.748   0.649   3.787  0.00  0.00    +0.002 A 
ATOM     12  C   UNL     1       0.987  -0.129   4.641  0.00  0.00    +0.002 A 
ATOM     13  C   UNL     1      -0.343  -0.376   4.356  0.00  0.00    +0.034 A 
ATOM     14  C   UNL     1      -0.917   0.154   3.217  0.00  0.00    +0.147 A 
BRANCH  14  15
ATOM     15  N   UNL     1      -2.341  -0.111   2.912  0.00  0.00    +0.058 N 
ATOM     16  O   UNL     1      -3.032  -0.715   3.712  0.00  0.00    -0.126 OA
ATOM     17  O   UNL     1      -2.821   0.276   1.861  0.00  0.00    -0.126 OA
ENDBRANCH  14  15
ENDBRANCH   6   9
ENDBRANCH   1   3
BRANCH   1  18
ATOM     18  O   UNL     1      -1.698   4.763  -2.697  0.00  0.00    -0.452 OA
BRANCH  18  20
ATOM     19  C   UNL     1      -3.933   5.377  -3.443  0.00  0.00    +0.062 C 
ATOM     20  C   UNL     1      -2.473   5.172  -3.854  0.00  0.00    +0.259 C 
BRANCH  20  21
ATOM     21  C   UNL     1      -1.919   6.463  -4.399  0.00  0.00    +0.258 C 
ATOM     22  O   UNL     1      -0.964   6.987  -3.865  0.00  0.00    -0.271 OA
ATOM     23  N   UNL     1      -2.484   7.036  -5.480  0.00  0.00    -0.282 N 
ATOM     24  H   UNL     1      -3.396   6.604  -5.918  0.00  0.00    +0.155 HD
BRANCH  23  25
ATOM     25  C   UNL     1      -1.915   8.177  -6.042  0.00  0.00    +0.034 A 
ATOM     26  C   UNL     1      -1.940   8.357  -7.422  0.00  0.00    +0.024 A 
ATOM     27  C   UNL     1      -1.385   9.479  -7.979  0.00  0.00    +0.013 A 
ATOM     28  C   UNL     1      -0.782  10.441  -7.159  0.00  0.00    +0.017 A 
ATOM     29  C   UNL     1      -0.754  10.253  -5.771  0.00  0.00    +0.013 A 
ATOM     30  C   UNL     1      -1.317   9.130  -5.222  0.00  0.00    +0.024 A 
BRANCH  28  31
ATOM     31  C   UNL     1      -0.181  11.643  -7.751  0.00  0.00    +0.160 C 
ATOM     32  O   UNL     1       0.430  12.423  -7.052  0.00  0.00    -0.292 OA
ATOM     33  C   UNL     1      -0.325  11.907  -9.228  0.00  0.00    +0.091 C 
ENDBRANCH  28  31
ENDBRANCH  23  25
ENDBRANCH  20  21
ENDBRANCH  18  20
ENDBRANCH   1  18
TORSDOF 8
