REMARK  Name = ZINC28055458
REMARK  2 active torsions:
REMARK  status: ('A' for Active; 'I' for Inactive)
REMARK    1  A    between atoms: C_3  and  C_6
REMARK    2  A    between atoms: C_24  and  C_26
REMARK                            x       y       z     vdW  Elec       q    Type
REMARK                         _______ _______ _______ _____ _____    ______ ____
ROOT
ATOM      1  C   UNL     1       2.838   0.832   2.549  0.00  0.00    +0.241 C 
ATOM      2  C   UNL     1       3.279   1.405   1.220  0.00  0.00    +0.026 C 
ATOM      3  C   UNL     1       4.352   2.197   1.178  0.00  0.00    +0.050 C 
ATOM      4  C   UNL     1       5.042   2.518   2.450  0.00  0.00    +0.039 A 
ATOM      5  C   UNL     1       6.325   3.051   2.465  0.00  0.00    +0.033 A 
ATOM      6  C   UNL     1       6.931   3.336   3.675  0.00  0.00    +0.042 A 
ATOM      7  C   UNL     1       6.265   3.092   4.864  0.00  0.00    +0.023 A 
ATOM      8  C   UNL     1       4.987   2.562   4.857  0.00  0.00    +0.048 A 
ATOM      9  C   UNL     1       4.370   2.272   3.654  0.00  0.00    +0.131 A 
ATOM     10  O   UNL     1       3.119   1.748   3.607  0.00  0.00    -0.479 OA
ATOM     11 CL   UNL     1       8.534   4.002   3.703  0.00  0.00    -0.084 Cl
ATOM     12  N   UNL     1       4.835   2.738  -0.019  0.00  0.00    -0.282 N 
ATOM     13  C   UNL     1       4.333   2.217  -1.200  0.00  0.00    +0.240 A 
ATOM     14  N   UNL     1       4.734   2.341  -2.433  0.00  0.00    -0.092 NA
ATOM     15  N   UNL     1       3.968   1.667  -3.221  0.00  0.00    -0.021 NA
ATOM     16  N   UNL     1       3.035   1.076  -2.547  0.00  0.00    -0.042 NA
ATOM     17  N   UNL     1       3.236   1.415  -1.210  0.00  0.00    -0.201 N 
ATOM     18  C   UNL     1       2.490   1.046  -0.015  0.00  0.00    +0.174 C 
ATOM     19  H   UNL     1       5.584   3.543   0.004  0.00  0.00    +0.155 HD
ENDROOT
BRANCH  18  20
ATOM     20  C   UNL     1       1.175   1.783   0.000  0.00  0.00    -0.019 A 
ATOM     21  C   UNL     1      -0.013   1.076   0.008  0.00  0.00    +0.009 A 
ATOM     22  C   UNL     1      -1.219   1.750   0.017  0.00  0.00    +0.039 A 
ATOM     23  C   UNL     1      -1.237   3.135   0.029  0.00  0.00    +0.123 A 
ATOM     24  C   UNL     1      -0.047   3.842   0.022  0.00  0.00    +0.039 A 
ATOM     25  C   UNL     1       1.158   3.165   0.007  0.00  0.00    +0.009 A 
ATOM     26  F   UNL     1      -2.416   3.795   0.043  0.00  0.00    -0.205 F 
ENDBRANCH  18  20
BRANCH   1  29
ATOM     27  C   UNL     1       4.029  -2.774   2.847  0.00  0.00    +0.008 A 
ATOM     28  C   UNL     1       3.184  -1.729   2.524  0.00  0.00    +0.015 A 
ATOM     29  C   UNL     1       3.571  -0.460   2.801  0.00  0.00    +0.034 A 
ATOM     30  S   UNL     1       5.177  -0.716   3.536  0.00  0.00    -0.098 S 
ATOM     31  C   UNL     1       5.221  -2.498   3.432  0.00  0.00    +0.045 A 
ENDBRANCH   1  29
TORSDOF 2
