REMARK  Name = ZINC21248062
REMARK  7 active torsions:
REMARK  status: ('A' for Active; 'I' for Inactive)
REMARK    1  A    between atoms: C_1  and  C_2
REMARK    2  A    between atoms: C_3  and  C_7
REMARK    3  A    between atoms: C_10  and  S_13
REMARK    4  A    between atoms: N_11  and  N_12
REMARK    5  A    between atoms: S_13  and  C_14
REMARK    6  A    between atoms: C_14  and  C_16
REMARK    7  A    between atoms: C_14  and  C_17
REMARK                            x       y       z     vdW  Elec       q    Type
REMARK                         _______ _______ _______ _____ _____    ______ ____
ROOT
ATOM      1  S   UNL     1       3.571   3.453   4.355  0.00  0.00    -0.072 S 
ENDROOT
BRANCH   1   5
ATOM      2  C   UNL     1       4.757   2.302   7.895  0.00  0.00    +0.185 A 
ATOM      3  N   UNL     1       4.673   1.170   7.236  0.00  0.00    -0.127 NA
ATOM      4  N   UNL     1       4.281   1.391   6.032  0.00  0.00    -0.121 NA
ATOM      5  C   UNL     1       4.100   2.678   5.846  0.00  0.00    +0.209 A 
ATOM      6  N   UNL     1       4.393   3.303   7.026  0.00  0.00    -0.224 N 
BRANCH   2   9
ATOM      7  C   UNL     1       5.576   0.014   9.876  0.00  0.00    +0.087 C 
ATOM      8  C   UNL     1       5.523   1.489  10.180  0.00  0.00    +0.112 A 
ATOM      9  C   UNL     1       5.166   2.469   9.307  0.00  0.00    +0.061 A 
ATOM     10  C   UNL     1       5.263   3.727  10.059  0.00  0.00    +0.053 A 
ATOM     11  C   UNL     1       5.670   3.390  11.294  0.00  0.00    +0.196 A 
ATOM     12  O   UNL     1       5.825   2.058  11.356  0.00  0.00    -0.467 OA
ENDBRANCH   2   9
BRANCH   6  13
ATOM     13  N   UNL     1       4.335   4.643   7.287  0.00  0.00    -0.295 N 
ATOM     14  H   UNL     1       4.025   5.344   6.498  0.00  0.00    +0.163 HD
ATOM     15  H   UNL     1       4.598   5.020   8.286  0.00  0.00    +0.163 HD
ENDBRANCH   6  13
ENDBRANCH   1   5
BRANCH   1  16
ATOM     16  C   UNL     1       3.397   2.001   3.289  0.00  0.00    +0.137 C 
ATOM     17  C   UNL     1       4.769   1.359   3.073  0.00  0.00    +0.029 C 
BRANCH  16  18
ATOM     18  C   UNL     1       2.822   2.418   1.960  0.00  0.00    +0.233 C 
ATOM     19  O   UNL     1       2.988   3.550   1.557  0.00  0.00    -0.274 OA
ATOM     20  N   UNL     1       2.126   1.534   1.219  0.00  0.00    -0.270 N 
ATOM     21  C   UNL     1       2.033   0.126   1.628  0.00  0.00    +0.114 C 
ATOM     22  C   UNL     1       2.264  -0.740   0.383  0.00  0.00    +0.024 C 
ATOM     23  C   UNL     1       1.144  -0.469  -0.622  0.00  0.00    +0.038 C 
ATOM     24  C   UNL     1       0.997   1.011  -0.862  0.00  0.00    -0.026 A 
ATOM     25  C   UNL     1       1.477   1.942   0.045  0.00  0.00    +0.039 A 
ATOM     26  C   UNL     1       1.320   3.301  -0.204  0.00  0.00    +0.024 A 
ATOM     27  C   UNL     1       0.688   3.724  -1.356  0.00  0.00    +0.002 A 
ATOM     28  C   UNL     1       0.211   2.794  -2.262  0.00  0.00    +0.000 A 
ATOM     29  C   UNL     1       0.365   1.443  -2.015  0.00  0.00    +0.005 A 
ENDBRANCH  16  18
ENDBRANCH   1  16
TORSDOF 5
