REMARK  Name = ZINC13389409
REMARK  4 active torsions:
REMARK  status: ('A' for Active; 'I' for Inactive)
REMARK    1  A    between atoms: C_1  and  O_2
REMARK    2  A    between atoms: O_2  and  C_3
REMARK    3  A    between atoms: C_10  and  C_19
REMARK    4  A    between atoms: C_23  and  N_25
REMARK                            x       y       z     vdW  Elec       q    Type
REMARK                         _______ _______ _______ _____ _____    ______ ____
ROOT
ATOM      1  C   UNL     1      -3.937   2.915  -2.523  0.00  0.00    +0.141 A 
ATOM      2  C   UNL     1      -4.854   3.468  -1.651  0.00  0.00    +0.049 A 
ATOM      3  C   UNL     1      -4.702   3.305  -0.286  0.00  0.00    +0.024 A 
ATOM      4  C   UNL     1      -3.630   2.579   0.201  0.00  0.00    +0.047 A 
ATOM      5  C   UNL     1      -2.711   2.018  -0.664  0.00  0.00    +0.002 A 
ATOM      6  C   UNL     1      -2.843   2.185  -2.044  0.00  0.00    +0.075 A 
ATOM      7  N   UNL     1      -1.937   1.688  -2.983  0.00  0.00    -0.334 N 
ATOM      8  C   UNL     1      -0.830   0.841  -2.461  0.00  0.00    +0.105 C 
ATOM      9  C   UNL     1      -0.384   1.481  -1.162  0.00  0.00    +0.029 C 
ATOM     10  C   UNL     1      -1.563   1.225  -0.172  0.00  0.00    +0.050 C 
ATOM     11  C   UNL     1      -0.947   1.474   1.154  0.00  0.00    -0.023 C 
ATOM     12  C   UNL     1       0.352   1.200   1.076  0.00  0.00    -0.030 C 
ATOM     13  C   UNL     1       0.708   0.775  -0.351  0.00  0.00    +0.033 C 
ATOM     14 CL   UNL     1      -3.438   2.370   1.913  0.00  0.00    -0.083 Cl
ATOM     15  H   UNL     1      -1.585   2.428  -3.572  0.00  0.00    +0.147 HD
ENDROOT
BRANCH   8  16
ATOM     16  C   UNL     1      -1.309  -0.565  -2.203  0.00  0.00    -0.025 A 
ATOM     17  C   UNL     1      -2.653  -0.809  -1.988  0.00  0.00    +0.005 A 
ATOM     18  C   UNL     1      -3.091  -2.098  -1.752  0.00  0.00    +0.003 A 
ATOM     19  C   UNL     1      -2.187  -3.143  -1.731  0.00  0.00    +0.033 A 
ATOM     20  C   UNL     1      -0.844  -2.899  -1.947  0.00  0.00    +0.127 A 
ATOM     21  C   UNL     1      -0.405  -1.610  -2.188  0.00  0.00    +0.038 A 
BRANCH  20  22
ATOM     22  N   UNL     1       0.125  -4.018  -1.924  0.00  0.00    +0.056 N 
ATOM     23  O   UNL     1      -0.262  -5.154  -1.715  0.00  0.00    -0.126 OA
ATOM     24  O   UNL     1       1.309  -3.803  -2.114  0.00  0.00    -0.126 OA
ENDBRANCH  20  22
ENDBRANCH   8  16
BRANCH   1  26
ATOM     25  C   UNL     1      -5.234   3.838  -4.291  0.00  0.00    +0.277 C 
ATOM     26  O   UNL     1      -4.098   3.083  -3.864  0.00  0.00    -0.493 OA
ENDBRANCH   1  26
TORSDOF 3
