REMARK  Name = ZINC10749526
REMARK  9 active torsions:
REMARK  status: ('A' for Active; 'I' for Inactive)
REMARK    1  A    between atoms: C_1  and  N_2
REMARK    2  A    between atoms: N_2  and  C_3
REMARK    3  A    between atoms: C_3  and  C_4
REMARK    4  A    between atoms: N_6  and  C_7
REMARK    5  A    between atoms: C_14  and  C_16
REMARK    6  A    between atoms: C_16  and  O_17
REMARK    7  A    between atoms: O_17  and  C_18
REMARK    8  A    between atoms: C_18  and  C_20
REMARK    9  A    between atoms: C_25  and  N_26
REMARK                            x       y       z     vdW  Elec       q    Type
REMARK                         _______ _______ _______ _____ _____    ______ ____
ROOT
ATOM      1  C   UNL     1       0.413   1.405  -0.561  0.00  0.00    +0.132 C 
ATOM      2  N   UNL     1       0.435  -0.060  -0.585  0.00  0.00    -0.293 N 
ATOM      3  C   UNL     1       0.356  -0.716  -1.759  0.00  0.00    +0.253 C 
ATOM      4  O   UNL     1       0.374  -1.929  -1.779  0.00  0.00    -0.272 OA
ENDROOT
BRANCH   2   5
ATOM      5  C   UNL     1       0.543  -0.812   0.668  0.00  0.00    +0.203 C 
BRANCH   5   6
ATOM      6  C   UNL     1      -0.836  -1.092   1.206  0.00  0.00    +0.235 C 
ATOM      7  O   UNL     1      -1.813  -0.703   0.602  0.00  0.00    -0.274 OA
ATOM      8  N   UNL     1      -0.984  -1.776   2.358  0.00  0.00    -0.283 N 
ATOM      9  H   UNL     1      -0.207  -2.140   2.809  0.00  0.00    +0.155 HD
BRANCH   8  10
ATOM     10  C   UNL     1      -2.260  -1.961   2.903  0.00  0.00    +0.052 A 
ATOM     11  C   UNL     1      -3.357  -2.127   2.068  0.00  0.00    +0.025 A 
ATOM     12  C   UNL     1      -4.614  -2.310   2.609  0.00  0.00    +0.002 A 
ATOM     13  C   UNL     1      -4.783  -2.327   3.981  0.00  0.00    +0.002 A 
ATOM     14  C   UNL     1      -3.694  -2.162   4.817  0.00  0.00    +0.022 A 
ATOM     15  C   UNL     1      -2.432  -1.984   4.282  0.00  0.00    +0.062 A 
ATOM     16 CL   UNL     1      -1.063  -1.784   5.332  0.00  0.00    -0.082 Cl
ENDBRANCH   8  10
ENDBRANCH   5   6
ENDBRANCH   2   5
BRANCH   3  17
ATOM     17  C   UNL     1       0.245   0.057  -3.048  0.00  0.00    +0.328 C 
BRANCH  17  18
ATOM     18  O   UNL     1       0.176  -0.855  -4.146  0.00  0.00    -0.452 OA
BRANCH  18  19
ATOM     19  C   UNL     1       0.073  -0.321  -5.379  0.00  0.00    +0.342 C 
ATOM     20  O   UNL     1       0.043   0.885  -5.518  0.00  0.00    -0.245 OA
BRANCH  19  21
ATOM     21  C   UNL     1      -0.003  -1.203  -6.561  0.00  0.00    +0.089 A 
ATOM     22  C   UNL     1       0.990  -2.160  -6.787  0.00  0.00    +0.019 A 
ATOM     23  C   UNL     1       0.913  -2.980  -7.893  0.00  0.00    +0.021 A 
ATOM     24  C   UNL     1      -0.145  -2.856  -8.779  0.00  0.00    +0.043 A 
ATOM     25  C   UNL     1      -1.132  -1.910  -8.559  0.00  0.00    +0.053 A 
ATOM     26  C   UNL     1      -1.070  -1.088  -7.454  0.00  0.00    +0.141 A 
ATOM     27 CL   UNL     1      -0.234  -3.892 -10.169  0.00  0.00    -0.083 Cl
BRANCH  26  28
ATOM     28  N   UNL     1      -2.129  -0.081  -7.218  0.00  0.00    +0.057 N 
ATOM     29  O   UNL     1      -2.987   0.101  -8.050  0.00  0.00    -0.126 OA
ATOM     30  O   UNL     1      -2.136   0.560  -6.193  0.00  0.00    -0.126 OA
ENDBRANCH  26  28
ENDBRANCH  19  21
ENDBRANCH  18  19
ENDBRANCH  17  18
ENDBRANCH   3  17
TORSDOF 8
