REMARK  Name = ZINC39547397
REMARK  15 active torsions:
REMARK  status: ('A' for Active; 'I' for Inactive)
REMARK    1  A    between atoms: C_1  and  C_2
REMARK    2  A    between atoms: C_7  and  N_12
REMARK    3  A    between atoms: C_9  and  C_11
REMARK    4  A    between atoms: C_13  and  C_15
REMARK    5  A    between atoms: C_15  and  O_16
REMARK    6  A    between atoms: O_16  and  C_17
REMARK    7  A    between atoms: C_17  and  C_19
REMARK    8  A    between atoms: C_20  and  C_31
REMARK    9  A    between atoms: C_21  and  C_30
REMARK   10  A    between atoms: C_23  and  C_29
REMARK   11  A    between atoms: C_24  and  C_25
REMARK   12  A    between atoms: C_25  and  O_27
REMARK   13  A    between atoms: O_27  and  C_28
REMARK   14  A    between atoms: C_31  and  O_33
REMARK   15  A    between atoms: O_33  and  C_34
REMARK                            x       y       z     vdW  Elec       q    Type
REMARK                         _______ _______ _______ _____ _____    ______ ____
ROOT
ATOM      1  C   UNL     1      -3.764  -7.549   2.981  0.00  0.00    +0.174 C 
ATOM      2  C   UNL     1      -2.771  -8.483   2.351  0.00  0.00    +0.072 C 
ATOM      3  C   UNL     1      -3.152  -9.410   1.454  0.00  0.00    +0.016 C 
ATOM      4  N   UNL     1      -4.465  -9.536   1.091  0.00  0.00    -0.321 N 
ATOM      5  C   UNL     1      -5.451  -8.994   1.869  0.00  0.00    +0.016 C 
ATOM      6  C   UNL     1      -5.167  -8.050   2.783  0.00  0.00    +0.072 C 
ATOM      7  C   UNL     1      -6.874  -9.461   1.699  0.00  0.00    +0.061 C 
ATOM      8  C   UNL     1      -2.119 -10.320   0.840  0.00  0.00    +0.061 C 
ATOM      9  H   UNL     1      -4.697 -10.011   0.278  0.00  0.00    +0.152 HD
ENDROOT
BRANCH   1  10
ATOM     10  C   UNL     1      -3.631  -6.186   2.351  0.00  0.00    +0.320 C 
ATOM     11  O   UNL     1      -4.580  -5.680   1.801  0.00  0.00    -0.250 OA
BRANCH  10  12
ATOM     12  O   UNL     1      -2.459  -5.535   2.402  0.00  0.00    -0.455 OA
BRANCH  12  13
ATOM     13  C   UNL     1      -2.405  -4.247   1.785  0.00  0.00    +0.327 C 
BRANCH  13  15
ATOM     14  N   UNL     1      -0.733  -2.458   1.433  0.00  0.00    -0.309 N 
ATOM     15  C   UNL     1      -1.020  -3.673   1.941  0.00  0.00    +0.251 C 
ATOM     16  O   UNL     1      -0.164  -4.304   2.524  0.00  0.00    -0.272 OA
ATOM     17  H   UNL     1      -1.418  -1.953   0.968  0.00  0.00    +0.149 HD
BRANCH  14  23
ATOM     18  C   UNL     1      -0.106   1.578   0.098  0.00  0.00    +0.008 C 
ATOM     19  C   UNL     1      -0.036   0.051   0.166  0.00  0.00    -0.009 C 
ATOM     20  C   UNL     1       0.862  -0.468  -0.959  0.00  0.00    +0.003 C 
ATOM     21  C   UNL     1       0.932  -1.995  -0.891  0.00  0.00    +0.002 C 
ATOM     22  C   UNL     1       1.510  -2.419   0.461  0.00  0.00    +0.022 C 
ATOM     23  C   UNL     1       0.613  -1.899   1.585  0.00  0.00    +0.076 C 
ATOM     24  C   UNL     1       0.542  -0.373   1.517  0.00  0.00    +0.009 C 
ATOM     25  C   UNL     1      -0.355   0.147   2.642  0.00  0.00    +0.009 C 
ENDBRANCH  14  23
ENDBRANCH  13  15
ENDBRANCH  12  13
ENDBRANCH  10  12
ENDBRANCH   1  10
BRANCH   6  26
ATOM     26  C   UNL     1      -6.210  -7.518   3.576  0.00  0.00    +0.337 C 
ATOM     27  O   UNL     1      -7.350  -7.915   3.426  0.00  0.00    -0.245 OA
BRANCH  26  28
ATOM     28  O   UNL     1      -5.940  -6.571   4.498  0.00  0.00    -0.465 OA
ATOM     29  C   UNL     1      -7.042  -6.078   5.263  0.00  0.00    +0.280 C 
ENDBRANCH  26  28
ENDBRANCH   6  26
BRANCH   2  30
ATOM     30  C   UNL     1      -1.406  -8.387   2.708  0.00  0.00    +0.337 C 
ATOM     31  O   UNL     1      -1.012  -8.887   3.745  0.00  0.00    -0.245 OA
BRANCH  30  32
ATOM     32  O   UNL     1      -0.541  -7.739   1.900  0.00  0.00    -0.465 OA
ATOM     33  C   UNL     1       0.822  -7.680   2.324  0.00  0.00    +0.280 C 
ENDBRANCH  30  32
ENDBRANCH   2  30
TORSDOF 9
