REMARK  Name = ZINC07523307
REMARK  12 active torsions:
REMARK  status: ('A' for Active; 'I' for Inactive)
REMARK    1  A    between atoms: C_1  and  C_2
REMARK    2  A    between atoms: C_2  and  C_3
REMARK    3  A    between atoms: C_3  and  C_4
REMARK    4  A    between atoms: C_4  and  N_5
REMARK    5  A    between atoms: C_6  and  N_30
REMARK    6  A    between atoms: C_7  and  N_14
REMARK    7  A    between atoms: N_14  and  C_15
REMARK    8  A    between atoms: C_20  and  C_22
REMARK    9  A    between atoms: C_22  and  N_61
REMARK   10  A    between atoms: C_23  and  N_61
REMARK   11  A    between atoms: C_24  and  C_25
REMARK   12  A    between atoms: C_24  and  N_61
REMARK                            x       y       z     vdW  Elec       q    Type
REMARK                         _______ _______ _______ _____ _____    ______ ____
ROOT
ATOM      1  N   UNL     1       2.392   1.364   0.125  0.00  0.00    -0.263 N 
ATOM      2  C   UNL     1       3.579   1.926  -0.188  0.00  0.00    +0.204 C 
ATOM      3  O   UNL     1       3.652   3.123  -0.376  0.00  0.00    -0.277 OA
ENDROOT
BRANCH   1   6
ATOM      4  N   UNL     1      -0.406   3.450  -1.022  0.00  0.00    -0.280 N 
ATOM      5  C   UNL     1       0.741   2.693  -1.051  0.00  0.00    +0.127 A 
ATOM      6  C   UNL     1       1.218   2.147   0.123  0.00  0.00    +0.140 A 
ATOM      7  C   UNL     1       0.513   2.383   1.318  0.00  0.00    +0.277 A 
ATOM      8  O   UNL     1       0.912   1.912   2.370  0.00  0.00    -0.266 OA
ATOM      9  N   UNL     1      -0.609   3.129   1.291  0.00  0.00    -0.273 N 
ATOM     10  H   UNL     1      -1.115   3.291   2.138  0.00  0.00    +0.173 HD
ATOM     11  C   UNL     1      -1.056   3.657   0.138  0.00  0.00    +0.331 A 
ATOM     12  O   UNL     1      -2.069   4.330   0.143  0.00  0.00    -0.246 OA
BRANCH   5  13
ATOM     13  N   UNL     1       1.405   2.481  -2.236  0.00  0.00    -0.343 N 
ATOM     14  H   UNL     1       2.161   1.875  -2.267  0.00  0.00    +0.144 HD
ATOM     15  H   UNL     1       1.116   2.938  -3.042  0.00  0.00    +0.144 HD
ENDBRANCH   5  13
BRANCH   4  16
ATOM     16  C   UNL     1      -0.924   4.037  -2.260  0.00  0.00    +0.128 C 
BRANCH  16  17
ATOM     17  C   UNL     1      -1.893   3.055  -2.923  0.00  0.00    +0.021 C 
BRANCH  17  19
ATOM     18  C   UNL     1      -3.402   2.687  -4.880  0.00  0.00    +0.004 C 
ATOM     19  C   UNL     1      -2.433   3.668  -4.217  0.00  0.00    -0.002 C 
ENDBRANCH  17  19
ENDBRANCH  16  17
ENDBRANCH   4  16
ENDBRANCH   1   6
BRANCH   1  20
ATOM     20  C   UNL     1       2.324  -0.059   0.468  0.00  0.00    +0.082 C 
ATOM     21  C   UNL     1       3.180  -0.343   1.719  0.00  0.00    +0.023 C 
ATOM     22  C   UNL     1       3.808  -1.733   1.441  0.00  0.00    +0.002 C 
ATOM     23  C   UNL     1       4.112  -1.674  -0.077  0.00  0.00    +0.002 C 
ATOM     24  C   UNL     1       2.916  -0.905  -0.673  0.00  0.00    +0.023 C 
ENDBRANCH   1  20
BRANCH   2  25
ATOM     25  C   UNL     1       4.812   1.068  -0.303  0.00  0.00    +0.019 C 
BRANCH  25  27
ATOM     26  C   UNL     1       5.882   2.571  -1.871  0.00  0.00    -0.095 C 
ATOM     27  N   UNL     1       5.981   1.942  -0.537  0.00  0.00    +0.388 N 
ATOM     28  H   UNL     1       5.995   2.678   0.178  0.00  0.00    -0.081 HD
BRANCH  27  29
ATOM     29  C   UNL     1       7.228   1.155  -0.442  0.00  0.00    -0.003 C 
BRANCH  29  30
ATOM     30  C   UNL     1       8.402   2.099  -0.463  0.00  0.00    +0.089 A 
ATOM     31  C   UNL     1       8.966   2.678   0.612  0.00  0.00    +0.042 A 
ATOM     32  C   UNL     1      10.028   3.480   0.135  0.00  0.00    +0.041 A 
ATOM     33  C   UNL     1      10.050   3.343  -1.203  0.00  0.00    +0.195 A 
ATOM     34  O   UNL     1       9.066   2.501  -1.559  0.00  0.00    -0.470 OA
ENDBRANCH  29  30
ENDBRANCH  27  29
ENDBRANCH  25  27
ENDBRANCH   2  25
TORSDOF 10
