REMARK  Name = ZINC47555194
REMARK  12 active torsions:
REMARK  status: ('A' for Active; 'I' for Inactive)
REMARK    1  A    between atoms: C_1  and  C_2
REMARK    2  A    between atoms: C_4  and  N_8
REMARK    3  A    between atoms: C_9  and  C_11
REMARK    4  A    between atoms: C_11  and  C_12
REMARK    5  A    between atoms: C_12  and  N_13
REMARK    6  A    between atoms: N_13  and  S_14
REMARK    7  A    between atoms: S_14  and  C_17
REMARK    8  A    between atoms: C_18  and  C_27
REMARK    9  A    between atoms: C_19  and  C_26
REMARK   10  A    between atoms: C_20  and  C_25
REMARK   11  A    between atoms: C_21  and  C_24
REMARK   12  A    between atoms: C_22  and  C_23
REMARK                            x       y       z     vdW  Elec       q    Type
REMARK                         _______ _______ _______ _____ _____    ______ ____
ROOT
ATOM      1  N   UNL     1      -1.173  -5.659  -8.914  0.00  0.00    -0.189 NA
ATOM      2  H   UNL     1      -2.087  -5.485  -9.189  0.00  0.00    +0.148 HD
ENDROOT
BRANCH   1   3
ATOM      3  S   UNL     1      -0.478  -4.744  -7.721  0.00  0.00    +0.059 S 
ATOM      4  O   UNL     1      -1.450  -3.785  -7.327  0.00  0.00    -0.153 OA
ATOM      5  O   UNL     1       0.110  -5.654  -6.802  0.00  0.00    -0.153 OA
BRANCH   3   6
ATOM      6  C   UNL     1       0.846  -3.846  -8.458  0.00  0.00    +0.112 A 
ATOM      7  C   UNL     1       0.657  -2.534  -8.850  0.00  0.00    -0.021 A 
ATOM      8  C   UNL     1       1.696  -1.829  -9.428  0.00  0.00    -0.043 A 
ATOM      9  C   UNL     1       2.924  -2.436  -9.614  0.00  0.00    -0.044 A 
ATOM     10  C   UNL     1       3.113  -3.748  -9.222  0.00  0.00    -0.043 A 
ATOM     11  C   UNL     1       2.075  -4.452  -8.639  0.00  0.00    -0.021 A 
ATOM     12  C   UNL     1       2.283  -5.880  -8.207  0.00  0.00    +0.046 C 
ATOM     13  C   UNL     1       4.452  -4.410  -9.425  0.00  0.00    +0.044 C 
ATOM     14  C   UNL     1       4.057  -1.668 -10.246  0.00  0.00    +0.044 C 
ATOM     15  C   UNL     1       1.490  -0.399  -9.857  0.00  0.00    +0.044 C 
ATOM     16  C   UNL     1      -0.681  -1.872  -8.647  0.00  0.00    +0.046 C 
ENDBRANCH   3   6
ENDBRANCH   1   3
BRANCH   1  17
ATOM     17  C   UNL     1      -0.408  -6.732  -9.553  0.00  0.00    +0.115 C 
BRANCH  17  18
ATOM     18  C   UNL     1      -1.360  -7.647 -10.327  0.00  0.00    +0.113 C 
BRANCH  18  20
ATOM     19  N   UNL     1      -1.207  -9.682 -11.724  0.00  0.00    -0.271 N 
ATOM     20  C   UNL     1      -0.573  -8.751 -10.985  0.00  0.00    +0.220 C 
ATOM     21  O   UNL     1       0.631  -8.801 -10.848  0.00  0.00    -0.275 OA
ATOM     22  H   UNL     1      -2.170  -9.642 -11.833  0.00  0.00    +0.156 HD
BRANCH  19  26
ATOM     23  C   UNL     1       2.573 -12.583 -13.210  0.00  0.00    +0.067 C 
ATOM     24  C   UNL     1       1.190 -12.018 -13.012  0.00  0.00    +0.062 A 
ATOM     25  C   UNL     1       0.870 -10.881 -12.265  0.00  0.00    +0.068 A 
ATOM     26  C   UNL     1      -0.478 -10.704 -12.333  0.00  0.00    +0.120 A 
ATOM     27  N   UNL     1      -0.983 -11.698 -13.098  0.00  0.00    -0.264 N 
ATOM     28  H   UNL     1      -1.917 -11.828 -13.322  0.00  0.00    +0.190 HD
ATOM     29  N   UNL     1       0.084 -12.505 -13.514  0.00  0.00    -0.178 NA
ENDBRANCH  19  26
ENDBRANCH  18  20
ENDBRANCH  17  18
ENDBRANCH   1  17
TORSDOF 6
