REMARK  Name = ZINC60361496
REMARK  7 active torsions:
REMARK  status: ('A' for Active; 'I' for Inactive)
REMARK    1  A    between atoms: C_1  and  C_2
REMARK    2  A    between atoms: C_5  and  C_8
REMARK    3  A    between atoms: C_8  and  N_9
REMARK    4  A    between atoms: C_11  and  C_16
REMARK    5  A    between atoms: N_18  and  C_19
REMARK    6  A    between atoms: C_21  and  C_25
REMARK    7  A    between atoms: C_29  and  N_31
REMARK                            x       y       z     vdW  Elec       q    Type
REMARK                         _______ _______ _______ _____ _____    ______ ____
ROOT
ATOM      1  C   UNL     1       4.476  -6.076  -1.570  0.00  0.00    +0.223 C 
ATOM      2  O   UNL     1       3.921  -6.735  -2.424  0.00  0.00    -0.275 OA
ATOM      3  N   UNL     1       5.786  -6.267  -1.318  0.00  0.00    -0.270 N 
ATOM      4  H   UNL     1       6.230  -5.740  -0.635  0.00  0.00    +0.156 HD
ENDROOT
BRANCH   1   7
ATOM      5  N   UNL     1       1.447  -4.746  -0.032  0.00  0.00    -0.296 N 
ATOM      6  C   UNL     1       2.226  -5.000  -1.249  0.00  0.00    +0.121 C 
ATOM      7  C   UNL     1       3.701  -5.044  -0.792  0.00  0.00    +0.101 C 
ATOM      8  C   UNL     1       3.560  -5.458   0.691  0.00  0.00    +0.110 C 
ATOM      9  C   UNL     1       2.171  -4.995   1.073  0.00  0.00    +0.217 C 
ATOM     10  O   UNL     1       1.770  -4.869   2.210  0.00  0.00    -0.276 OA
BRANCH   5  11
ATOM     11  C   UNL     1       0.059  -4.275  -0.021  0.00  0.00    +0.142 C 
BRANCH  11  16
ATOM     12  C   UNL     1      -0.018   1.503   0.010  0.00  0.00    +0.044 C 
ATOM     13  C   UNL     1       0.002  -0.004   0.002  0.00  0.00    -0.050 A 
ATOM     14  C   UNL     1       0.006  -0.689  -1.199  0.00  0.00    +0.003 A 
ATOM     15  C   UNL     1       0.025  -2.071  -1.206  0.00  0.00    +0.005 A 
ATOM     16  C   UNL     1       0.040  -2.768  -0.013  0.00  0.00    -0.030 A 
ATOM     17  C   UNL     1       0.037  -2.084   1.188  0.00  0.00    +0.005 A 
ATOM     18  C   UNL     1       0.023  -0.702   1.195  0.00  0.00    +0.003 A 
ENDBRANCH  11  16
ENDBRANCH   5  11
ENDBRANCH   1   7
BRANCH   3  19
ATOM     19  C   UNL     1       6.503  -7.223  -2.037  0.00  0.00    +0.121 A 
ATOM     20  C   UNL     1       6.010  -8.023  -3.019  0.00  0.00    +0.073 A 
ATOM     21  C   UNL     1       7.062  -8.837  -3.479  0.00  0.00    +0.094 A 
ATOM     22  N   UNL     1       8.145  -8.533  -2.795  0.00  0.00    -0.172 NA
ATOM     23  N   UNL     1       7.821  -7.517  -1.887  0.00  0.00    -0.263 N 
ATOM     24  H   UNL     1       8.430  -7.099  -1.259  0.00  0.00    +0.190 HD
BRANCH  21  25
ATOM     25  C   UNL     1       6.967  -9.860  -4.550  0.00  0.00    +0.004 A 
ATOM     26  C   UNL     1       5.755 -10.080  -5.201  0.00  0.00    +0.010 A 
ATOM     27  C   UNL     1       5.673 -11.033  -6.196  0.00  0.00    +0.003 A 
ATOM     28  C   UNL     1       6.790 -11.770  -6.546  0.00  0.00    +0.033 A 
ATOM     29  C   UNL     1       7.995 -11.556  -5.902  0.00  0.00    +0.127 A 
ATOM     30  C   UNL     1       8.091 -10.601  -4.910  0.00  0.00    +0.042 A 
BRANCH  29  31
ATOM     31  N   UNL     1       9.186 -12.349  -6.282  0.00  0.00    +0.056 N 
ATOM     32  O   UNL     1       9.105 -13.182  -7.154  0.00  0.00    -0.126 OA
ATOM     33  O   UNL     1      10.240 -12.163  -5.720  0.00  0.00    -0.126 OA
ENDBRANCH  29  31
ENDBRANCH  21  25
ENDBRANCH   3  19
TORSDOF 6
