REMARK  Name = ZINC12470587
REMARK  12 active torsions:
REMARK  status: ('A' for Active; 'I' for Inactive)
REMARK    1  A    between atoms: C_1  and  C_2
REMARK    2  A    between atoms: C_2  and  C_3
REMARK    3  A    between atoms: C_2  and  C_4
REMARK    4  A    between atoms: C_2  and  N_5
REMARK    5  A    between atoms: C_6  and  C_8
REMARK    6  A    between atoms: C_8  and  C_10
REMARK    7  A    between atoms: C_8  and  N_17
REMARK    8  A    between atoms: C_13  and  O_16
REMARK    9  A    between atoms: N_17  and  C_18
REMARK   10  A    between atoms: C_23  and  C_25
REMARK   11  A    between atoms: C_25  and  N_26
REMARK   12  A    between atoms: C_28  and  C_31
REMARK                            x       y       z     vdW  Elec       q    Type
REMARK                         _______ _______ _______ _____ _____    ______ ____
ROOT
ATOM      1  N   UNL     1      -3.571   1.682  -0.728  0.00  0.00    -0.281 N 
ATOM      2  C   UNL     1      -3.978   1.082  -1.864  0.00  0.00    +0.240 C 
ATOM      3  O   UNL     1      -3.683  -0.075  -2.078  0.00  0.00    -0.273 OA
ENDROOT
BRANCH   1   4
ATOM      4  C   UNL     1      -4.023   3.039  -0.413  0.00  0.00    +0.077 C 
ATOM      5  C   UNL     1      -5.562   3.075  -0.318  0.00  0.00    +0.022 C 
ATOM      6  C   UNL     1      -5.949   4.443  -0.934  0.00  0.00    +0.002 C 
ATOM      7  C   UNL     1      -4.944   4.589  -2.104  0.00  0.00    +0.002 C 
ATOM      8  C   UNL     1      -3.630   4.002  -1.548  0.00  0.00    +0.022 C 
ENDBRANCH   1   4
BRANCH   1   9
ATOM      9  C   UNL     1      -2.677   0.976   0.194  0.00  0.00    +0.192 C 
BRANCH   9  10
ATOM     10  C   UNL     1      -1.447   1.812   0.438  0.00  0.00    -0.018 A 
ATOM     11  C   UNL     1      -0.244   1.457  -0.145  0.00  0.00    +0.009 A 
ATOM     12  C   UNL     1       0.883   2.224   0.073  0.00  0.00    +0.046 A 
ATOM     13  C   UNL     1       0.810   3.349   0.882  0.00  0.00    +0.117 A 
ATOM     14  C   UNL     1      -0.396   3.699   1.471  0.00  0.00    +0.046 A 
ATOM     15  C   UNL     1      -1.521   2.929   1.250  0.00  0.00    +0.009 A 
BRANCH  13  16
ATOM     16  O   UNL     1       1.918   4.106   1.097  0.00  0.00    -0.507 OA
ATOM     17  H   UNL     1       2.038   4.819   0.455  0.00  0.00    +0.292 HD
ENDBRANCH  13  16
ENDBRANCH   9  10
BRANCH   9  19
ATOM     18  N   UNL     1      -2.756   0.098   2.505  0.00  0.00    -0.309 N 
ATOM     19  C   UNL     1      -3.389   0.736   1.500  0.00  0.00    +0.238 C 
ATOM     20  O   UNL     1      -4.531   1.117   1.647  0.00  0.00    -0.273 OA
ATOM     21  H   UNL     1      -1.843  -0.207   2.387  0.00  0.00    +0.149 HD
BRANCH  18  23
ATOM     22  C   UNL     1      -4.697  -0.984   3.526  0.00  0.00    +0.031 C 
ATOM     23  C   UNL     1      -3.449  -0.136   3.775  0.00  0.00    +0.026 C 
ATOM     24  C   UNL     1      -2.515  -0.873   4.737  0.00  0.00    +0.031 C 
ATOM     25  C   UNL     1      -3.857   1.206   4.387  0.00  0.00    +0.031 C 
ENDBRANCH  18  23
ENDBRANCH   9  19
ENDBRANCH   1   9
BRANCH   2  26
ATOM     26  C   UNL     1      -4.799   1.849  -2.868  0.00  0.00    +0.264 C 
BRANCH  26  27
ATOM     27  N   UNL     1      -5.280   0.933  -3.906  0.00  0.00    -0.154 N 
ATOM     28  N   UNL     1      -6.391   0.281  -3.869  0.00  0.00    -0.129 NA
ATOM     29  C   UNL     1      -6.476  -0.434  -4.974  0.00  0.00    +0.211 A 
ATOM     30  N   UNL     1      -5.363  -0.182  -5.681  0.00  0.00    -0.107 NA
ATOM     31  N   UNL     1      -4.661   0.660  -5.001  0.00  0.00    -0.045 NA
BRANCH  29  32
ATOM     32  C   UNL     1      -7.582  -1.337  -5.360  0.00  0.00    +0.060 A 
ATOM     33  C   UNL     1      -7.721  -2.099  -6.489  0.00  0.00    +0.019 A 
ATOM     34  C   UNL     1      -8.852  -2.872  -6.632  0.00  0.00    +0.008 A 
ATOM     35  C   UNL     1      -9.793  -2.856  -5.653  0.00  0.00    +0.046 A 
ATOM     36  S   UNL     1      -9.081  -1.724  -4.470  0.00  0.00    -0.093 S 
ENDBRANCH  29  32
ENDBRANCH  26  27
ENDBRANCH   2  26
TORSDOF 9
