REMARK  Name = ZINC16382228
REMARK  10 active torsions:
REMARK  status: ('A' for Active; 'I' for Inactive)
REMARK    1  A    between atoms: C_1  and  O_2
REMARK    2  A    between atoms: O_2  and  C_3
REMARK    3  A    between atoms: C_5  and  C_18
REMARK    4  A    between atoms: C_8  and  O_9
REMARK    5  A    between atoms: O_9  and  C_10
REMARK    6  A    between atoms: C_10  and  C_11
REMARK    7  A    between atoms: C_11  and  N_12
REMARK    8  A    between atoms: C_21  and  C_32
REMARK    9  A    between atoms: C_27  and  N_31
REMARK   10  A    between atoms: C_28  and  C_29
REMARK                            x       y       z     vdW  Elec       q    Type
REMARK                         _______ _______ _______ _____ _____    ______ ____
ROOT
ATOM      1  C   UNL     1       2.586   0.436  -4.064  0.00  0.00    +0.102 C 
ATOM      2  C   UNL     1       4.025   0.029  -4.248  0.00  0.00    +0.054 A 
ATOM      3  C   UNL     1       5.091   0.239  -3.439  0.00  0.00    +0.074 A 
ATOM      4  N   UNL     1       6.178  -0.324  -4.048  0.00  0.00    -0.273 N 
ATOM      5  H   UNL     1       7.085  -0.332  -3.704  0.00  0.00    +0.189 HD
ATOM      6  N   UNL     1       5.749  -0.888  -5.260  0.00  0.00    -0.135 NA
ATOM      7  C   UNL     1       4.469  -0.679  -5.382  0.00  0.00    +0.245 A 
ATOM      8  O   UNL     1       3.622  -1.038  -6.385  0.00  0.00    -0.421 OA
ATOM      9  C   UNL     1       2.402  -0.467  -6.402  0.00  0.00    +0.201 C 
ATOM     10  C   UNL     1       1.866   0.225  -5.373  0.00  0.00    +0.098 C 
ENDROOT
BRANCH   3  11
ATOM     11  C   UNL     1       5.081   0.945  -2.139  0.00  0.00    +0.000 A 
ATOM     12  C   UNL     1       4.392   2.150  -2.003  0.00  0.00    +0.013 A 
ATOM     13  C   UNL     1       4.385   2.805  -0.789  0.00  0.00    +0.039 A 
ATOM     14  C   UNL     1       5.062   2.268   0.294  0.00  0.00    +0.123 A 
ATOM     15  C   UNL     1       5.749   1.072   0.164  0.00  0.00    +0.039 A 
ATOM     16  C   UNL     1       5.757   0.406  -1.044  0.00  0.00    +0.013 A 
ATOM     17  F   UNL     1       5.052   2.913   1.481  0.00  0.00    -0.205 F 
ENDBRANCH   3  11
BRANCH   1  20
ATOM     18  C   UNL     1       0.834  -0.592  -0.879  0.00  0.00    +0.162 A 
ATOM     19  C   UNL     1       1.418   0.186  -1.865  0.00  0.00    +0.054 A 
ATOM     20  C   UNL     1       1.950  -0.412  -2.993  0.00  0.00    -0.031 A 
ATOM     21  C   UNL     1       1.901  -1.786  -3.139  0.00  0.00    +0.008 A 
ATOM     22  C   UNL     1       1.319  -2.568  -2.159  0.00  0.00    +0.050 A 
ATOM     23  C   UNL     1       0.789  -1.976  -1.024  0.00  0.00    +0.162 A 
BRANCH  18  25
ATOM     24  C   UNL     1       0.391   1.419   0.311  0.00  0.00    +0.277 C 
ATOM     25  O   UNL     1       0.310  -0.006   0.231  0.00  0.00    -0.491 OA
ENDBRANCH  18  25
BRANCH  23  26
ATOM     26  O   UNL     1       0.221  -2.744  -0.056  0.00  0.00    -0.487 OA
BRANCH  26  27
ATOM     27  C   UNL     1       0.211  -4.156  -0.272  0.00  0.00    +0.244 C 
BRANCH  27  28
ATOM     28  C   UNL     1      -0.463  -4.849   0.915  0.00  0.00    +0.125 C 
BRANCH  28  29
ATOM     29  N   UNL     1      -1.877  -4.455   0.972  0.00  0.00    -0.295 NA
ATOM     30  C   UNL     1      -2.440  -4.706   2.307  0.00  0.00    +0.112 C 
ATOM     31  C   UNL     1      -3.894  -4.228   2.340  0.00  0.00    +0.175 C 
ATOM     32  O   UNL     1      -4.631  -4.889   1.309  0.00  0.00    -0.377 OA
ATOM     33  C   UNL     1      -4.111  -4.667  -0.004  0.00  0.00    +0.175 C 
ATOM     34  C   UNL     1      -2.659  -5.149  -0.061  0.00  0.00    +0.112 C 
ENDBRANCH  28  29
ENDBRANCH  27  28
ENDBRANCH  26  27
ENDBRANCH  23  26
ENDBRANCH   1  20
BRANCH   9  35
ATOM     35  N   UNL     1       1.651  -0.597  -7.543  0.00  0.00    -0.328 N 
ATOM     36  H   UNL     1       2.003  -1.087  -8.302  0.00  0.00    +0.145 HD
ATOM     37  H   UNL     1       0.768  -0.198  -7.591  0.00  0.00    +0.145 HD
ENDBRANCH   9  35
BRANCH  10  38
ATOM     38  C   UNL     1       0.557   0.784  -5.531  0.00  0.00    +0.101 C 
ATOM     39  N   UNL     1      -0.481   1.227  -5.656  0.00  0.00    -0.191 NA
ENDBRANCH  10  38
TORSDOF 9
