REMARK  Name = ZINC10654430
REMARK  9 active torsions:
REMARK  status: ('A' for Active; 'I' for Inactive)
REMARK    1  A    between atoms: C_1  and  C_2
REMARK    2  A    between atoms: C_2  and  C_4
REMARK    3  A    between atoms: C_2  and  O_14
REMARK    4  A    between atoms: N_9  and  C_10
REMARK    5  A    between atoms: C_10  and  C_11
REMARK    6  A    between atoms: C_10  and  C_12
REMARK    7  A    between atoms: C_10  and  C_13
REMARK    8  A    between atoms: O_14  and  C_15
REMARK    9  A    between atoms: C_15  and  C_17
REMARK                            x       y       z     vdW  Elec       q    Type
REMARK                         _______ _______ _______ _____ _____    ______ ____
ROOT
ATOM      1  C   UNL     1      -0.016   1.338   0.009  0.00  0.00    +0.311 C 
ATOM      2  O   UNL     1      -1.071   1.928   0.018  0.00  0.00    -0.251 OA
ENDROOT
BRANCH   1   3
ATOM      3  C   UNL     1       1.279   2.109   0.001  0.00  0.00    +0.101 C 
ATOM      4  C   UNL     1       2.096   1.750   1.245  0.00  0.00    +0.034 C 
ATOM      5  C   UNL     1       3.381   2.581   1.263  0.00  0.00    +0.110 C 
ATOM      6  N   UNL     1       3.042   4.010   1.273  0.00  0.00    -0.285 N 
ATOM      7  C   UNL     1       2.297   4.388   0.065  0.00  0.00    +0.110 C 
ATOM      8  C   UNL     1       0.980   3.611   0.012  0.00  0.00    +0.034 C 
ATOM      9  C   UNL     1       4.170   4.784   1.420  0.00  0.00    +0.291 A 
ATOM     10  N   UNL     1       5.030   4.679   2.401  0.00  0.00    -0.195 NA
ATOM     11  C   UNL     1       6.015   5.601   2.219  0.00  0.00    +0.111 A 
ATOM     12  C   UNL     1       7.165   5.936   2.935  0.00  0.00    +0.031 A 
ATOM     13  C   UNL     1       7.984   6.945   2.478  0.00  0.00    +0.002 A 
ATOM     14  C   UNL     1       7.672   7.629   1.313  0.00  0.00    +0.004 A 
ATOM     15  C   UNL     1       6.537   7.308   0.596  0.00  0.00    +0.048 A 
ATOM     16  C   UNL     1       5.703   6.295   1.041  0.00  0.00    +0.157 A 
ATOM     17  O   UNL     1       4.554   5.755   0.573  0.00  0.00    -0.424 OA
ENDBRANCH   1   3
BRANCH   1  18
ATOM     18  O   UNL     1       0.002  -0.004   0.002  0.00  0.00    -0.452 OA
BRANCH  18  20
ATOM     19  C   UNL     1      -1.720  -0.926   1.456  0.00  0.00    +0.062 C 
ATOM     20  C   UNL     1      -1.282  -0.681   0.011  0.00  0.00    +0.259 C 
BRANCH  20  21
ATOM     21  C   UNL     1      -1.160  -2.000  -0.708  0.00  0.00    +0.261 C 
ATOM     22  O   UNL     1      -0.078  -2.378  -1.101  0.00  0.00    -0.271 OA
ATOM     23  N   UNL     1      -2.255  -2.759  -0.914  0.00  0.00    -0.237 N 
ATOM     24  C   UNL     1      -2.145  -3.939  -1.556  0.00  0.00    +0.306 C 
ATOM     25  O   UNL     1      -1.060  -4.318  -1.951  0.00  0.00    -0.252 OA
ATOM     26  N   UNL     1      -3.240  -4.698  -1.762  0.00  0.00    -0.294 N 
ATOM     27  H   UNL     1      -3.121  -2.457  -0.599  0.00  0.00    +0.159 HD
ATOM     28  H   UNL     1      -4.106  -4.396  -1.447  0.00  0.00    +0.151 HD
BRANCH  26  29
ATOM     29  C   UNL     1      -3.121  -5.980  -2.461  0.00  0.00    +0.028 C 
ATOM     30  C   UNL     1      -2.175  -6.898  -1.685  0.00  0.00    +0.031 C 
ATOM     31  C   UNL     1      -4.500  -6.636  -2.561  0.00  0.00    +0.031 C 
ATOM     32  C   UNL     1      -2.565  -5.745  -3.866  0.00  0.00    +0.031 C 
ENDBRANCH  26  29
ENDBRANCH  20  21
ENDBRANCH  18  20
ENDBRANCH   1  18
TORSDOF 5
