REMARK  Name = ZINC56878949
REMARK  6 active torsions:
REMARK  status: ('A' for Active; 'I' for Inactive)
REMARK    1  A    between atoms: C_1  and  C_2
REMARK    2  A    between atoms: C_2  and  C_4
REMARK    3  A    between atoms: C_2  and  N_10
REMARK    4  A    between atoms: C_4  and  N_5
REMARK    5  A    between atoms: N_17  and  C_20
REMARK    6  A    between atoms: C_20  and  C_21
REMARK                            x       y       z     vdW  Elec       q    Type
REMARK                         _______ _______ _______ _____ _____    ______ ____
ROOT
ATOM      1  N   UNL     1      -1.442  -0.021  -3.030  0.00  0.00    -0.295 N 
ATOM      2  C   UNL     1      -0.127  -0.292  -2.914  0.00  0.00    +0.302 C 
ATOM      3  O   UNL     1       0.479   0.052  -1.917  0.00  0.00    -0.253 OA
ATOM      4  N   UNL     1       0.518  -0.943  -3.903  0.00  0.00    -0.287 N 
ATOM      5  C   UNL     1       1.927  -1.332  -3.698  0.00  0.00    +0.107 C 
ATOM      6  C   UNL     1       2.195  -2.748  -4.241  0.00  0.00    +0.000 C 
ATOM      7  C   UNL     1       1.020  -3.642  -3.915  0.00  0.00    -0.077 C 
ATOM      8  N   UNL     1       0.090  -3.646  -5.042  0.00  0.00    +0.381 N 
ATOM      9  C   UNL     1      -0.880  -2.620  -5.017  0.00  0.00    -0.060 C 
ATOM     10  C   UNL     1      -0.200  -1.241  -5.125  0.00  0.00    +0.091 C 
ATOM     11  H   UNL     1      -1.909  -0.231  -3.854  0.00  0.00    +0.151 HD
ATOM     12  H   UNL     1       0.623  -3.560  -5.895  0.00  0.00    -0.082 HD
ENDROOT
BRANCH   1  14
ATOM     13  C   UNL     1      -2.626  -0.505  -0.946  0.00  0.00    +0.029 C 
ATOM     14  C   UNL     1      -2.166   0.588  -1.912  0.00  0.00    +0.091 C 
BRANCH  14  15
ATOM     15  C   UNL     1      -3.385   1.343  -2.445  0.00  0.00    +0.144 C 
BRANCH  15  16
ATOM     16  N   UNL     1      -2.940   2.465  -3.276  0.00  0.00    -0.337 N 
ATOM     17  C   UNL     1      -2.672   3.737  -2.848  0.00  0.00    +0.104 A 
ATOM     18  C   UNL     1      -2.295   4.441  -3.931  0.00  0.00    +0.101 A 
ATOM     19  N   UNL     1      -2.331   3.622  -4.992  0.00  0.00    -0.352 N 
ATOM     20  C   UNL     1      -2.712   2.435  -4.607  0.00  0.00    +0.173 A 
ATOM     21  H   UNL     1      -2.106   3.872  -5.902  0.00  0.00    +0.166 HD
ENDBRANCH  15  16
ENDBRANCH  14  15
ENDBRANCH   1  14
BRANCH   8  22
ATOM     22  C   UNL     1      -0.605  -4.940  -5.065  0.00  0.00    -0.075 C 
BRANCH  22  23
ATOM     23  C   UNL     1       0.395  -6.051  -5.395  0.00  0.00    -0.028 C 
ATOM     24  C   UNL     1       0.948  -5.836  -6.806  0.00  0.00    +0.002 C 
ATOM     25  C   UNL     1       1.947  -6.946  -7.136  0.00  0.00    +0.000 C 
ATOM     26  C   UNL     1       1.244  -8.303  -7.064  0.00  0.00    +0.000 C 
ATOM     27  C   UNL     1       0.692  -8.518  -5.654  0.00  0.00    +0.000 C 
ATOM     28  C   UNL     1      -0.308  -7.408  -5.324  0.00  0.00    +0.002 C 
ENDBRANCH  22  23
ENDBRANCH   8  22
TORSDOF 5
