REMARK  Name = ZINC35448082
REMARK  11 active torsions:
REMARK  status: ('A' for Active; 'I' for Inactive)
REMARK    1  A    between atoms: C_1  and  C_2
REMARK    2  A    between atoms: C_2  and  C_3
REMARK    3  A    between atoms: C_3  and  C_4
REMARK    4  A    between atoms: C_3  and  C_6
REMARK    5  A    between atoms: C_4  and  C_5
REMARK    6  A    between atoms: N_8  and  C_9
REMARK    7  A    between atoms: C_11  and  C_28
REMARK    8  A    between atoms: C_14  and  O_15
REMARK    9  A    between atoms: O_15  and  C_16
REMARK   10  A    between atoms: C_16  and  C_17
REMARK   11  A    between atoms: C_25  and  C_27
REMARK                            x       y       z     vdW  Elec       q    Type
REMARK                         _______ _______ _______ _____ _____    ______ ____
ROOT
ATOM      1  C   UNL     1       1.375  -4.157  -2.562  0.00  0.00    +0.076 A 
ATOM      2  C   UNL     1       0.533  -4.889  -1.738  0.00  0.00    +0.030 A 
ATOM      3  C   UNL     1       0.535  -6.270  -1.801  0.00  0.00    -0.048 A 
ATOM      4  C   UNL     1       1.376  -6.924  -2.682  0.00  0.00    +0.007 A 
ATOM      5  C   UNL     1       2.218  -6.201  -3.506  0.00  0.00    +0.048 A 
ATOM      6  C   UNL     1       2.218  -4.816  -3.454  0.00  0.00    +0.142 A 
ATOM      7  C   UNL     1      -0.380  -7.064  -0.906  0.00  0.00    +0.044 C 
ENDROOT
BRANCH   1  10
ATOM      8  C   UNL     1       1.265  -2.134  -1.310  0.00  0.00    +0.220 C 
ATOM      9  O   UNL     1       1.074  -2.782  -0.303  0.00  0.00    -0.275 OA
ATOM     10  N   UNL     1       1.374  -2.757  -2.501  0.00  0.00    -0.282 N 
ATOM     11  H   UNL     1       1.451  -2.236  -3.315  0.00  0.00    +0.155 HD
BRANCH   8  12
ATOM     12  C   UNL     1       1.381  -0.634  -1.231  0.00  0.00    +0.075 C 
BRANCH  12  14
ATOM     13  C   UNL     1       0.616   1.404  -0.005  0.00  0.00    +0.004 C 
ATOM     14  C   UNL     1       0.603  -0.126  -0.015  0.00  0.00    +0.009 C 
ENDBRANCH  12  14
BRANCH  12  15
ATOM     15  C   UNL     1       2.853  -0.242  -1.095  0.00  0.00    +0.009 C 
ATOM     16  C   UNL     1       3.440  -0.893   0.159  0.00  0.00    +0.004 C 
ENDBRANCH  12  15
ENDBRANCH   8  12
ENDBRANCH   1  10
BRANCH   6  17
ATOM     17  O   UNL     1       3.041  -4.103  -4.267  0.00  0.00    -0.484 OA
BRANCH  17  18
ATOM     18  C   UNL     1       3.878  -4.846  -5.156  0.00  0.00    +0.284 C 
BRANCH  18  19
ATOM     19  C   UNL     1       4.714  -3.894  -5.972  0.00  0.00    +0.086 A 
ATOM     20  C   UNL     1       6.086  -3.887  -5.830  0.00  0.00    +0.100 A 
ATOM     21  C   UNL     1       6.841  -2.991  -6.602  0.00  0.00    +0.287 A 
ATOM     22  O   UNL     1       8.057  -2.957  -6.503  0.00  0.00    -0.265 OA
ATOM     23  N   UNL     1       6.199  -2.169  -7.455  0.00  0.00    -0.119 N 
ATOM     24  C   UNL     1       4.843  -2.215  -7.559  0.00  0.00    +0.177 A 
ATOM     25  N   UNL     1       4.131  -3.069  -6.830  0.00  0.00    -0.228 NA
ATOM     26  C   UNL     1       4.471  -1.249  -8.520  0.00  0.00    +0.093 A 
ATOM     27  C   UNL     1       5.587  -0.648  -8.971  0.00  0.00    +0.134 A 
ATOM     28  O   UNL     1       6.654  -1.175  -8.354  0.00  0.00    -0.373 OA
ATOM     29  C   UNL     1       5.631   0.444 -10.008  0.00  0.00    +0.089 C 
ENDBRANCH  18  19
ENDBRANCH  17  18
ENDBRANCH   6  17
TORSDOF 7
