REMARK  Name = ZINC63833794
REMARK  9 active torsions:
REMARK  status: ('A' for Active; 'I' for Inactive)
REMARK    1  A    between atoms: C_1  and  C_2
REMARK    2  A    between atoms: C_7  and  C_12
REMARK    3  A    between atoms: C_12  and  C_14
REMARK    4  A    between atoms: C_12  and  N_17
REMARK    5  A    between atoms: C_14  and  C_15
REMARK    6  A    between atoms: C_14  and  C_16
REMARK    7  A    between atoms: C_18  and  C_20
REMARK    8  A    between atoms: C_20  and  C_21
REMARK    9  A    between atoms: C_21  and  N_22
REMARK                            x       y       z     vdW  Elec       q    Type
REMARK                         _______ _______ _______ _____ _____    ______ ____
ROOT
ATOM      1  C   UNL     1       1.332  -5.091   1.952  0.00  0.00    +0.118 C 
ENDROOT
BRANCH   1   8
ATOM      2  C   UNL     1      -0.018   1.503   0.010  0.00  0.00    +0.044 C 
ATOM      3  C   UNL     1       0.002  -0.004   0.002  0.00  0.00    -0.048 A 
ATOM      4  C   UNL     1       0.005  -0.672  -1.235  0.00  0.00    +0.005 A 
ATOM      5  C   UNL     1       0.022  -2.017  -1.335  0.00  0.00    +0.027 A 
ATOM      6  C   UNL     1       0.040  -2.834  -0.114  0.00  0.00    +0.060 A 
ATOM      7  N   UNL     1       0.057  -4.120   0.090  0.00  0.00    -0.362 N 
ATOM      8  C   UNL     1       0.067  -4.335   1.542  0.00  0.00    +0.195 C 
ATOM      9  N   UNL     1       0.053  -3.002   2.159  0.00  0.00    -0.362 N 
ATOM     10  C   UNL     1       0.037  -2.127   1.195  0.00  0.00    +0.060 A 
ATOM     11  C   UNL     1       0.022  -0.657   1.181  0.00  0.00    +0.030 A 
ATOM     12  H   UNL     1       0.062  -4.809  -0.593  0.00  0.00    +0.162 HD
ATOM     13  H   UNL     1       0.055  -2.810   3.109  0.00  0.00    +0.162 HD
ENDBRANCH   1   8
BRANCH   1  14
ATOM     14  N   UNL     1       1.289  -5.373   3.389  0.00  0.00    -0.308 N 
ATOM     15  C   UNL     1       2.434  -5.556   4.075  0.00  0.00    +0.215 C 
ATOM     16  O   UNL     1       3.501  -5.488   3.503  0.00  0.00    -0.276 OA
ATOM     17  H   UNL     1       0.435  -5.427   3.847  0.00  0.00    +0.149 HD
BRANCH  15  18
ATOM     18  C   UNL     1       2.389  -5.846   5.553  0.00  0.00    +0.113 C 
BRANCH  18  19
ATOM     19  C   UNL     1       3.814  -6.011   6.085  0.00  0.00    +0.124 C 
BRANCH  19  20
ATOM     20  N   UNL     1       3.771  -6.294   7.525  0.00  0.00    -0.187 NA
ATOM     21  C   UNL     1       5.115  -6.228   8.116  0.00  0.00    +0.115 C 
ATOM     22  C   UNL     1       5.018  -6.494   9.621  0.00  0.00    +0.020 C 
ATOM     23  C   UNL     1       4.376  -7.865   9.849  0.00  0.00    +0.031 C 
ATOM     24  C   UNL     1       3.000  -7.894   9.177  0.00  0.00    +0.185 C 
ATOM     25  O   UNL     1       3.150  -7.593   7.786  0.00  0.00    -0.297 OA
ENDBRANCH  19  20
ENDBRANCH  18  19
ENDBRANCH  15  18
ENDBRANCH   1  14
BRANCH   1  26
ATOM     26  C   UNL     1       1.414  -6.407   1.177  0.00  0.00    +0.007 C 
ATOM     27  C   UNL     1       2.679  -7.163   1.587  0.00  0.00    +0.009 C 
ATOM     28  C   UNL     1       0.185  -7.262   1.492  0.00  0.00    +0.009 C 
ENDBRANCH   1  26
TORSDOF 6
