REMARK  Name = ZINC33437386
REMARK  9 active torsions:
REMARK  status: ('A' for Active; 'I' for Inactive)
REMARK    1  A    between atoms: C_1  and  C_2
REMARK    2  A    between atoms: C_2  and  O_3
REMARK    3  A    between atoms: O_3  and  C_4
REMARK    4  A    between atoms: C_4  and  C_6
REMARK    5  A    between atoms: C_9  and  N_12
REMARK    6  A    between atoms: C_15  and  C_28
REMARK    7  A    between atoms: N_17  and  N_20
REMARK    8  A    between atoms: C_21  and  C_23
REMARK    9  A    between atoms: C_28  and  C_29
REMARK                            x       y       z     vdW  Elec       q    Type
REMARK                         _______ _______ _______ _____ _____    ______ ____
ROOT
ATOM      1  N   UNL     1       3.481  -3.958   5.783  0.00  0.00    -0.219 N 
ATOM      2  C   UNL     1       3.565  -5.275   6.056  0.00  0.00    +0.248 C 
ATOM      3  O   UNL     1       3.096  -6.188   5.411  0.00  0.00    -0.273 OA
ATOM      4  C   UNL     1       4.368  -5.378   7.338  0.00  0.00    +0.191 C 
ATOM      5  N   UNL     1       4.672  -3.975   7.669  0.00  0.00    -0.218 N 
ATOM      6  C   UNL     1       4.118  -3.223   6.702  0.00  0.00    +0.164 C 
ATOM      7  S   UNL     1       4.212  -1.514   6.654  0.00  0.00    -0.016 S 
ENDROOT
BRANCH   1  11
ATOM      8  C   UNL     1       1.501  -2.374   2.475  0.00  0.00    +0.059 A 
ATOM      9  C   UNL     1       2.893  -2.284   2.568  0.00  0.00    +0.017 A 
ATOM     10  C   UNL     1       3.543  -2.808   3.662  0.00  0.00    +0.025 A 
ATOM     11  C   UNL     1       2.818  -3.427   4.675  0.00  0.00    +0.043 A 
ATOM     12  C   UNL     1       1.433  -3.519   4.585  0.00  0.00    +0.025 A 
ATOM     13  C   UNL     1       0.774  -2.991   3.497  0.00  0.00    +0.017 A 
BRANCH   8  14
ATOM     14  C   UNL     1       0.800  -1.814   1.304  0.00  0.00    +0.339 C 
ATOM     15  O   UNL     1      -0.410  -1.889   1.228  0.00  0.00    -0.245 OA
BRANCH  14  16
ATOM     16  O   UNL     1       1.502  -1.219   0.320  0.00  0.00    -0.461 OA
BRANCH  16  18
ATOM     17  C   UNL     1       1.719  -0.066  -1.793  0.00  0.00    +0.048 C 
ATOM     18  C   UNL     1       0.759  -0.699  -0.784  0.00  0.00    +0.229 C 
ENDBRANCH  16  18
ENDBRANCH  14  16
ENDBRANCH   8  14
ENDBRANCH   1  11
BRANCH   5  19
ATOM     19  N   UNL     1       5.401  -3.515   8.774  0.00  0.00    -0.227 N 
ATOM     20  C   UNL     1       6.664  -3.074   8.612  0.00  0.00    +0.267 C 
ATOM     21  O   UNL     1       7.171  -3.075   7.506  0.00  0.00    -0.268 OA
ATOM     22  H   UNL     1       4.996  -3.514   9.655  0.00  0.00    +0.173 HD
BRANCH  20  23
ATOM     23  C   UNL     1       7.426  -2.592   9.768  0.00  0.00    +0.075 A 
ATOM     24  C   UNL     1       8.720  -2.097   9.816  0.00  0.00    +0.021 A 
ATOM     25  C   UNL     1       9.168  -1.718  11.059  0.00  0.00    +0.008 A 
ATOM     26  C   UNL     1       8.341  -1.850  12.126  0.00  0.00    +0.046 A 
ATOM     27  S   UNL     1       6.928  -2.484  11.476  0.00  0.00    -0.092 S 
ENDBRANCH  20  23
ENDBRANCH   5  19
BRANCH   4  28
ATOM     28  C   UNL     1       5.655  -6.171   7.104  0.00  0.00    +0.129 C 
BRANCH  28  29
ATOM     29  C   UNL     1       6.390  -6.332   8.410  0.00  0.00    +0.213 C 
ATOM     30  O   UNL     1       5.929  -5.859   9.428  0.00  0.00    -0.276 OA
ATOM     31  N   UNL     1       7.559  -7.002   8.448  0.00  0.00    -0.329 N 
ATOM     32  H   UNL     1       7.928  -7.380   7.634  0.00  0.00    +0.145 HD
ATOM     33  H   UNL     1       8.032  -7.105   9.288  0.00  0.00    +0.145 HD
ENDBRANCH  28  29
ENDBRANCH   4  28
TORSDOF 8
