REMARK  Name = ZINC67615862
REMARK  7 active torsions:
REMARK  status: ('A' for Active; 'I' for Inactive)
REMARK    1  A    between atoms: C_1  and  N_2
REMARK    2  A    between atoms: N_2  and  S_3
REMARK    3  A    between atoms: S_3  and  C_6
REMARK    4  A    between atoms: C_9  and  C_12
REMARK    5  A    between atoms: C_12  and  N_13
REMARK    6  A    between atoms: C_19  and  N_22
REMARK    7  A    between atoms: N_22  and  C_23
REMARK                            x       y       z     vdW  Elec       q    Type
REMARK                         _______ _______ _______ _____ _____    ______ ____
ROOT
ATOM      1  N   UNL     1      -3.490   1.209   5.964  0.00  0.00    -0.295 N 
ATOM      2  C   UNL     1      -4.328   1.602   6.944  0.00  0.00    +0.303 C 
ATOM      3  O   UNL     1      -4.153   1.219   8.084  0.00  0.00    -0.253 OA
ATOM      4  N   UNL     1      -5.360   2.421   6.659  0.00  0.00    -0.284 N 
ATOM      5  C   UNL     1      -5.691   2.953   5.329  0.00  0.00    +0.111 C 
ATOM      6  C   UNL     1      -6.961   3.815   5.483  0.00  0.00    +0.043 C 
ATOM      7  C   UNL     1      -7.600   3.264   6.785  0.00  0.00    +0.089 C 
ATOM      8  C   UNL     1      -6.348   2.927   7.629  0.00  0.00    +0.131 C 
ATOM      9  H   UNL     1      -3.630   1.514   5.055  0.00  0.00    +0.151 HD
ENDROOT
BRANCH   7  10
ATOM     10  N   UNL     1      -8.420   4.285   7.441  0.00  0.00    -0.339 N 
ATOM     11  H   UNL     1      -8.237   5.226   7.289  0.00  0.00    +0.146 HD
BRANCH  10  12
ATOM     12  C   UNL     1      -9.466   3.905   8.284  0.00  0.00    +0.027 A 
ATOM     13  C   UNL     1      -9.727   2.559   8.507  0.00  0.00    +0.023 A 
ATOM     14  C   UNL     1     -10.762   2.187   9.342  0.00  0.00    +0.002 A 
ATOM     15  C   UNL     1     -11.539   3.152   9.955  0.00  0.00    +0.000 A 
ATOM     16  C   UNL     1     -11.282   4.493   9.736  0.00  0.00    +0.002 A 
ATOM     17  C   UNL     1     -10.245   4.872   8.907  0.00  0.00    +0.023 A 
ENDBRANCH  10  12
ENDBRANCH   7  10
BRANCH   1  18
ATOM     18  C   UNL     1      -2.368   0.319   6.274  0.00  0.00    +0.141 C 
BRANCH  18  22
ATOM     19  C   UNL     1      -0.166  -0.494   2.705  0.00  0.00    +0.105 A 
ATOM     20  C   UNL     1       0.172   0.589   3.494  0.00  0.00    +0.029 A 
ATOM     21  C   UNL     1      -0.540   0.852   4.649  0.00  0.00    +0.007 A 
ATOM     22  C   UNL     1      -1.592   0.033   5.014  0.00  0.00    -0.030 A 
ATOM     23  C   UNL     1      -1.931  -1.050   4.224  0.00  0.00    +0.007 A 
ATOM     24  C   UNL     1      -1.221  -1.310   3.067  0.00  0.00    +0.029 A 
BRANCH  19  25
ATOM     25  S   UNL     1       0.742  -0.829   1.233  0.00  0.00    +0.058 S 
ATOM     26  O   UNL     1       0.570  -2.212   0.955  0.00  0.00    -0.153 OA
ATOM     27  O   UNL     1       2.024  -0.240   1.403  0.00  0.00    -0.153 OA
BRANCH  25  29
ATOM     28  C   UNL     1      -0.018   1.461   0.010  0.00  0.00    +0.127 C 
ATOM     29  N   UNL     1       0.002  -0.004   0.002  0.00  0.00    -0.193 NA
ATOM     30  H   UNL     1      -0.418  -0.491  -0.724  0.00  0.00    +0.148 HD
ENDBRANCH  25  29
ENDBRANCH  19  25
ENDBRANCH  18  22
ENDBRANCH   1  18
TORSDOF 6
