REMARK  Name = ZINC13561426
REMARK  10 active torsions:
REMARK  status: ('A' for Active; 'I' for Inactive)
REMARK    1  A    between atoms: C_1  and  C_2
REMARK    2  A    between atoms: C_2  and  C_3
REMARK    3  A    between atoms: C_2  and  N_53
REMARK    4  A    between atoms: C_10  and  C_22
REMARK    5  A    between atoms: C_12  and  C_20
REMARK    6  A    between atoms: C_14  and  C_15
REMARK    7  A    between atoms: C_14  and  C_17
REMARK    8  A    between atoms: C_25  and  C_28
REMARK    9  A    between atoms: C_28  and  O_30
REMARK   10  A    between atoms: O_30  and  C_31
REMARK                            x       y       z     vdW  Elec       q    Type
REMARK                         _______ _______ _______ _____ _____    ______ ____
ROOT
ATOM      1  C   UNL     1      -4.088   5.262   1.381  0.00  0.00    -0.051 C 
ATOM      2  C   UNL     1      -2.730   4.676   1.101  0.00  0.00    -0.043 C 
ATOM      3  C   UNL     1      -2.577   3.654   0.311  0.00  0.00    -0.034 C 
ATOM      4  C   UNL     1      -3.721   2.953  -0.373  0.00  0.00    +0.010 C 
ATOM      5  C   UNL     1      -5.060   3.576  -0.006  0.00  0.00    -0.070 C 
ATOM      6  C   UNL     1      -3.713   1.483   0.062  0.00  0.00    +0.047 C 
ATOM      7  C   UNL     1      -2.328   0.917   0.013  0.00  0.00    +0.146 C 
ATOM      8  C   UNL     1      -1.207   1.635   0.017  0.00  0.00    +0.065 C 
ATOM      9  C   UNL     1      -1.179   3.137   0.031  0.00  0.00    +0.202 C 
ATOM     10  N   UNL     1      -0.011   0.966   0.007  0.00  0.00    -0.304 NA
ATOM     11  H   UNL     1       0.002  -0.004   0.002  0.00  0.00    +0.186 HD
ATOM     12  N   UNL     1      -4.933   5.016   0.198  0.00  0.00    +0.384 N 
ATOM     13  H   UNL     1      -4.489   5.436  -0.627  0.00  0.00    -0.081 HD
ENDROOT
BRANCH   6  14
ATOM     14  C   UNL     1      -4.605   0.690  -0.858  0.00  0.00    -0.042 A 
ATOM     15  C   UNL     1      -4.317   0.625  -2.209  0.00  0.00    +0.005 A 
ATOM     16  C   UNL     1      -5.126  -0.103  -3.056  0.00  0.00    +0.015 A 
ATOM     17  C   UNL     1      -6.245  -0.767  -2.548  0.00  0.00    +0.059 A 
ATOM     18  C   UNL     1      -6.533  -0.693  -1.184  0.00  0.00    +0.015 A 
ATOM     19  C   UNL     1      -5.712   0.035  -0.348  0.00  0.00    +0.005 A 
BRANCH  17  20
ATOM     20  C   UNL     1      -7.120  -1.544  -3.450  0.00  0.00    +0.339 C 
ATOM     21  O   UNL     1      -8.092  -2.120  -3.006  0.00  0.00    -0.245 OA
BRANCH  20  22
ATOM     22  O   UNL     1      -6.839  -1.613  -4.766  0.00  0.00    -0.464 OA
ATOM     23  C   UNL     1      -7.742  -2.394  -5.592  0.00  0.00    +0.280 C 
ENDBRANCH  20  22
ENDBRANCH  17  20
ENDBRANCH   6  14
BRANCH  12  25
ATOM     24  C   UNL     1      -6.955   5.021   1.615  0.00  0.00    -0.014 C 
ATOM     25  C   UNL     1      -6.269   5.628   0.390  0.00  0.00    -0.074 C 
ATOM     26  C   UNL     1      -6.106   7.136   0.591  0.00  0.00    -0.014 C 
ENDBRANCH  12  25
BRANCH   9  27
ATOM     27  C   UNL     1      -0.262   3.603   1.084  0.00  0.00    +0.095 C 
ATOM     28  N   UNL     1       0.446   3.962   1.896  0.00  0.00    -0.194 NA
ENDBRANCH   9  27
BRANCH   9  29
ATOM     29  C   UNL     1      -0.723   3.634  -1.278  0.00  0.00    +0.095 C 
ATOM     30  N   UNL     1      -0.371   4.017  -2.287  0.00  0.00    -0.194 NA
ENDBRANCH   9  29
BRANCH   7  31
ATOM     31  C   UNL     1      -2.199  -0.507  -0.044  0.00  0.00    +0.072 C 
ATOM     32  N   UNL     1      -2.097  -1.638  -0.088  0.00  0.00    -0.196 NA
ENDBRANCH   7  31
TORSDOF 7
