REMARK  Name = ZINC13273345
REMARK  10 active torsions:
REMARK  status: ('A' for Active; 'I' for Inactive)
REMARK    1  A    between atoms: C_1  and  C_2
REMARK    2  A    between atoms: C_2  and  N_3
REMARK    3  A    between atoms: C_4  and  C_30
REMARK    4  A    between atoms: C_7  and  S_8
REMARK    5  A    between atoms: S_8  and  C_9
REMARK    6  A    between atoms: C_12  and  S_18
REMARK    7  A    between atoms: C_14  and  N_15
REMARK    8  A    between atoms: S_18  and  N_21
REMARK    9  A    between atoms: N_21  and  C_22
REMARK   10  A    between atoms: C_25  and  C_28
REMARK                            x       y       z     vdW  Elec       q    Type
REMARK                         _______ _______ _______ _____ _____    ______ ____
ROOT
ATOM      1  C   UNL     1       5.688   3.617   0.289  0.00  0.00    +0.046 A 
ATOM      2  C   UNL     1       4.706   4.416   0.861  0.00  0.00    +0.019 A 
ATOM      3  C   UNL     1       5.015   5.695   1.278  0.00  0.00    +0.030 A 
ATOM      4  C   UNL     1       6.298   6.185   1.118  0.00  0.00    +0.111 A 
ATOM      5  C   UNL     1       7.277   5.395   0.544  0.00  0.00    +0.062 A 
ATOM      6  C   UNL     1       6.976   4.112   0.130  0.00  0.00    +0.142 A 
ENDROOT
BRANCH   6   7
ATOM      7  N   UNL     1       8.025   3.267  -0.484  0.00  0.00    +0.058 N 
ATOM      8  O   UNL     1       9.154   3.702  -0.624  0.00  0.00    -0.126 OA
ATOM      9  O   UNL     1       7.759   2.135  -0.849  0.00  0.00    -0.126 OA
ENDBRANCH   6   7
BRANCH   4  10
ATOM     10  S   UNL     1       6.687   7.821   1.645  0.00  0.00    +0.072 S 
ATOM     11  O   UNL     1       5.806   8.121   2.720  0.00  0.00    -0.150 OA
ATOM     12  O   UNL     1       8.100   7.879   1.780  0.00  0.00    -0.150 OA
BRANCH  10  13
ATOM     13  N   UNL     1       6.286   8.843   0.406  0.00  0.00    -0.216 N 
ATOM     14  H   UNL     1       6.976   9.362  -0.037  0.00  0.00    +0.174 HD
BRANCH  13  15
ATOM     15  C   UNL     1       4.962   8.957  -0.001  0.00  0.00    +0.048 A 
ATOM     16  C   UNL     1       4.548   8.369  -1.193  0.00  0.00    +0.025 A 
ATOM     17  C   UNL     1       3.242   8.476  -1.595  0.00  0.00    +0.017 A 
ATOM     18  C   UNL     1       2.326   9.185  -0.810  0.00  0.00    +0.063 A 
ATOM     19  C   UNL     1       2.746   9.779   0.384  0.00  0.00    +0.017 A 
ATOM     20  C   UNL     1       4.053   9.664   0.782  0.00  0.00    +0.025 A 
BRANCH  18  21
ATOM     21  C   UNL     1       0.922   9.306  -1.241  0.00  0.00    +0.387 C 
ATOM     22  O   UNL     1       0.128   9.922  -0.559  0.00  0.00    -0.241 OA
ATOM     23  O   UNL     1       0.519   8.733  -2.393  0.00  0.00    -0.241 OA
ENDBRANCH  18  21
ENDBRANCH  13  15
ENDBRANCH  10  13
ENDBRANCH   4  10
BRANCH   1  24
ATOM     24  S   UNL     1       5.300   1.981  -0.239  0.00  0.00    -0.048 S 
BRANCH  24  29
ATOM     25  N   UNL     1       5.923  -0.295   1.264  0.00  0.00    -0.306 N 
ATOM     26  C   UNL     1       6.610  -0.558   2.416  0.00  0.00    +0.137 A 
ATOM     27  N   UNL     1       7.050   0.581   2.873  0.00  0.00    -0.133 NA
ATOM     28  N   UNL     1       6.699   1.536   2.089  0.00  0.00    -0.122 NA
ATOM     29  C   UNL     1       6.001   1.056   1.086  0.00  0.00    +0.196 A 
BRANCH  26  30
ATOM     30  C   UNL     1       6.814  -1.912   3.045  0.00  0.00    +0.057 C 
ATOM     31  C   UNL     1       7.787  -2.004   4.223  0.00  0.00    +0.012 C 
ATOM     32  C   UNL     1       6.280  -2.120   4.463  0.00  0.00    +0.012 C 
ENDBRANCH  26  30
BRANCH  25  34
ATOM     33  C   UNL     1       3.793  -1.429   0.861  0.00  0.00    +0.027 C 
ATOM     34  C   UNL     1       5.243  -1.263   0.400  0.00  0.00    +0.122 C 
ENDBRANCH  25  34
ENDBRANCH  24  29
ENDBRANCH   1  24
TORSDOF 9
