REMARK  Name = ZINC39670574
REMARK  5 active torsions:
REMARK  status: ('A' for Active; 'I' for Inactive)
REMARK    1  A    between atoms: C_1  and  C_2
REMARK    2  A    between atoms: C_7  and  C_11
REMARK    3  A    between atoms: C_11  and  N_12
REMARK    4  A    between atoms: C_13  and  C_15
REMARK    5  A    between atoms: C_26  and  C_28
REMARK                            x       y       z     vdW  Elec       q    Type
REMARK                         _______ _______ _______ _____ _____    ______ ____
ROOT
ATOM      1  C   UNL     1       3.158  -7.609   3.255  0.00  0.00    +0.100 C 
ATOM      2  C   UNL     1       3.726  -7.997   1.871  0.00  0.00    +0.121 C 
ATOM      3  N   UNL     1       4.570  -9.186   2.133  0.00  0.00    -0.300 N 
ATOM      4  C   UNL     1       3.806  -9.967   3.135  0.00  0.00    +0.115 C 
ATOM      5  C   UNL     1       3.211  -8.905   4.081  0.00  0.00    -0.004 C 
ATOM      6  C   UNL     1       1.807  -9.314   4.515  0.00  0.00    -0.010 C 
ATOM      7  C   UNL     1       1.892 -10.572   5.384  0.00  0.00    -0.082 C 
ATOM      8  N   UNL     1       2.730 -10.303   6.558  0.00  0.00    +0.379 N 
ATOM      9  C   UNL     1       4.103 -10.001   6.135  0.00  0.00    -0.082 C 
ATOM     10  C   UNL     1       4.111  -8.719   5.299  0.00  0.00    -0.010 C 
ATOM     11  C   UNL     1       5.764  -9.489   1.585  0.00  0.00    +0.219 C 
ATOM     12  O   UNL     1       6.337 -10.509   1.904  0.00  0.00    -0.275 OA
ATOM     13  H   UNL     1       2.354  -9.514   7.064  0.00  0.00    -0.086 HD
ATOM     14  H   UNL     1       2.735 -11.113   7.159  0.00  0.00    -0.086 HD
ENDROOT
BRANCH  11  15
ATOM     15  C   UNL     1       6.386  -8.559   0.575  0.00  0.00    +0.079 C 
ATOM     16  C   UNL     1       7.727  -9.135   0.101  0.00  0.00    +0.017 C 
ATOM     17  C   UNL     1       8.416  -8.093  -0.782  0.00  0.00    +0.027 C 
ATOM     18  C   UNL     1       7.462  -7.583  -1.821  0.00  0.00    -0.031 C 
ATOM     19  C   UNL     1       6.176  -7.723  -1.756  0.00  0.00    -0.030 C 
ATOM     20  C   UNL     1       5.460  -8.420  -0.635  0.00  0.00    +0.039 C 
ENDBRANCH  11  15
BRANCH   1  22
ATOM     21  N   UNL     1       1.238  -6.241   4.005  0.00  0.00    -0.309 N 
ATOM     22  C   UNL     1       1.735  -7.130   3.123  0.00  0.00    +0.219 C 
ATOM     23  O   UNL     1       1.037  -7.545   2.221  0.00  0.00    -0.275 OA
ATOM     24  H   UNL     1       1.796  -5.910   4.726  0.00  0.00    +0.149 HD
BRANCH  21  25
ATOM     25  C   UNL     1      -0.145  -5.775   3.876  0.00  0.00    +0.159 C 
BRANCH  25  32
ATOM     26  C   UNL     1      -2.149  -2.072   9.951  0.00  0.00    +0.045 C 
ATOM     27  C   UNL     1      -1.595  -2.373   8.582  0.00  0.00    -0.034 A 
ATOM     28  C   UNL     1      -1.051  -1.337   7.805  0.00  0.00    +0.008 A 
ATOM     29  C   UNL     1      -0.552  -1.612   6.569  0.00  0.00    +0.045 A 
ATOM     30  C   UNL     1      -0.590  -2.937   6.089  0.00  0.00    +0.115 A 
ATOM     31  N   UNL     1      -0.187  -3.485   4.951  0.00  0.00    -0.342 N 
ATOM     32  C   UNL     1      -0.449  -4.794   4.979  0.00  0.00    +0.051 A 
ATOM     33  C   UNL     1      -1.033  -5.092   6.160  0.00  0.00    +0.115 A 
ATOM     34  N   UNL     1      -1.127  -3.926   6.870  0.00  0.00    -0.308 N 
ATOM     35  C   UNL     1      -1.620  -3.637   8.110  0.00  0.00    +0.096 A 
ATOM     36  H   UNL     1       0.232  -3.011   4.216  0.00  0.00    +0.167 HD
ENDBRANCH  25  32
ENDBRANCH  21  25
ENDBRANCH   1  22
TORSDOF 4
