REMARK  Name = ZINC10275782
REMARK  8 active torsions:
REMARK  status: ('A' for Active; 'I' for Inactive)
REMARK    1  A    between atoms: C_4  and  C_7
REMARK    2  A    between atoms: C_10  and  O_13
REMARK    3  A    between atoms: O_13  and  C_14
REMARK    4  A    between atoms: C_14  and  C_15
REMARK    5  A    between atoms: C_15  and  N_16
REMARK    6  A    between atoms: N_16  and  S_17
REMARK    7  A    between atoms: S_17  and  C_20
REMARK    8  A    between atoms: C_25  and  N_26
REMARK                            x       y       z     vdW  Elec       q    Type
REMARK                         _______ _______ _______ _____ _____    ______ ____
ROOT
ATOM      1  C   UNL     1      -1.038   1.589   1.058  0.00  0.00    +0.147 C 
ENDROOT
BRANCH   1   2
ATOM      2  N   UNL     1      -2.286   0.870   1.325  0.00  0.00    -0.187 NA
ATOM      3  H   UNL     1      -2.731   0.388   0.611  0.00  0.00    +0.148 HD
BRANCH   2   4
ATOM      4  S   UNL     1      -2.938   0.881   2.848  0.00  0.00    +0.061 S 
ATOM      5  O   UNL     1      -4.161   0.160   2.771  0.00  0.00    -0.153 OA
ATOM      6  O   UNL     1      -1.894   0.517   3.739  0.00  0.00    -0.153 OA
BRANCH   4   7
ATOM      7  C   UNL     1      -3.361   2.550   3.221  0.00  0.00    +0.135 A 
ATOM      8  C   UNL     1      -2.744   3.200   4.274  0.00  0.00    +0.031 A 
ATOM      9  C   UNL     1      -3.072   4.511   4.564  0.00  0.00    +0.002 A 
ATOM     10  C   UNL     1      -4.024   5.169   3.808  0.00  0.00    +0.002 A 
ATOM     11  C   UNL     1      -4.644   4.518   2.759  0.00  0.00    +0.035 A 
ATOM     12  C   UNL     1      -4.313   3.208   2.465  0.00  0.00    +0.152 A 
BRANCH  12  13
ATOM     13  N   UNL     1      -4.978   2.510   1.342  0.00  0.00    +0.058 N 
ATOM     14  O   UNL     1      -5.906   3.042   0.759  0.00  0.00    -0.126 OA
ATOM     15  O   UNL     1      -4.596   1.405   1.000  0.00  0.00    -0.126 OA
ENDBRANCH  12  13
ENDBRANCH   4   7
ENDBRANCH   2   4
ENDBRANCH   1   2
BRANCH   1  16
ATOM     16  C   UNL     1      -0.432   1.088  -0.254  0.00  0.00    +0.247 C 
BRANCH  16  17
ATOM     17  O   UNL     1      -1.300   1.421  -1.339  0.00  0.00    -0.474 OA
BRANCH  17  21
ATOM     18  C   UNL     1      -0.042   0.258  -5.009  0.00  0.00    +0.094 A 
ATOM     19  C   UNL     1      -1.264   0.935  -4.933  0.00  0.00    +0.035 A 
ATOM     20  C   UNL     1      -1.706   1.338  -3.685  0.00  0.00    +0.071 A 
ATOM     21  C   UNL     1      -0.906   1.045  -2.581  0.00  0.00    +0.234 A 
ATOM     22  N   UNL     1       0.240   0.404  -2.747  0.00  0.00    -0.111 NA
ATOM     23  N   UNL     1       0.650   0.024  -3.902  0.00  0.00    -0.146 NA
BRANCH  18  27
ATOM     24  C   UNL     1       1.446  -1.044  -8.773  0.00  0.00    +0.000 A 
ATOM     25  C   UNL     1       2.173  -1.291  -7.622  0.00  0.00    +0.001 A 
ATOM     26  C   UNL     1       1.695  -0.870  -6.398  0.00  0.00    +0.010 A 
ATOM     27  C   UNL     1       0.477  -0.196  -6.322  0.00  0.00    +0.002 A 
ATOM     28  C   UNL     1      -0.253   0.045  -7.484  0.00  0.00    +0.010 A 
ATOM     29  C   UNL     1       0.237  -0.375  -8.704  0.00  0.00    +0.001 A 
ENDBRANCH  18  27
ENDBRANCH  17  21
ENDBRANCH  16  17
ENDBRANCH   1  16
TORSDOF 8
