REMARK  Name = ZINC09262983
REMARK  9 active torsions:
REMARK  status: ('A' for Active; 'I' for Inactive)
REMARK    1  A    between atoms: C_3  and  S_25
REMARK    2  A    between atoms: C_6  and  N_7
REMARK    3  A    between atoms: C_8  and  C_10
REMARK    4  A    between atoms: C_10  and  C_11
REMARK    5  A    between atoms: C_11  and  N_12
REMARK    6  A    between atoms: N_12  and  S_13
REMARK    7  A    between atoms: S_13  and  C_16
REMARK    8  A    between atoms: C_19  and  N_22
REMARK    9  A    between atoms: S_25  and  N_28
REMARK                            x       y       z     vdW  Elec       q    Type
REMARK                         _______ _______ _______ _____ _____    ______ ____
ROOT
ATOM      1  N   UNL     1       3.599  -3.771  -5.816  0.00  0.00    -0.285 N 
ATOM      2  C   UNL     1       3.455  -3.135  -4.636  0.00  0.00    +0.218 C 
ATOM      3  O   UNL     1       4.263  -2.297  -4.296  0.00  0.00    -0.275 OA
ATOM      4  H   UNL     1       2.910  -4.583  -6.090  0.00  0.00    +0.155 HD
ENDROOT
BRANCH   1  10
ATOM      5  C   UNL     1       4.418  -3.445  -8.064  0.00  0.00    +0.025 A 
ATOM      6  C   UNL     1       5.431  -3.070  -8.925  0.00  0.00    +0.031 A 
ATOM      7  C   UNL     1       6.651  -2.657  -8.423  0.00  0.00    +0.113 A 
ATOM      8  C   UNL     1       6.860  -2.614  -7.057  0.00  0.00    +0.031 A 
ATOM      9  C   UNL     1       5.851  -2.982  -6.190  0.00  0.00    +0.025 A 
ATOM     10  C   UNL     1       4.624  -3.397  -6.691  0.00  0.00    +0.033 A 
BRANCH   7  11
ATOM     11  S   UNL     1       7.942  -2.186  -9.526  0.00  0.00    +0.101 S 
ATOM     12  O   UNL     1       7.316  -1.794 -10.740  0.00  0.00    -0.146 OA
ATOM     13  O   UNL     1       8.802  -1.320  -8.798  0.00  0.00    -0.146 OA
BRANCH  11  14
ATOM     14  N   UNL     1       8.819  -3.550  -9.864  0.00  0.00    -0.103 NA
ATOM     15  C   UNL     1       8.231  -4.598 -10.553  0.00  0.00    +0.191 A 
ATOM     16  N   UNL     1       6.999  -4.701 -11.013  0.00  0.00    -0.339 N 
ATOM     17  C   UNL     1       6.598  -5.780 -11.659  0.00  0.00    +0.092 A 
ATOM     18  C   UNL     1       7.480  -6.793 -11.832  0.00  0.00    +0.066 A 
ATOM     19  S   UNL     1       8.925  -6.118 -11.027  0.00  0.00    -0.057 S 
ATOM     20  H   UNL     1       6.285  -3.878 -10.861  0.00  0.00    +0.167 HD
ENDBRANCH  11  14
ENDBRANCH   7  11
ENDBRANCH   1  10
BRANCH   2  21
ATOM     21  C   UNL     1       2.290  -3.466  -3.739  0.00  0.00    +0.113 C 
BRANCH  21  22
ATOM     22  C   UNL     1       2.362  -2.610  -2.473  0.00  0.00    +0.115 C 
BRANCH  22  23
ATOM     23  N   UNL     1       1.229  -2.931  -1.601  0.00  0.00    -0.189 NA
ATOM     24  H   UNL     1       0.305  -3.346  -2.030  0.00  0.00    +0.148 HD
BRANCH  23  25
ATOM     25  S   UNL     1       1.239  -2.446  -0.018  0.00  0.00    +0.058 S 
ATOM     26  O   UNL     1       2.499  -2.828   0.516  0.00  0.00    -0.153 OA
ATOM     27  O   UNL     1       0.009  -2.879   0.547  0.00  0.00    -0.153 OA
BRANCH  25  28
ATOM     28  C   UNL     1       1.203  -0.684  -0.012  0.00  0.00    +0.105 A 
ATOM     29  C   UNL     1      -0.007  -0.018   0.005  0.00  0.00    +0.031 A 
ATOM     30  C   UNL     1      -0.035   1.364   0.010  0.00  0.00    +0.034 A 
ATOM     31  C   UNL     1       1.147   2.080  -0.002  0.00  0.00    +0.126 A 
ATOM     32  C   UNL     1       2.358   1.413  -0.021  0.00  0.00    +0.034 A 
ATOM     33  C   UNL     1       2.386   0.031  -0.025  0.00  0.00    +0.031 A 
BRANCH  31  34
ATOM     34  N   UNL     1       1.117   3.560   0.003  0.00  0.00    +0.056 N 
ATOM     35  O   UNL     1       0.051   4.147   0.018  0.00  0.00    -0.126 OA
ATOM     36  O   UNL     1       2.160   4.190  -0.007  0.00  0.00    -0.126 OA
ENDBRANCH  31  34
ENDBRANCH  25  28
ENDBRANCH  23  25
ENDBRANCH  22  23
ENDBRANCH  21  22
ENDBRANCH   2  21
TORSDOF 9
