REMARK  Name = ZINC64058299
REMARK  10 active torsions:
REMARK  status: ('A' for Active; 'I' for Inactive)
REMARK    1  A    between atoms: C_1  and  C_2
REMARK    2  A    between atoms: C_2  and  S_3
REMARK    3  A    between atoms: S_3  and  C_6
REMARK    4  A    between atoms: C_10  and  C_19
REMARK    5  A    between atoms: N_11  and  C_12
REMARK    6  A    between atoms: C_12  and  C_13
REMARK    7  A    between atoms: C_19  and  N_20
REMARK    8  A    between atoms: N_20  and  C_21
REMARK    9  A    between atoms: N_20  and  C_22
REMARK   10  A    between atoms: C_22  and  C_23
REMARK                            x       y       z     vdW  Elec       q    Type
REMARK                         _______ _______ _______ _____ _____    ______ ____
ROOT
ATOM      1  C   UNL     1      -1.704  -4.052  -0.709  0.00  0.00    +0.319 C 
ATOM      2  N   UNL     1      -0.609  -4.376  -1.630  0.00  0.00    -0.253 NA
ATOM      3  C   UNL     1       0.434  -4.736  -0.988  0.00  0.00    +0.101 C 
ATOM      4  C   UNL     1       0.156  -4.693   0.498  0.00  0.00    +0.115 C 
ATOM      5  N   UNL     1      -1.074  -3.869   0.621  0.00  0.00    -0.250 NA
ENDROOT
BRANCH   1   6
ATOM      6  S   UNL     1      -2.526  -2.520  -1.228  0.00  0.00    +0.005 S 
ATOM      7  O   UNL     1      -3.453  -2.144  -0.219  0.00  0.00    -0.171 OA
ATOM      8  O   UNL     1      -2.986  -2.687  -2.562  0.00  0.00    -0.171 OA
BRANCH   6  10
ATOM      9  C   UNL     1      -1.700   0.052  -1.659  0.00  0.00    +0.028 C 
ATOM     10  C   UNL     1      -1.167  -1.319  -1.235  0.00  0.00    +0.166 C 
ENDBRANCH   6  10
ENDBRANCH   1   6
BRANCH   5  11
ATOM     11  C   UNL     1      -1.945  -4.377   1.690  0.00  0.00    +0.123 C 
BRANCH  11  12
ATOM     12  C   UNL     1      -3.190  -3.531   1.767  0.00  0.00    -0.033 A 
ATOM     13  C   UNL     1      -3.167  -2.328   2.447  0.00  0.00    +0.005 A 
ATOM     14  C   UNL     1      -4.310  -1.553   2.518  0.00  0.00    +0.000 A 
ATOM     15  C   UNL     1      -5.474  -1.980   1.909  0.00  0.00    +0.000 A 
ATOM     16  C   UNL     1      -5.497  -3.183   1.227  0.00  0.00    +0.000 A 
ATOM     17  C   UNL     1      -4.353  -3.956   1.153  0.00  0.00    +0.005 A 
ENDBRANCH  11  12
ENDBRANCH   5  11
BRANCH   4  18
ATOM     18  C   UNL     1      -0.091  -6.103   1.036  0.00  0.00    +0.109 C 
BRANCH  18  19
ATOM     19  N   UNL     1      -0.206  -6.056   2.500  0.00  0.00    -0.300 NA
ATOM     20  C   UNL     1       1.091  -5.750   3.120  0.00  0.00    +0.105 C 
BRANCH  19  21
ATOM     21  C   UNL     1      -0.758  -7.311   3.026  0.00  0.00    +0.130 C 
BRANCH  21  22
ATOM     22  C   UNL     1      -1.278  -7.084   4.447  0.00  0.00    +0.188 C 
ATOM     23  N   UNL     1      -2.164  -5.913   4.478  0.00  0.00    -0.362 N 
ATOM     24  C   UNL     1      -1.636  -5.044   5.290  0.00  0.00    +0.060 A 
ATOM     25  C   UNL     1      -2.050  -3.703   5.725  0.00  0.00    +0.027 A 
ATOM     26  C   UNL     1      -1.282  -3.021   6.598  0.00  0.00    +0.002 A 
ATOM     27  C   UNL     1      -0.083  -3.540   7.120  0.00  0.00    +0.002 A 
ATOM     28  C   UNL     1       0.387  -4.758   6.787  0.00  0.00    +0.027 A 
ATOM     29  C   UNL     1      -0.368  -5.594   5.843  0.00  0.00    +0.060 A 
ATOM     30  N   UNL     1      -0.161  -6.781   5.351  0.00  0.00    -0.362 N 
ATOM     31  H   UNL     1      -2.992  -5.807   3.983  0.00  0.00    +0.162 HD
ATOM     32  H   UNL     1       0.592  -7.360   5.546  0.00  0.00    +0.162 HD
ENDBRANCH  21  22
ENDBRANCH  19  21
ENDBRANCH  18  19
ENDBRANCH   4  18
TORSDOF 8
