REMARK  Name = ZINC04953785
REMARK  7 active torsions:
REMARK  status: ('A' for Active; 'I' for Inactive)
REMARK    1  A    between atoms: C_3  and  C_10
REMARK    2  A    between atoms: C_5  and  N_7
REMARK    3  A    between atoms: C_11  and  C_12
REMARK    4  A    between atoms: C_11  and  C_14
REMARK    5  A    between atoms: N_16  and  C_17
REMARK    6  A    between atoms: C_20  and  N_27
REMARK    7  A    between atoms: C_22  and  C_23
REMARK                            x       y       z     vdW  Elec       q    Type
REMARK                         _______ _______ _______ _____ _____    ______ ____
ROOT
ATOM      1  C   UNL     1       4.925   4.310   0.055  0.00  0.00    +0.288 C 
ATOM      2  O   UNL     1       6.109   3.723   0.345  0.00  0.00    -0.264 OA
ATOM      3  N   UNL     1       4.892   5.564  -0.330  0.00  0.00    -0.208 NA
ENDROOT
BRANCH   3   4
ATOM      4  C   UNL     1       6.058   6.245  -0.543  0.00  0.00    +0.080 A 
ATOM      5  C   UNL     1       7.058   5.690  -1.346  0.00  0.00    +0.030 A 
ATOM      6  C   UNL     1       8.232   6.383  -1.557  0.00  0.00    +0.035 A 
ATOM      7  C   UNL     1       8.420   7.625  -0.976  0.00  0.00    +0.127 A 
ATOM      8  C   UNL     1       7.434   8.180  -0.180  0.00  0.00    +0.047 A 
ATOM      9  C   UNL     1       6.253   7.502   0.036  0.00  0.00    +0.082 A 
BRANCH   9  10
ATOM     10  C   UNL     1       5.178   8.111   0.898  0.00  0.00    +0.419 C 
ATOM     11  F   UNL     1       5.603   9.361   1.359  0.00  0.00    -0.166 F 
ATOM     12  F   UNL     1       4.008   8.264   0.146  0.00  0.00    -0.166 F 
ATOM     13  F   UNL     1       4.925   7.273   1.989  0.00  0.00    -0.166 F 
ENDBRANCH   9  10
BRANCH   7  14
ATOM     14  N   UNL     1       9.683   8.362  -1.206  0.00  0.00    +0.056 N 
ATOM     15  O   UNL     1      10.547   7.879  -1.901  0.00  0.00    -0.126 OA
ATOM     16  O   UNL     1       9.851   9.447  -0.700  0.00  0.00    -0.126 OA
ENDBRANCH   7  14
ENDBRANCH   3   4
BRANCH   1  18
ATOM     17  C   UNL     1       3.710   2.237   0.571  0.00  0.00    +0.032 C 
ATOM     18  C   UNL     1       3.675   3.542   0.171  0.00  0.00    +0.118 C 
BRANCH  17  21
ATOM     19  C   UNL     1       0.327   0.935  -0.379  0.00  0.00    +0.003 A 
ATOM     20  C   UNL     1       1.477   1.695  -0.377  0.00  0.00    +0.008 A 
ATOM     21  C   UNL     1       2.482   1.434   0.562  0.00  0.00    -0.021 A 
ATOM     22  C   UNL     1       2.310   0.400   1.492  0.00  0.00    +0.040 A 
ATOM     23  C   UNL     1       1.154  -0.350   1.475  0.00  0.00    +0.127 A 
ATOM     24  C   UNL     1       0.165  -0.084   0.543  0.00  0.00    +0.033 A 
BRANCH  23  25
ATOM     25  N   UNL     1       0.969  -1.442   2.456  0.00  0.00    +0.056 N 
ATOM     26  O   UNL     1       1.832  -1.676   3.270  0.00  0.00    -0.126 OA
ATOM     27  O   UNL     1      -0.044  -2.102   2.443  0.00  0.00    -0.126 OA
ENDBRANCH  23  25
ENDBRANCH  17  21
BRANCH  18  28
ATOM     28  C   UNL     1       2.422   4.164  -0.136  0.00  0.00    +0.105 C 
ATOM     29  N   UNL     1       1.428   4.657  -0.380  0.00  0.00    -0.191 NA
ENDBRANCH  18  28
ENDBRANCH   1  18
TORSDOF 7
