REMARK  Name = ZINC39547440
REMARK  14 active torsions:
REMARK  status: ('A' for Active; 'I' for Inactive)
REMARK    1  A    between atoms: C_1  and  C_2
REMARK    2  A    between atoms: C_3  and  C_30
REMARK    3  A    between atoms: C_4  and  C_13
REMARK    4  A    between atoms: C_5  and  C_9
REMARK    5  A    between atoms: C_6  and  C_8
REMARK    6  A    between atoms: C_9  and  O_11
REMARK    7  A    between atoms: O_11  and  C_12
REMARK    8  A    between atoms: C_13  and  O_15
REMARK    9  A    between atoms: O_15  and  C_16
REMARK   10  A    between atoms: C_16  and  C_17
REMARK   11  A    between atoms: N_19  and  C_20
REMARK   12  A    between atoms: C_22  and  N_27
REMARK   13  A    between atoms: C_30  and  O_32
REMARK   14  A    between atoms: O_32  and  C_33
REMARK                            x       y       z     vdW  Elec       q    Type
REMARK                         _______ _______ _______ _____ _____    ______ ____
ROOT
ATOM      1  C   UNL     1      -1.671  -2.682   1.490  0.00  0.00    +0.320 C 
ATOM      2  O   UNL     1      -1.910  -1.913   2.391  0.00  0.00    -0.250 OA
ENDROOT
BRANCH   1   6
ATOM      3  C   UNL     1      -0.174   1.548   0.254  0.00  0.00    +0.061 C 
ATOM      4  C   UNL     1      -0.133   0.042   0.209  0.00  0.00    +0.016 C 
ATOM      5  C   UNL     1      -1.283  -0.652   0.168  0.00  0.00    +0.072 C 
ATOM      6  C   UNL     1      -1.290  -2.154   0.131  0.00  0.00    +0.174 C 
ATOM      7  C   UNL     1       0.065  -2.684  -0.243  0.00  0.00    +0.072 C 
ATOM      8  C   UNL     1       1.161  -1.908  -0.185  0.00  0.00    +0.016 C 
ATOM      9  N   UNL     1       1.075  -0.601   0.206  0.00  0.00    -0.321 N 
ATOM     10  C   UNL     1       2.502  -2.484  -0.561  0.00  0.00    +0.061 C 
ATOM     11  H   UNL     1       1.874  -0.128   0.486  0.00  0.00    +0.152 HD
BRANCH   7  12
ATOM     12  C   UNL     1       0.191  -4.027  -0.665  0.00  0.00    +0.337 C 
ATOM     13  O   UNL     1      -0.174  -4.352  -1.780  0.00  0.00    -0.245 OA
BRANCH  12  14
ATOM     14  O   UNL     1       0.715  -4.950   0.168  0.00  0.00    -0.465 OA
ATOM     15  C   UNL     1       0.811  -6.288  -0.324  0.00  0.00    +0.280 C 
ENDBRANCH  12  14
ENDBRANCH   7  12
BRANCH   5  16
ATOM     16  C   UNL     1      -2.513   0.046   0.158  0.00  0.00    +0.337 C 
ATOM     17  O   UNL     1      -2.522   1.262   0.188  0.00  0.00    -0.245 OA
BRANCH  16  18
ATOM     18  O   UNL     1      -3.676  -0.637   0.117  0.00  0.00    -0.465 OA
ATOM     19  C   UNL     1      -4.880   0.132   0.110  0.00  0.00    +0.280 C 
ENDBRANCH  16  18
ENDBRANCH   5  16
ENDBRANCH   1   6
BRANCH   1  20
ATOM     20  O   UNL     1      -1.744  -4.005   1.700  0.00  0.00    -0.455 OA
BRANCH  20  21
ATOM     21  C   UNL     1      -2.110  -4.435   3.013  0.00  0.00    +0.328 C 
BRANCH  21  22
ATOM     22  C   UNL     1      -2.140  -5.941   3.059  0.00  0.00    +0.255 C 
ATOM     23  O   UNL     1      -1.873  -6.583   2.065  0.00  0.00    -0.272 OA
ATOM     24  N   UNL     1      -2.463  -6.574   4.204  0.00  0.00    -0.281 N 
ATOM     25  H   UNL     1      -2.738  -6.062   4.980  0.00  0.00    +0.155 HD
BRANCH  24  26
ATOM     26  C   UNL     1      -2.401  -7.971   4.273  0.00  0.00    +0.054 A 
ATOM     27  C   UNL     1      -2.722  -8.737   3.161  0.00  0.00    +0.057 A 
ATOM     28  C   UNL     1      -2.659 -10.115   3.232  0.00  0.00    +0.128 A 
ATOM     29  C   UNL     1      -2.277 -10.732   4.409  0.00  0.00    +0.034 A 
ATOM     30  C   UNL     1      -1.957  -9.973   5.519  0.00  0.00    +0.024 A 
ATOM     31  C   UNL     1      -2.013  -8.593   5.453  0.00  0.00    +0.062 A 
ATOM     32 CL   UNL     1      -1.603  -7.639   6.845  0.00  0.00    -0.082 Cl
BRANCH  28  33
ATOM     33  N   UNL     1      -3.002 -10.933   2.046  0.00  0.00    +0.056 N 
ATOM     34  O   UNL     1      -3.336 -10.394   1.017  0.00  0.00    -0.126 OA
ATOM     35  O   UNL     1      -2.947 -12.139   2.107  0.00  0.00    -0.126 OA
ENDBRANCH  28  33
ENDBRANCH  24  26
ENDBRANCH  21  22
ENDBRANCH  20  21
ENDBRANCH   1  20
TORSDOF 10
