REMARK  Name = ZINC06793214
REMARK  8 active torsions:
REMARK  status: ('A' for Active; 'I' for Inactive)
REMARK    1  A    between atoms: C_1  and  C_2
REMARK    2  A    between atoms: C_5  and  N_11
REMARK    3  A    between atoms: C_6  and  N_8
REMARK    4  A    between atoms: C_12  and  C_14
REMARK    5  A    between atoms: C_14  and  C_15
REMARK    6  A    between atoms: N_21  and  C_22
REMARK    7  A    between atoms: C_26  and  O_28
REMARK    8  A    between atoms: O_28  and  C_29
REMARK                            x       y       z     vdW  Elec       q    Type
REMARK                         _______ _______ _______ _____ _____    ______ ____
ROOT
ATOM      1  C   UNL     1      -0.356  -6.553  -2.742  0.00  0.00    +0.149 C 
ATOM      2  C   UNL     1      -0.438  -8.066  -2.856  0.00  0.00    +0.232 C 
ATOM      3  O   UNL     1       0.472  -8.789  -2.509  0.00  0.00    -0.274 OA
ATOM      4  N   UNL     1      -1.563  -8.546  -3.358  0.00  0.00    -0.264 N 
ATOM      5  C   UNL     1      -2.602  -7.731  -3.756  0.00  0.00    +0.161 C 
ATOM      6  N   UNL     1      -3.759  -8.084  -4.264  0.00  0.00    -0.226 NA
ATOM      7  S   UNL     1      -2.002  -6.081  -3.416  0.00  0.00    -0.077 S 
ATOM      8  H   UNL     1      -1.661  -9.506  -3.451  0.00  0.00    +0.157 HD
ENDROOT
BRANCH   6   9
ATOM      9  C   UNL     1      -4.048  -9.408  -4.456  0.00  0.00    +0.070 A 
ATOM     10  C   UNL     1      -3.095 -10.259  -5.021  0.00  0.00    +0.028 A 
ATOM     11  C   UNL     1      -3.390 -11.593  -5.213  0.00  0.00    +0.006 A 
ATOM     12  C   UNL     1      -4.626 -12.092  -4.846  0.00  0.00    +0.046 A 
ATOM     13  C   UNL     1      -5.580 -11.254  -4.284  0.00  0.00    +0.122 A 
ATOM     14  C   UNL     1      -5.293  -9.915  -4.081  0.00  0.00    +0.073 A 
BRANCH  13  15
ATOM     15  O   UNL     1      -6.794 -11.750  -3.927  0.00  0.00    -0.495 OA
ATOM     16  C   UNL     1      -7.019 -13.142  -4.159  0.00  0.00    +0.277 C 
ENDBRANCH  13  15
ENDBRANCH   6   9
BRANCH   1  17
ATOM     17  C   UNL     1      -0.207  -6.114  -1.284  0.00  0.00    +0.120 C 
BRANCH  17  19
ATOM     18  N   UNL     1       0.038  -3.996  -0.029  0.00  0.00    -0.284 N 
ATOM     19  C   UNL     1      -0.101  -4.612  -1.220  0.00  0.00    +0.219 C 
ATOM     20  O   UNL     1      -0.140  -3.957  -2.240  0.00  0.00    -0.275 OA
ATOM     21  H   UNL     1       0.151  -4.522   0.779  0.00  0.00    +0.155 HD
BRANCH  18  26
ATOM     22  C   UNL     1      -0.037   1.669   0.263  0.00  0.00    +0.044 C 
ATOM     23  C   UNL     1      -0.018   0.164   0.186  0.00  0.00    -0.048 A 
ATOM     24  C   UNL     1      -0.652  -0.482  -0.860  0.00  0.00    +0.005 A 
ATOM     25  C   UNL     1      -0.635  -1.861  -0.934  0.00  0.00    +0.026 A 
ATOM     26  C   UNL     1       0.020  -2.599   0.043  0.00  0.00    +0.064 A 
ATOM     27  C   UNL     1       0.655  -1.948   1.092  0.00  0.00    +0.148 A 
ATOM     28  C   UNL     1       0.639  -0.568   1.157  0.00  0.00    +0.038 A 
BRANCH  27  29
ATOM     29  N   UNL     1       1.354  -2.731   2.135  0.00  0.00    +0.058 N 
ATOM     30  O   UNL     1       1.825  -2.171   3.098  0.00  0.00    -0.126 OA
ATOM     31  O   UNL     1       1.454  -3.931   2.025  0.00  0.00    -0.126 OA
ENDBRANCH  27  29
ENDBRANCH  18  26
ENDBRANCH  17  19
ENDBRANCH   1  17
TORSDOF 6
