REMARK  Name = ZINC64127803
REMARK  7 active torsions:
REMARK  status: ('A' for Active; 'I' for Inactive)
REMARK    1  A    between atoms: C_1  and  C_2
REMARK    2  A    between atoms: C_2  and  C_3
REMARK    3  A    between atoms: N_12  and  C_13
REMARK    4  A    between atoms: C_13  and  C_14
REMARK    5  A    between atoms: N_16  and  C_17
REMARK    6  A    between atoms: C_18  and  C_29
REMARK    7  A    between atoms: C_19  and  C_23
REMARK                            x       y       z     vdW  Elec       q    Type
REMARK                         _______ _______ _______ _____ _____    ______ ____
ROOT
ATOM      1  C   UNL     1      -0.483  -3.644  -0.180  0.00  0.00    +0.236 C 
ATOM      2  O   UNL     1       0.139  -3.179  -1.112  0.00  0.00    -0.274 OA
ATOM      3  N   UNL     1      -1.645  -4.289  -0.401  0.00  0.00    -0.269 N 
ATOM      4  H   UNL     1      -2.143  -4.661   0.344  0.00  0.00    +0.156 HD
ENDROOT
BRANCH   3   5
ATOM      5  C   UNL     1      -2.132  -4.423  -1.702  0.00  0.00    +0.124 A 
ATOM      6  C   UNL     1      -3.286  -5.041  -2.066  0.00  0.00    +0.017 A 
ATOM      7  C   UNL     1      -3.400  -4.950  -3.466  0.00  0.00    +0.097 A 
ATOM      8  N   UNL     1      -2.350  -4.300  -3.921  0.00  0.00    -0.172 NA
ATOM      9  N   UNL     1      -1.541  -3.953  -2.831  0.00  0.00    -0.263 N 
ATOM     10  H   UNL     1      -0.704  -3.465  -2.876  0.00  0.00    +0.190 HD
ATOM     11  C   UNL     1      -4.268  -5.707  -1.136  0.00  0.00    +0.049 C 
BRANCH   7  12
ATOM     12  C   UNL     1      -4.511  -5.493  -4.286  0.00  0.00    +0.005 A 
ATOM     13  C   UNL     1      -5.838  -5.380  -3.862  0.00  0.00    +0.030 A 
ATOM     14  C   UNL     1      -6.840  -5.899  -4.656  0.00  0.00    +0.111 A 
ATOM     15  N   UNL     1      -6.559  -6.495  -5.799  0.00  0.00    -0.263 NA
ATOM     16  C   UNL     1      -5.320  -6.623  -6.235  0.00  0.00    +0.111 A 
ATOM     17  C   UNL     1      -4.258  -6.127  -5.506  0.00  0.00    +0.030 A 
ENDBRANCH   7  12
ENDBRANCH   3   5
BRANCH   1  18
ATOM     18  C   UNL     1       0.043  -3.499   1.225  0.00  0.00    +0.203 C 
BRANCH  18  27
ATOM     19  C   UNL     1       1.475  -1.310   1.298  0.00  0.00    +0.159 C 
ATOM     20  N   UNL     1       2.920  -1.064   1.225  0.00  0.00    -0.324 N 
ATOM     21  C   UNL     1       3.549  -2.309   1.090  0.00  0.00    +0.050 A 
ATOM     22  C   UNL     1       4.896  -2.633   0.979  0.00  0.00    +0.025 A 
ATOM     23  C   UNL     1       5.285  -3.953   0.853  0.00  0.00    +0.002 A 
ATOM     24  C   UNL     1       4.335  -4.957   0.837  0.00  0.00    +0.002 A 
ATOM     25  C   UNL     1       2.994  -4.646   0.947  0.00  0.00    +0.025 A 
ATOM     26  C   UNL     1       2.593  -3.321   1.073  0.00  0.00    +0.053 A 
ATOM     27  N   UNL     1       1.310  -2.765   1.198  0.00  0.00    -0.301 N 
ATOM     28  H   UNL     1       3.358  -0.200   1.262  0.00  0.00    +0.148 HD
BRANCH  19  30
ATOM     29  C   UNL     1       0.966   0.896   0.240  0.00  0.00    +0.007 C 
ATOM     30  C   UNL     1       0.761  -0.617   0.135  0.00  0.00    +0.039 C 
ENDBRANCH  19  30
ENDBRANCH  18  27
ENDBRANCH   1  18
TORSDOF 5
