REMARK  Name = ZINC39592759
REMARK  4 active torsions:
REMARK  status: ('A' for Active; 'I' for Inactive)
REMARK    1  A    between atoms: C_1  and  C_2
REMARK    2  A    between atoms: C_5  and  C_8
REMARK    3  A    between atoms: C_11  and  C_17
REMARK    4  A    between atoms: C_20  and  C_23
REMARK                            x       y       z     vdW  Elec       q    Type
REMARK                         _______ _______ _______ _____ _____    ______ ____
ROOT
ATOM      1  C   UNL     1       0.059  -4.252  -0.021  0.00  0.00    +0.130 C 
ATOM      2  N   UNL     1       0.070  -5.073   0.990  0.00  0.00    -0.168 NA
ATOM      3  N   UNL     1       0.088  -6.451   0.805  0.00  0.00    -0.175 N 
ATOM      4  C   UNL     1       0.103  -7.686   1.630  0.00  0.00    +0.230 C 
ATOM      5  N   UNL     1       0.118  -8.783   0.650  0.00  0.00    -0.242 N 
ATOM      6  N   UNL     1       0.110  -8.175  -0.612  0.00  0.00    -0.161 NA
ATOM      7  C   UNL     1       0.093  -6.894  -0.511  0.00  0.00    +0.201 C 
ATOM      8  S   UNL     1       0.066  -5.361  -1.419  0.00  0.00    -0.029 S 
ATOM      9  H   UNL     1       0.130  -9.734   0.839  0.00  0.00    +0.170 HD
ENDROOT
BRANCH   1  14
ATOM     10  C   UNL     1      -0.018   1.503   0.010  0.00  0.00    +0.044 C 
ATOM     11  C   UNL     1       0.002  -0.004   0.002  0.00  0.00    -0.050 A 
ATOM     12  C   UNL     1       0.006  -0.686  -1.202  0.00  0.00    +0.004 A 
ATOM     13  C   UNL     1       0.024  -2.066  -1.216  0.00  0.00    +0.011 A 
ATOM     14  C   UNL     1       0.040  -2.773  -0.013  0.00  0.00    +0.009 A 
ATOM     15  C   UNL     1       0.036  -2.079   1.197  0.00  0.00    +0.011 A 
ATOM     16  C   UNL     1       0.023  -0.699   1.198  0.00  0.00    +0.004 A 
ENDBRANCH   1  14
BRANCH   4  17
ATOM     17  C   UNL     1      -1.151  -7.763   2.502  0.00  0.00    +0.194 C 
ATOM     18  C   UNL     1      -1.110  -8.990   3.395  0.00  0.00    +0.035 C 
ATOM     19  C   UNL     1      -2.183  -9.706   3.009  0.00  0.00    +0.091 C 
ATOM     20  N   UNL     1      -2.848  -9.065   2.012  0.00  0.00    -0.154 NA
ATOM     21  N   UNL     1      -2.348  -7.986   1.673  0.00  0.00    -0.176 NA
BRANCH  19  22
ATOM     22  C   UNL     1      -2.584 -11.011   3.590  0.00  0.00    +0.002 A 
ATOM     23  C   UNL     1      -1.832 -11.579   4.617  0.00  0.00    +0.011 A 
ATOM     24  C   UNL     1      -2.209 -12.793   5.154  0.00  0.00    +0.020 A 
ATOM     25  C   UNL     1      -3.331 -13.447   4.675  0.00  0.00    +0.041 A 
ATOM     26  C   UNL     1      -4.082 -12.886   3.656  0.00  0.00    +0.020 A 
ATOM     27  C   UNL     1      -3.717 -11.670   3.116  0.00  0.00    +0.011 A 
ATOM     28 CL   UNL     1      -3.799 -14.974   5.355  0.00  0.00    -0.084 Cl
ENDBRANCH  19  22
ENDBRANCH   4  17
TORSDOF 3
