REMARK  Name = ZINC17830968
REMARK  11 active torsions:
REMARK  status: ('A' for Active; 'I' for Inactive)
REMARK    1  A    between atoms: C_1  and  C_2
REMARK    2  A    between atoms: C_3  and  C_12
REMARK    3  A    between atoms: C_5  and  C_7
REMARK    4  A    between atoms: C_12  and  O_14
REMARK    5  A    between atoms: O_14  and  C_15
REMARK    6  A    between atoms: C_15  and  C_16
REMARK    7  A    between atoms: C_16  and  C_18
REMARK    8  A    between atoms: C_19  and  N_34
REMARK    9  A    between atoms: N_20  and  C_27
REMARK   10  A    between atoms: N_23  and  C_26
REMARK   11  A    between atoms: C_27  and  C_28
REMARK                            x       y       z     vdW  Elec       q    Type
REMARK                         _______ _______ _______ _____ _____    ______ ____
ROOT
ATOM      1  C   UNL     1       1.158  -0.669  -0.007  0.00  0.00    +0.123 A 
ATOM      2  C   UNL     1      -0.039   0.068   0.021  0.00  0.00    +0.116 A 
ATOM      3  N   UNL     1       0.026   1.433   0.022  0.00  0.00    -0.277 N 
ATOM      4  C   UNL     1       1.204   2.075  -0.004  0.00  0.00    +0.333 A 
ATOM      5  O   UNL     1       1.207   3.291  -0.002  0.00  0.00    -0.246 OA
ATOM      6  N   UNL     1       2.378   1.425  -0.032  0.00  0.00    -0.263 N 
ATOM      7  C   UNL     1       2.423   0.077  -0.035  0.00  0.00    +0.269 A 
ATOM      8  O   UNL     1       3.489  -0.509  -0.060  0.00  0.00    -0.267 OA
ATOM      9  C   UNL     1       3.627   2.190  -0.059  0.00  0.00    +0.157 C 
ENDROOT
BRANCH   2  10
ATOM     10  N   UNL     1      -1.242  -0.567   0.048  0.00  0.00    -0.344 N 
ATOM     11  H   UNL     1      -2.059  -0.054   0.145  0.00  0.00    +0.144 HD
ATOM     12  H   UNL     1      -1.282  -1.533  -0.030  0.00  0.00    +0.144 HD
ENDBRANCH   2  10
BRANCH   1  13
ATOM     13  C   UNL     1       1.144  -2.080  -0.010  0.00  0.00    +0.209 C 
ATOM     14  O   UNL     1       0.089  -2.677  -0.094  0.00  0.00    -0.288 OA
BRANCH  13  15
ATOM     15  C   UNL     1       2.438  -2.846   0.091  0.00  0.00    +0.312 C 
BRANCH  15  16
ATOM     16  O   UNL     1       2.164  -4.249   0.069  0.00  0.00    -0.453 OA
BRANCH  16  17
ATOM     17  C   UNL     1       3.222  -5.081   0.151  0.00  0.00    +0.348 C 
ATOM     18  O   UNL     1       4.348  -4.627   0.240  0.00  0.00    -0.244 OA
BRANCH  17  21
ATOM     19  C   UNL     1       5.420  -7.251   0.309  0.00  0.00    +0.067 C 
ATOM     20  C   UNL     1       3.949  -7.559   0.200  0.00  0.00    +0.060 A 
ATOM     21  C   UNL     1       3.017  -6.528   0.134  0.00  0.00    +0.119 A 
ATOM     22  S   UNL     1       1.499  -7.466   0.012  0.00  0.00    -0.060 S 
ATOM     23  C   UNL     1       2.240  -9.092   0.070  0.00  0.00    +0.116 A 
ATOM     24  N   UNL     1       3.534  -8.793   0.173  0.00  0.00    -0.243 NA
BRANCH  23  25
ATOM     25  C   UNL     1       1.592 -10.409   0.016  0.00  0.00    +0.044 A 
ATOM     26  C   UNL     1       0.247 -10.717  -0.091  0.00  0.00    +0.018 A 
ATOM     27  C   UNL     1      -0.120 -12.041  -0.122  0.00  0.00    +0.008 A 
ATOM     28  C   UNL     1       0.841 -13.000  -0.047  0.00  0.00    +0.046 A 
ATOM     29  S   UNL     1       2.336 -12.032   0.065  0.00  0.00    -0.095 S 
ENDBRANCH  23  25
ENDBRANCH  17  21
ENDBRANCH  16  17
ENDBRANCH  15  16
ENDBRANCH  13  15
ENDBRANCH   1  13
BRANCH   3  30
ATOM     30  C   UNL     1      -1.216   2.210   0.045  0.00  0.00    +0.163 C 
BRANCH  30  31
ATOM     31  C   UNL     1      -1.616   2.474   1.474  0.00  0.00    -0.028 A 
ATOM     32  C   UNL     1      -2.439   1.584   2.137  0.00  0.00    +0.005 A 
ATOM     33  C   UNL     1      -2.803   1.824   3.449  0.00  0.00    +0.000 A 
ATOM     34  C   UNL     1      -2.351   2.960   4.094  0.00  0.00    +0.000 A 
ATOM     35  C   UNL     1      -1.532   3.853   3.429  0.00  0.00    +0.000 A 
ATOM     36  C   UNL     1      -1.165   3.610   2.119  0.00  0.00    +0.005 A 
ENDBRANCH  30  31
ENDBRANCH   3  30
TORSDOF 9
