REMARK  Name = ZINC16576845
REMARK  12 active torsions:
REMARK  status: ('A' for Active; 'I' for Inactive)
REMARK    1  A    between atoms: C_1  and  C_2
REMARK    2  A    between atoms: C_2  and  C_4
REMARK    3  A    between atoms: C_2  and  N_10
REMARK    4  A    between atoms: C_11  and  C_13
REMARK    5  A    between atoms: C_13  and  O_14
REMARK    6  A    between atoms: O_14  and  C_15
REMARK    7  A    between atoms: C_18  and  C_21
REMARK    8  A    between atoms: N_22  and  N_23
REMARK    9  A    between atoms: C_24  and  C_26
REMARK   10  A    between atoms: N_28  and  C_29
REMARK   11  A    between atoms: C_29  and  C_31
REMARK   12  A    between atoms: C_29  and  C_32
REMARK                            x       y       z     vdW  Elec       q    Type
REMARK                         _______ _______ _______ _____ _____    ______ ____
ROOT
ATOM      1  C   UNL     1       6.912  10.197  -6.883  0.00  0.00    +0.121 A 
ATOM      2  C   UNL     1       5.798  10.978  -6.605  0.00  0.00    +0.046 A 
ATOM      3  C   UNL     1       4.815  10.506  -5.764  0.00  0.00    +0.013 A 
ATOM      4  C   UNL     1       4.939   9.237  -5.190  0.00  0.00    -0.005 A 
ATOM      5  C   UNL     1       6.065   8.456  -5.468  0.00  0.00    +0.013 A 
ATOM      6  C   UNL     1       7.041   8.935  -6.315  0.00  0.00    +0.046 A 
ENDROOT
BRANCH   4   7
ATOM      7  C   UNL     1       3.890   8.727  -4.290  0.00  0.00    +0.138 C 
ATOM      8  N   UNL     1       4.008   7.548  -3.757  0.00  0.00    -0.187 NA
BRANCH   8   9
ATOM      9  N   UNL     1       3.011   7.063  -2.901  0.00  0.00    -0.199 N 
ATOM     10  C   UNL     1       3.133   5.839  -2.349  0.00  0.00    +0.318 C 
ATOM     11  O   UNL     1       4.108   5.157  -2.593  0.00  0.00    -0.263 OA
ATOM     12  H   UNL     1       2.232   7.607  -2.706  0.00  0.00    +0.178 HD
BRANCH  10  13
ATOM     13  C   UNL     1       2.071   5.323  -1.437  0.00  0.00    +0.301 C 
ATOM     14  O   UNL     1       1.097   6.004  -1.193  0.00  0.00    -0.265 OA
ATOM     15  N   UNL     1       2.193   4.100  -0.885  0.00  0.00    -0.301 N 
ATOM     16  H   UNL     1       2.972   3.555  -1.080  0.00  0.00    +0.150 HD
BRANCH  15  17
ATOM     17  C   UNL     1       1.151   3.592   0.010  0.00  0.00    +0.101 C 
ATOM     18  C   UNL     1       1.407   4.098   1.431  0.00  0.00    +0.033 C 
BRANCH  17  19
ATOM     19  C   UNL     1       1.171   2.086   0.002  0.00  0.00    -0.027 A 
ATOM     20  C   UNL     1      -0.017   1.378   0.010  0.00  0.00    +0.005 A 
ATOM     21  C   UNL     1       0.002  -0.004   0.002  0.00  0.00    +0.000 A 
ATOM     22  C   UNL     1       1.208  -0.679  -0.014  0.00  0.00    +0.000 A 
ATOM     23  C   UNL     1       2.396   0.029  -0.021  0.00  0.00    +0.000 A 
ATOM     24  C   UNL     1       2.377   1.411  -0.014  0.00  0.00    +0.005 A 
ENDBRANCH  17  19
ENDBRANCH  15  17
ENDBRANCH  10  13
ENDBRANCH   8   9
ENDBRANCH   4   7
BRANCH   1  25
ATOM     25  O   UNL     1       7.880  10.667  -7.713  0.00  0.00    -0.483 OA
BRANCH  25  26
ATOM     26  C   UNL     1       8.998   9.812  -7.956  0.00  0.00    +0.324 C 
BRANCH  26  28
ATOM     27  N   UNL     1      11.096   9.874  -9.265  0.00  0.00    -0.306 N 
ATOM     28  C   UNL     1       9.960  10.496  -8.892  0.00  0.00    +0.251 C 
ATOM     29  O   UNL     1       9.712  11.608  -9.310  0.00  0.00    -0.272 OA
ATOM     30  H   UNL     1      11.294   8.985  -8.931  0.00  0.00    +0.149 HD
BRANCH  27  32
ATOM     31  C   UNL     1      12.965  11.447  -9.372  0.00  0.00    +0.033 C 
ATOM     32  C   UNL     1      12.031  10.540 -10.175  0.00  0.00    +0.100 C 
BRANCH  32  33
ATOM     33  C   UNL     1      12.844   9.503 -10.906  0.00  0.00    -0.027 A 
ATOM     34  C   UNL     1      13.305   8.386 -10.235  0.00  0.00    +0.005 A 
ATOM     35  C   UNL     1      14.047   7.433 -10.907  0.00  0.00    +0.000 A 
ATOM     36  C   UNL     1      14.337   7.602 -12.248  0.00  0.00    +0.000 A 
ATOM     37  C   UNL     1      13.880   8.721 -12.918  0.00  0.00    +0.000 A 
ATOM     38  C   UNL     1      13.134   9.672 -12.247  0.00  0.00    +0.005 A 
ENDBRANCH  32  33
ENDBRANCH  27  32
ENDBRANCH  26  28
ENDBRANCH  25  26
ENDBRANCH   1  25
TORSDOF 10
