REMARK  Name = ZINC12517296
REMARK  6 active torsions:
REMARK  status: ('A' for Active; 'I' for Inactive)
REMARK    1  A    between atoms: C_2  and  C_3
REMARK    2  A    between atoms: C_3  and  N_4
REMARK    3  A    between atoms: C_8  and  C_10
REMARK    4  A    between atoms: C_10  and  O_11
REMARK    5  A    between atoms: O_11  and  C_12
REMARK    6  A    between atoms: C_12  and  C_14
REMARK                            x       y       z     vdW  Elec       q    Type
REMARK                         _______ _______ _______ _____ _____    ______ ____
ROOT
ATOM      1  C   UNL     1       0.002  -0.004   0.002  0.00  0.00    +0.079 A 
ATOM      2  C   UNL     1      -1.201  -0.724   0.010  0.00  0.00    +0.047 A 
ATOM      3  C   UNL     1      -1.164  -2.082   0.013  0.00  0.00    +0.135 A 
ATOM      4  C   UNL     1       0.042  -2.771   0.019  0.00  0.00    +0.063 A 
ATOM      5  C   UNL     1       1.242  -2.070  -0.008  0.00  0.00    +0.046 A 
ATOM      6  C   UNL     1       1.222  -0.690  -0.019  0.00  0.00    +0.057 A 
ATOM      7 CL   UNL     1       2.714   0.198  -0.052  0.00  0.00    -0.083 Cl
ATOM      8  N   UNL     1       0.057  -4.183   0.078  0.00  0.00    -0.286 N 
ATOM      9  C   UNL     1       1.185  -4.713   0.813  0.00  0.00    +0.112 C 
ATOM     10  C   UNL     1       1.109  -6.006   1.499  0.00  0.00    +0.019 C 
ATOM     11  C   UNL     1       0.493  -7.228   0.926  0.00  0.00    +0.002 C 
ATOM     12  C   UNL     1       0.179  -7.300  -0.540  0.00  0.00    +0.008 C 
ATOM     13  C   UNL     1      -0.629  -6.222  -1.109  0.00  0.00    +0.073 C 
ATOM     14  C   UNL     1      -0.914  -4.912  -0.509  0.00  0.00    +0.124 C 
ATOM     15  N   UNL     1      -2.159  -4.525  -0.584  0.00  0.00    -0.118 NA
ATOM     16  S   UNL     1      -2.643  -3.048  -0.015  0.00  0.00    +0.102 S 
ATOM     17  O   UNL     1      -3.045  -3.233   1.335  0.00  0.00    -0.146 OA
ATOM     18  O   UNL     1      -3.493  -2.478  -1.001  0.00  0.00    -0.146 OA
ENDROOT
BRANCH   1  19
ATOM     19  C   UNL     1      -0.018   1.469   0.010  0.00  0.00    +0.341 C 
ATOM     20  O   UNL     1       1.026   2.091   0.004  0.00  0.00    -0.245 OA
BRANCH  19  21
ATOM     21  O   UNL     1      -1.194   2.127   0.019  0.00  0.00    -0.452 OA
BRANCH  21  22
ATOM     22  C   UNL     1      -1.138   3.578   0.027  0.00  0.00    +0.328 C 
BRANCH  22  27
ATOM     23  N   UNL     1      -4.180   7.300   0.062  0.00  0.00    -0.296 N 
ATOM     24  C   UNL     1      -3.985   5.967   0.053  0.00  0.00    +0.306 C 
ATOM     25  O   UNL     1      -4.939   5.213   0.054  0.00  0.00    -0.252 OA
ATOM     26  N   UNL     1      -2.733   5.469   0.045  0.00  0.00    -0.237 N 
ATOM     27  C   UNL     1      -2.538   4.135   0.037  0.00  0.00    +0.258 C 
ATOM     28  O   UNL     1      -3.489   3.384   0.037  0.00  0.00    -0.272 OA
ATOM     29  H   UNL     1      -3.418   7.902   0.061  0.00  0.00    +0.151 HD
ATOM     30  H   UNL     1      -1.972   6.070   0.044  0.00  0.00    +0.159 HD
BRANCH  23  31
ATOM     31  C   UNL     1      -5.541   7.842   0.071  0.00  0.00    +0.132 C 
BRANCH  31  33
ATOM     32  C   UNL     1      -6.112  10.033  -0.844  0.00  0.00    +0.005 C 
ATOM     33  C   UNL     1      -5.482   9.348   0.079  0.00  0.00    -0.016 C 
ENDBRANCH  31  33
ENDBRANCH  23  31
ENDBRANCH  22  27
ENDBRANCH  21  22
ENDBRANCH  19  21
ENDBRANCH   1  19
TORSDOF 6
