REMARK  Name = ZINC54618463
REMARK  5 active torsions:
REMARK  status: ('A' for Active; 'I' for Inactive)
REMARK    1  A    between atoms: C_1  and  C_2
REMARK    2  A    between atoms: C_2  and  C_4
REMARK    3  A    between atoms: C_2  and  N_12
REMARK    4  A    between atoms: C_4  and  C_5
REMARK    5  A    between atoms: C_19  and  C_22
REMARK                            x       y       z     vdW  Elec       q    Type
REMARK                         _______ _______ _______ _____ _____    ______ ____
ROOT
ATOM      1  N   UNL     1      -1.466  -0.303  -2.311  0.00  0.00    -0.296 N 
ATOM      2  C   UNL     1      -2.051  -0.643  -1.145  0.00  0.00    +0.302 C 
ATOM      3  O   UNL     1      -1.409  -0.615  -0.112  0.00  0.00    -0.253 OA
ATOM      4  N   UNL     1      -3.346  -1.013  -1.123  0.00  0.00    -0.285 N 
ATOM      5  C   UNL     1      -4.031  -1.269   0.151  0.00  0.00    +0.109 C 
ATOM      6  C   UNL     1      -4.665  -2.663   0.099  0.00  0.00    +0.020 C 
ATOM      7  C   UNL     1      -5.571  -2.761  -1.131  0.00  0.00    +0.016 C 
ATOM      8  C   UNL     1      -4.736  -2.562  -2.398  0.00  0.00    +0.093 C 
ATOM      9  C   UNL     1      -4.103  -1.162  -2.374  0.00  0.00    +0.122 C 
ATOM     10  H   UNL     1      -1.956  -0.394  -3.143  0.00  0.00    +0.151 HD
ENDROOT
BRANCH   8  11
ATOM     11  C   UNL     1      -5.622  -2.692  -3.610  0.00  0.00    +0.223 C 
ATOM     12  O   UNL     1      -6.805  -2.920  -3.474  0.00  0.00    -0.275 OA
ATOM     13  N   UNL     1      -5.099  -2.553  -4.845  0.00  0.00    -0.264 N 
ATOM     14  C   UNL     1      -5.917  -2.673  -5.963  0.00  0.00    +0.164 A 
ATOM     15  N   UNL     1      -7.210  -2.910  -6.008  0.00  0.00    -0.233 NA
ATOM     16  C   UNL     1      -7.848  -2.995  -7.161  0.00  0.00    +0.120 A 
ATOM     17  C   UNL     1      -7.112  -2.827  -8.287  0.00  0.00    +0.068 A 
ATOM     18  S   UNL     1      -5.494  -2.541  -7.586  0.00  0.00    -0.061 S 
ATOM     19  H   UNL     1      -4.153  -2.370  -4.953  0.00  0.00    +0.157 HD
ENDBRANCH   8  11
BRANCH   1  21
ATOM     20  C   UNL     1       0.885  -0.974  -2.342  0.00  0.00    +0.028 C 
ATOM     21  C   UNL     1      -0.092   0.203  -2.321  0.00  0.00    +0.076 C 
BRANCH  21  22
ATOM     22  C   UNL     1       0.124   1.068  -3.564  0.00  0.00    +0.060 C 
BRANCH  22  23
ATOM     23  C   UNL     1      -0.751   2.292  -3.483  0.00  0.00    -0.010 A 
ATOM     24  C   UNL     1      -1.992   2.297  -4.093  0.00  0.00    +0.006 A 
ATOM     25  C   UNL     1      -2.795   3.419  -4.018  0.00  0.00    +0.000 A 
ATOM     26  C   UNL     1      -2.358   4.539  -3.334  0.00  0.00    +0.003 A 
ATOM     27  C   UNL     1      -1.119   4.536  -2.723  0.00  0.00    +0.038 A 
ATOM     28  C   UNL     1      -0.316   3.410  -2.792  0.00  0.00    +0.127 A 
ATOM     29  F   UNL     1       0.894   3.405  -2.192  0.00  0.00    -0.205 F 
ENDBRANCH  22  23
ENDBRANCH  21  22
ENDBRANCH   1  21
TORSDOF 4
