REMARK  Name = ZINC20096404
REMARK  5 active torsions:
REMARK  status: ('A' for Active; 'I' for Inactive)
REMARK    1  A    between atoms: C_3  and  N_25
REMARK    2  A    between atoms: C_6  and  C_7
REMARK    3  A    between atoms: N_9  and  C_10
REMARK    4  A    between atoms: C_15  and  C_16
REMARK    5  A    between atoms: C_16  and  C_18
REMARK                            x       y       z     vdW  Elec       q    Type
REMARK                         _______ _______ _______ _____ _____    ______ ____
ROOT
ATOM      1  C   UNL     1      -1.286   4.288  -2.388  0.00  0.00    +0.048 A 
ATOM      2  C   UNL     1      -1.471   5.659  -2.316  0.00  0.00    +0.073 A 
ATOM      3  C   UNL     1      -1.691   6.271  -1.090  0.00  0.00    +0.164 A 
ATOM      4  C   UNL     1      -1.728   5.509   0.079  0.00  0.00    +0.163 A 
ATOM      5  C   UNL     1      -1.549   4.142   0.021  0.00  0.00    +0.062 A 
ATOM      6  C   UNL     1      -1.321   3.516  -1.212  0.00  0.00    +0.043 A 
ATOM      7  O   UNL     1      -1.948   6.099   1.287  0.00  0.00    -0.485 OA
ATOM      8  C   UNL     1      -1.757   7.516   1.354  0.00  0.00    +0.270 C 
ATOM      9  C   UNL     1      -2.455   8.153   0.145  0.00  0.00    +0.270 C 
ATOM     10  O   UNL     1      -1.866   7.618  -1.045  0.00  0.00    -0.485 OA
ENDROOT
BRANCH   1  13
ATOM     11  C   UNL     1      -1.771   4.065  -4.700  0.00  0.00    +0.248 C 
ATOM     12  O   UNL     1      -2.549   4.995  -4.616  0.00  0.00    -0.270 OA
ATOM     13  N   UNL     1      -1.066   3.676  -3.619  0.00  0.00    -0.281 N 
ATOM     14  H   UNL     1      -0.318   2.875  -3.709  0.00  0.00    +0.155 HD
BRANCH  11  20
ATOM     15  C   UNL     1      -0.698   2.298  -6.090  0.00  0.00    +0.015 A 
ATOM     16  C   UNL     1      -0.544   1.643  -7.294  0.00  0.00    +0.033 A 
ATOM     17  C   UNL     1      -1.268   2.045  -8.402  0.00  0.00    +0.126 A 
ATOM     18  C   UNL     1      -2.156   3.103  -8.310  0.00  0.00    +0.033 A 
ATOM     19  C   UNL     1      -2.324   3.763  -7.110  0.00  0.00    +0.015 A 
ATOM     20  C   UNL     1      -1.596   3.362  -5.988  0.00  0.00    +0.037 A 
BRANCH  17  21
ATOM     21  N   UNL     1      -1.093   1.341  -9.693  0.00  0.00    +0.056 N 
ATOM     22  O   UNL     1      -1.729   1.693 -10.670  0.00  0.00    -0.126 OA
ATOM     23  O   UNL     1      -0.312   0.410  -9.777  0.00  0.00    -0.126 OA
ENDBRANCH  17  21
ENDBRANCH  11  20
ENDBRANCH   1  13
BRANCH   6  24
ATOM     24  C   UNL     1      -1.126   2.066  -1.277  0.00  0.00    +0.168 C 
ATOM     25  O   UNL     1      -0.871   1.535  -2.338  0.00  0.00    -0.292 OA
BRANCH  24  26
ATOM     26  C   UNL     1      -1.241   1.234  -0.026  0.00  0.00    +0.060 C 
ATOM     27  C   UNL     1      -0.185   0.150   0.201  0.00  0.00    +0.012 C 
ATOM     28  C   UNL     1      -1.612  -0.241  -0.190  0.00  0.00    +0.012 C 
ENDBRANCH  24  26
ENDBRANCH   6  24
TORSDOF 5
