REMARK  Name = ZINC12698813
REMARK  5 active torsions:
REMARK  status: ('A' for Active; 'I' for Inactive)
REMARK    1  A    between atoms: C_5  and  C_6
REMARK    2  A    between atoms: N_8  and  N_9
REMARK    3  A    between atoms: C_10  and  C_12
REMARK    4  A    between atoms: C_12  and  N_13
REMARK    5  A    between atoms: C_14  and  C_16
REMARK                            x       y       z     vdW  Elec       q    Type
REMARK                         _______ _______ _______ _____ _____    ______ ____
ROOT
ATOM      1  C   UNL     1       1.444   3.506  -0.005  0.00  0.00    +0.267 C 
ATOM      2  O   UNL     1       0.514   4.290  -0.004  0.00  0.00    -0.268 OA
ATOM      3  N   UNL     1       2.712   3.964  -0.012  0.00  0.00    -0.230 N 
ATOM      4  H   UNL     1       3.453   3.339  -0.013  0.00  0.00    +0.173 HD
ENDROOT
BRANCH   1   9
ATOM      5  C   UNL     1      -0.017   1.393   0.010  0.00  0.00    +0.024 A 
ATOM      6  C   UNL     1       0.002  -0.004   0.002  0.00  0.00    -0.036 A 
ATOM      7  C   UNL     1       1.210  -0.601   0.046  0.00  0.00    -0.006 A 
ATOM      8  S   UNL     1       2.348   0.711   0.002  0.00  0.00    -0.088 S 
ATOM      9  C   UNL     1       1.187   2.063   0.002  0.00  0.00    +0.076 A 
ATOM     10  C   UNL     1       1.637  -2.039   0.187  0.00  0.00    +0.043 C 
ATOM     11  C   UNL     1       0.445  -2.988   0.319  0.00  0.00    +0.005 C 
ATOM     12  C   UNL     1      -0.170  -3.273  -1.042  0.00  0.00    +0.000 C 
ATOM     13  C   UNL     1      -0.179  -2.057  -1.947  0.00  0.00    +0.000 C 
ATOM     14  C   UNL     1      -1.430  -1.246  -1.597  0.00  0.00    +0.005 C 
ATOM     15  C   UNL     1      -1.314  -0.753  -0.155  0.00  0.00    +0.036 C 
ENDBRANCH   1   9
BRANCH   3  16
ATOM     16  N   UNL     1       2.958   5.343  -0.019  0.00  0.00    -0.233 N 
ATOM     17  C   UNL     1       4.225   5.802  -0.026  0.00  0.00    +0.246 C 
ATOM     18  O   UNL     1       5.153   5.020  -0.027  0.00  0.00    -0.273 OA
ATOM     19  H   UNL     1       2.216   5.968  -0.018  0.00  0.00    +0.173 HD
BRANCH  17  20
ATOM     20  C   UNL     1       4.490   7.285  -0.033  0.00  0.00    +0.201 C 
BRANCH  20  21
ATOM     21  N   UNL     1       5.935   7.523  -0.040  0.00  0.00    -0.306 N 
ATOM     22  C   UNL     1       6.411   8.784  -0.047  0.00  0.00    +0.217 C 
ATOM     23  O   UNL     1       5.642   9.722  -0.047  0.00  0.00    -0.276 OA
ATOM     24  H   UNL     1       6.551   6.773  -0.040  0.00  0.00    +0.149 HD
BRANCH  22  25
ATOM     25  C   UNL     1       7.898   9.029  -0.055  0.00  0.00    +0.075 C 
ATOM     26  C   UNL     1       8.524   8.405   1.194  0.00  0.00    +0.013 C 
ATOM     27  C   UNL     1      10.033   8.654   1.187  0.00  0.00    +0.001 C 
ATOM     28  C   UNL     1      10.302  10.160   1.180  0.00  0.00    +0.000 C 
ATOM     29  C   UNL     1       9.676  10.784  -0.069  0.00  0.00    +0.001 C 
ATOM     30  C   UNL     1       8.166  10.536  -0.062  0.00  0.00    +0.013 C 
ENDBRANCH  22  25
ENDBRANCH  20  21
ENDBRANCH  17  20
ENDBRANCH   3  16
TORSDOF 5
