REMARK  Name = ZINC38621023
REMARK  8 active torsions:
REMARK  status: ('A' for Active; 'I' for Inactive)
REMARK    1  A    between atoms: C_4  and  C_7
REMARK    2  A    between atoms: C_7  and  N_8
REMARK    3  A    between atoms: C_9  and  C_11
REMARK    4  A    between atoms: N_13  and  C_14
REMARK    5  A    between atoms: C_14  and  C_15
REMARK    6  A    between atoms: C_15  and  C_17
REMARK    7  A    between atoms: C_15  and  N_26
REMARK    8  A    between atoms: N_29  and  C_32
REMARK                            x       y       z     vdW  Elec       q    Type
REMARK                         _______ _______ _______ _____ _____    ______ ____
ROOT
ATOM      1  C   UNL     1       8.719  -3.434   4.451  0.00  0.00    +0.104 C 
ENDROOT
BRANCH   1   2
ATOM      2  C   UNL     1       9.014  -3.913   5.849  0.00  0.00    -0.025 A 
ATOM      3  C   UNL     1       8.382  -5.040   6.340  0.00  0.00    +0.009 A 
ATOM      4  C   UNL     1       8.650  -5.483   7.622  0.00  0.00    +0.050 A 
ATOM      5  C   UNL     1       9.553  -4.798   8.418  0.00  0.00    +0.166 A 
ATOM      6  C   UNL     1      10.189  -3.662   7.924  0.00  0.00    +0.167 A 
ATOM      7  C   UNL     1       9.920  -3.227   6.636  0.00  0.00    +0.054 A 
ATOM      8  O   UNL     1      11.021  -3.173   8.889  0.00  0.00    -0.453 OA
ATOM      9  C   UNL     1      10.582  -3.780  10.119  0.00  0.00    +0.466 C 
ATOM     10  O   UNL     1       9.986  -5.020   9.694  0.00  0.00    -0.453 OA
ENDBRANCH   1   2
BRANCH   1  11
ATOM     11  N   UNL     1       8.599  -4.591   3.553  0.00  0.00    -0.291 NA
ATOM     12  C   UNL     1       9.821  -5.405   3.577  0.00  0.00    +0.104 C 
ATOM     13  C   UNL     1       9.591  -6.690   2.774  0.00  0.00    +0.120 C 
ATOM     14  N   UNL     1       9.114  -6.323   1.432  0.00  0.00    -0.325 N 
ATOM     15  C   UNL     1       7.976  -5.398   1.326  0.00  0.00    +0.120 C 
ATOM     16  C   UNL     1       8.270  -4.164   2.186  0.00  0.00    +0.104 C 
BRANCH  14  17
ATOM     17  C   UNL     1       9.728  -6.840   0.286  0.00  0.00    +0.065 A 
ATOM     18  C   UNL     1       9.270  -8.026  -0.273  0.00  0.00    +0.026 A 
ATOM     19  C   UNL     1       9.878  -8.534  -1.405  0.00  0.00    +0.002 A 
ATOM     20  C   UNL     1      10.941  -7.864  -1.982  0.00  0.00    +0.003 A 
ATOM     21  C   UNL     1      11.400  -6.683  -1.429  0.00  0.00    +0.040 A 
ATOM     22  C   UNL     1      10.793  -6.165  -0.299  0.00  0.00    +0.144 A 
ATOM     23  F   UNL     1      11.238  -5.008   0.238  0.00  0.00    -0.204 F 
ENDBRANCH  14  17
ENDBRANCH   1  11
BRANCH   1  24
ATOM     24  C   UNL     1       7.407  -2.647   4.447  0.00  0.00    +0.128 C 
BRANCH  24  27
ATOM     25  C   UNL     1       6.490  -0.655   5.509  0.00  0.00    +0.299 C 
ATOM     26  O   UNL     1       5.410  -0.932   5.030  0.00  0.00    -0.265 OA
ATOM     27  N   UNL     1       7.554  -1.449   5.277  0.00  0.00    -0.306 N 
ATOM     28  H   UNL     1       8.418  -1.227   5.660  0.00  0.00    +0.149 HD
BRANCH  25  30
ATOM     29  N   UNL     1       5.576   1.361   6.588  0.00  0.00    -0.303 N 
ATOM     30  C   UNL     1       6.641   0.567   6.356  0.00  0.00    +0.299 C 
ATOM     31  O   UNL     1       7.720   0.845   6.835  0.00  0.00    -0.265 OA
ATOM     32  H   UNL     1       4.713   1.139   6.205  0.00  0.00    +0.149 HD
BRANCH  29  33
ATOM     33  C   UNL     1       5.724   2.559   7.418  0.00  0.00    +0.140 C 
BRANCH  33  37
ATOM     34  C   UNL     1       1.962   4.564   7.709  0.00  0.00    +0.000 A 
ATOM     35  C   UNL     1       2.304   3.596   8.635  0.00  0.00    +0.000 A 
ATOM     36  C   UNL     1       3.521   2.948   8.541  0.00  0.00    +0.005 A 
ATOM     37  C   UNL     1       4.396   3.266   7.520  0.00  0.00    -0.030 A 
ATOM     38  C   UNL     1       4.055   4.232   6.593  0.00  0.00    +0.005 A 
ATOM     39  C   UNL     1       2.838   4.882   6.688  0.00  0.00    +0.000 A 
ENDBRANCH  33  37
ENDBRANCH  29  33
ENDBRANCH  25  30
ENDBRANCH  24  27
ENDBRANCH   1  24
TORSDOF 8
