REMARK  Name = ZINC01073904
REMARK  12 active torsions:
REMARK  status: ('A' for Active; 'I' for Inactive)
REMARK    1  A    between atoms: C_1  and  C_2
REMARK    2  A    between atoms: C_2  and  C_3
REMARK    3  A    between atoms: C_3  and  C_4
REMARK    4  A    between atoms: C_6  and  C_14
REMARK    5  A    between atoms: C_9  and  O_10
REMARK    6  A    between atoms: O_10  and  C_11
REMARK    7  A    between atoms: C_11  and  C_12
REMARK    8  A    between atoms: C_11  and  C_13
REMARK    9  A    between atoms: C_19  and  O_21
REMARK   10  A    between atoms: O_21  and  C_22
REMARK   11  A    between atoms: C_24  and  N_28
REMARK   12  A    between atoms: C_25  and  C_26
REMARK                            x       y       z     vdW  Elec       q    Type
REMARK                         _______ _______ _______ _____ _____    ______ ____
ROOT
ATOM      1  C   UNL     1       2.610  -4.818   0.533  0.00  0.00    +0.116 C 
ATOM      2  C   UNL     1       2.011  -5.502   1.733  0.00  0.00    +0.118 A 
ATOM      3  C   UNL     1       1.839  -6.845   1.806  0.00  0.00    +0.219 A 
ATOM      4  O   UNL     1       1.282  -7.114   2.993  0.00  0.00    -0.394 OA
ATOM      5  C   UNL     1       1.123  -5.944   3.642  0.00  0.00    +0.397 A 
ATOM      6  N   UNL     1       1.563  -4.973   2.879  0.00  0.00    -0.177 NA
ATOM      7  N   UNL     1       2.217  -7.701   0.768  0.00  0.00    -0.272 N 
ATOM      8  C   UNL     1       3.013  -7.183  -0.229  0.00  0.00    +0.102 C 
ATOM      9  C   UNL     1       3.228  -5.851  -0.371  0.00  0.00    +0.078 C 
ATOM     10  H   UNL     1       1.928  -8.627   0.750  0.00  0.00    +0.156 HD
ENDROOT
BRANCH   1  13
ATOM     11  C   UNL     1       0.639  -2.026  -1.071  0.00  0.00    -0.005 A 
ATOM     12  C   UNL     1       1.627  -2.708  -0.386  0.00  0.00    +0.011 A 
ATOM     13  C   UNL     1       1.531  -4.076  -0.214  0.00  0.00    -0.033 A 
ATOM     14  C   UNL     1       0.448  -4.766  -0.726  0.00  0.00    +0.008 A 
ATOM     15  C   UNL     1      -0.542  -4.088  -1.411  0.00  0.00    +0.046 A 
ATOM     16  C   UNL     1      -0.451  -2.714  -1.581  0.00  0.00    +0.124 A 
BRANCH  11  17
ATOM     17  C   UNL     1       0.745  -0.534  -1.258  0.00  0.00    +0.038 C 
BRANCH  17  19
ATOM     18  C   UNL     1       0.071   1.690  -0.340  0.00  0.00    +0.004 C 
ATOM     19  C   UNL     1      -0.035   0.175  -0.149  0.00  0.00    +0.001 C 
ENDBRANCH  17  19
ENDBRANCH  11  17
BRANCH  16  20
ATOM     20  O   UNL     1      -1.427  -2.045  -2.250  0.00  0.00    -0.489 OA
BRANCH  20  21
ATOM     21  C   UNL     1      -2.455  -2.831  -2.855  0.00  0.00    +0.167 C 
ATOM     22  C   UNL     1      -3.539  -3.137  -1.819  0.00  0.00    +0.051 C 
ATOM     23  C   UNL     1      -3.070  -2.055  -4.021  0.00  0.00    +0.051 C 
ENDBRANCH  20  21
ENDBRANCH  16  20
ENDBRANCH   1  13
BRANCH   8  24
ATOM     24  N   UNL     1       3.614  -8.048  -1.112  0.00  0.00    -0.346 N 
ATOM     25  H   UNL     1       3.473  -9.004  -1.027  0.00  0.00    +0.144 HD
ATOM     26  H   UNL     1       4.179  -7.703  -1.821  0.00  0.00    +0.144 HD
ENDBRANCH   8  24
BRANCH   5  27
ATOM     27  O   UNL     1       0.594  -5.795   4.880  0.00  0.00    -0.453 OA
ATOM     28  C   UNL     1       0.169  -6.983   5.551  0.00  0.00    +0.282 C 
ENDBRANCH   5  27
BRANCH   9  29
ATOM     29  C   UNL     1       4.082  -5.406  -1.431  0.00  0.00    +0.099 C 
ATOM     30  N   UNL     1       4.759  -5.053  -2.272  0.00  0.00    -0.191 NA
ENDBRANCH   9  29
TORSDOF 8
