REMARK  Name = ZINC45958378
REMARK  7 active torsions:
REMARK  status: ('A' for Active; 'I' for Inactive)
REMARK    1  A    between atoms: C_1  and  C_2
REMARK    2  A    between atoms: C_4  and  C_29
REMARK    3  A    between atoms: C_6  and  N_8
REMARK    4  A    between atoms: N_11  and  C_12
REMARK    5  A    between atoms: C_12  and  C_13
REMARK    6  A    between atoms: C_21  and  C_28
REMARK    7  A    between atoms: C_24  and  C_27
REMARK                            x       y       z     vdW  Elec       q    Type
REMARK                         _______ _______ _______ _____ _____    ______ ____
ROOT
ATOM      1  C   UNL     1       0.370  -2.100   5.987  0.00  0.00    +0.142 C 
ENDROOT
BRANCH   1   2
ATOM      2  C   UNL     1       0.488  -3.089   7.118  0.00  0.00    -0.014 A 
ATOM      3  C   UNL     1      -0.650  -3.554   7.765  0.00  0.00    +0.010 A 
ATOM      4  C   UNL     1      -0.499  -4.461   8.798  0.00  0.00    +0.042 A 
ATOM      5  C   UNL     1       0.781  -4.875   9.152  0.00  0.00    +0.099 A 
ATOM      6  N   UNL     1       1.842  -4.408   8.512  0.00  0.00    -0.349 N 
ATOM      7  C   UNL     1       1.727  -3.547   7.519  0.00  0.00    +0.089 A 
ATOM      8  N   UNL     1       0.948  -5.786  10.189  0.00  0.00    -0.312 N 
ATOM      9  C   UNL     1       2.291  -6.138  10.679  0.00  0.00    +0.137 C 
ATOM     10  C   UNL     1       2.303  -5.988  12.204  0.00  0.00    +0.133 C 
ATOM     11  O   UNL     1       1.211  -6.726  12.759  0.00  0.00    -0.371 OA
ATOM     12  C   UNL     1      -0.077  -6.262  12.347  0.00  0.00    +0.133 C 
ATOM     13  C   UNL     1      -0.212  -6.422  10.833  0.00  0.00    +0.137 C 
ATOM     14  C   UNL     1      -0.232  -4.786  12.719  0.00  0.00    +0.039 C 
ATOM     15  C   UNL     1       3.621  -6.530  12.761  0.00  0.00    +0.039 C 
ATOM     16  H   UNL     1       2.725  -4.710   8.776  0.00  0.00    +0.167 HD
ENDBRANCH   1   2
BRANCH   1  20
ATOM     17  N   UNL     1      -0.002  -2.802   2.397  0.00  0.00    -0.269 N 
ATOM     18  C   UNL     1       0.119  -2.138   3.564  0.00  0.00    +0.304 C 
ATOM     19  O   UNL     1       0.120  -0.922   3.575  0.00  0.00    -0.252 OA
ATOM     20  N   UNL     1       0.239  -2.822   4.719  0.00  0.00    -0.295 N 
ATOM     21  H   UNL     1      -0.079  -3.769   2.395  0.00  0.00    +0.156 HD
ATOM     22  H   UNL     1       0.238  -3.792   4.711  0.00  0.00    +0.151 HD
BRANCH  17  28
ATOM     23  C   UNL     1      -1.609  -2.363  -2.228  0.00  0.00    +0.044 C 
ATOM     24  C   UNL     1      -0.786  -1.861  -1.070  0.00  0.00    -0.048 A 
ATOM     25  C   UNL     1      -0.044  -0.701  -1.200  0.00  0.00    +0.006 A 
ATOM     26  C   UNL     1       0.712  -0.237  -0.140  0.00  0.00    -0.048 A 
ATOM     27  C   UNL     1       0.728  -0.931   1.054  0.00  0.00    +0.026 A 
ATOM     28  C   UNL     1      -0.016  -2.096   1.189  0.00  0.00    +0.035 A 
ATOM     29  C   UNL     1      -0.779  -2.556   0.124  0.00  0.00    +0.026 A 
ATOM     30  C   UNL     1       1.519   1.027  -0.286  0.00  0.00    +0.044 C 
ENDBRANCH  17  28
ENDBRANCH   1  20
TORSDOF 3
