REMARK  Name = ZINC19371662
REMARK  7 active torsions:
REMARK  status: ('A' for Active; 'I' for Inactive)
REMARK    1  A    between atoms: C_3  and  C_8
REMARK    2  A    between atoms: C_15  and  O_29
REMARK    3  A    between atoms: C_16  and  C_19
REMARK    4  A    between atoms: C_19  and  N_20
REMARK    5  A    between atoms: N_23  and  C_26
REMARK    6  A    between atoms: C_26  and  C_27
REMARK    7  A    between atoms: C_27  and  O_28
REMARK                            x       y       z     vdW  Elec       q    Type
REMARK                         _______ _______ _______ _____ _____    ______ ____
ROOT
ATOM      1  C   UNL     1       0.405  -0.387  -0.799  0.00  0.00    +0.058 C 
ATOM      2  C   UNL     1      -0.763  -1.037  -0.572  0.00  0.00    +0.176 C 
ATOM      3  C   UNL     1      -0.946  -2.495  -0.489  0.00  0.00    +0.231 C 
ATOM      4  O   UNL     1      -0.097  -3.361  -0.607  0.00  0.00    -0.283 OA
ATOM      5  C   UNL     1      -2.386  -2.673  -0.226  0.00  0.00    +0.068 A 
ATOM      6  C   UNL     1      -3.190  -3.798  -0.043  0.00  0.00    +0.019 A 
ATOM      7  C   UNL     1      -4.529  -3.648   0.182  0.00  0.00    +0.046 A 
ATOM      8  C   UNL     1      -5.092  -2.375   0.229  0.00  0.00    +0.122 A 
ATOM      9  C   UNL     1      -4.305  -1.249   0.048  0.00  0.00    +0.020 A 
ATOM     10  C   UNL     1      -2.942  -1.384  -0.182  0.00  0.00    +0.144 A 
ATOM     11  O   UNL     1      -1.975  -0.463  -0.385  0.00  0.00    -0.451 OA
ENDROOT
BRANCH   1  14
ATOM     12  C   UNL     1      -0.674   3.195  -0.536  0.00  0.00    +0.002 A 
ATOM     13  C   UNL     1      -0.727   1.818  -0.592  0.00  0.00    +0.008 A 
ATOM     14  C   UNL     1       0.453   1.081  -0.740  0.00  0.00    -0.020 A 
ATOM     15  C   UNL     1       1.680   1.748  -0.824  0.00  0.00    +0.023 A 
ATOM     16  C   UNL     1       1.716   3.126  -0.772  0.00  0.00    +0.018 A 
ATOM     17  C   UNL     1       0.542   3.848  -0.625  0.00  0.00    +0.015 A 
ATOM     18 BR   UNL     1       3.371   4.032  -0.893  0.00  0.00    -0.050 Br
ENDBRANCH   1  14
BRANCH   8  19
ATOM     19  O   UNL     1      -6.424  -2.236   0.452  0.00  0.00    -0.506 OA
ATOM     20  H   UNL     1      -6.874  -1.233   0.490  0.00  0.00    +0.292 HD
ENDBRANCH   8  19
BRANCH   9  21
ATOM     21  C   UNL     1      -4.928   0.122   0.101  0.00  0.00    -0.035 C 
BRANCH  21  22
ATOM     22  N   UNL     1      -5.366   0.513  -1.245  0.00  0.00    +0.384 N 
ATOM     23  C   UNL     1      -4.216   0.690  -2.143  0.00  0.00    -0.063 C 
ATOM     24  C   UNL     1      -4.717   1.018  -3.551  0.00  0.00    +0.066 C 
ATOM     25  N   UNL     1      -5.537   2.237  -3.505  0.00  0.00    -0.304 NA
ATOM     26  C   UNL     1      -6.687   2.060  -2.607  0.00  0.00    +0.066 C 
ATOM     27  C   UNL     1      -6.186   1.732  -1.199  0.00  0.00    -0.063 C 
ATOM     28  H   UNL     1      -5.989  -0.300  -1.646  0.00  0.00    -0.081 HD
BRANCH  25  29
ATOM     29  C   UNL     1      -5.975   2.628  -4.851  0.00  0.00    +0.112 C 
BRANCH  29  30
ATOM     30  C   UNL     1      -6.656   1.438  -5.532  0.00  0.00    +0.171 C 
BRANCH  30  31
ATOM     31  O   UNL     1      -7.874   1.134  -4.851  0.00  0.00    -0.394 OA
ATOM     32  H   UNL     1      -8.506   0.303  -5.198  0.00  0.00    +0.209 HD
ENDBRANCH  30  31
ENDBRANCH  29  30
ENDBRANCH  25  29
ENDBRANCH  21  22
ENDBRANCH   9  21
TORSDOF 7
