REMARK  Name = ZINC09470926
REMARK  11 active torsions:
REMARK  status: ('A' for Active; 'I' for Inactive)
REMARK    1  A    between atoms: C_1  and  N_2
REMARK    2  A    between atoms: N_2  and  C_3
REMARK    3  A    between atoms: N_2  and  C_4
REMARK    4  A    between atoms: C_7  and  C_10
REMARK    5  A    between atoms: C_12  and  C_26
REMARK    6  A    between atoms: C_13  and  O_25
REMARK    7  A    between atoms: N_16  and  C_17
REMARK    8  A    between atoms: C_17  and  C_18
REMARK    9  A    between atoms: C_18  and  C_19
REMARK   10  A    between atoms: C_19  and  N_70
REMARK   11  A    between atoms: C_26  and  C_28
REMARK                            x       y       z     vdW  Elec       q    Type
REMARK                         _______ _______ _______ _____ _____    ______ ____
ROOT
ATOM      1  C   UNL     1      -2.656   1.103   0.213  0.00  0.00    +0.144 C 
ATOM      2  C   UNL     1      -3.474   0.963   1.475  0.00  0.00    +0.071 C 
ATOM      3  C   UNL     1      -4.734   1.349   1.169  0.00  0.00    +0.188 C 
ATOM      4  C   UNL     1      -4.789   1.744  -0.254  0.00  0.00    +0.282 C 
ATOM      5  O   UNL     1      -5.783   2.140  -0.830  0.00  0.00    -0.267 OA
ATOM      6  N   UNL     1      -3.576   1.602  -0.817  0.00  0.00    -0.284 N 
ENDROOT
BRANCH   1  10
ATOM      7  C   UNL     1       0.521   3.897   0.816  0.00  0.00    +0.029 A 
ATOM      8  C   UNL     1       0.800   2.542   0.693  0.00  0.00    +0.023 A 
ATOM      9  C   UNL     1      -0.230   1.641   0.502  0.00  0.00    +0.007 A 
ATOM     10  C   UNL     1      -1.536   2.088   0.428  0.00  0.00    -0.022 A 
ATOM     11  C   UNL     1      -1.818   3.436   0.556  0.00  0.00    +0.007 A 
ATOM     12  C   UNL     1      -0.793   4.342   0.747  0.00  0.00    +0.023 A 
BRANCH   7  14
ATOM     13  C   UNL     1       2.933   4.332   1.185  0.00  0.00    +0.129 C 
ATOM     14  N   UNL     1       1.560   4.811   1.010  0.00  0.00    -0.336 N 
ATOM     15  C   UNL     1       1.276   6.247   1.039  0.00  0.00    +0.129 C 
ENDBRANCH   7  14
ENDBRANCH   1  10
BRANCH   3  16
ATOM     16  O   UNL     1      -5.778   1.371   2.030  0.00  0.00    -0.502 OA
ATOM     17  H   UNL     1      -6.596   1.696   1.554  0.00  0.00    +0.292 HD
ENDBRANCH   3  16
BRANCH   2  18
ATOM     18  C   UNL     1      -2.995   0.496   2.780  0.00  0.00    +0.195 C 
ATOM     19  O   UNL     1      -2.972   1.259   3.728  0.00  0.00    -0.287 OA
BRANCH  18  20
ATOM     20  C   UNL     1      -2.541  -0.899   2.944  0.00  0.00    +0.026 A 
ATOM     21  C   UNL     1      -2.649  -1.801   1.881  0.00  0.00    +0.015 A 
ATOM     22  C   UNL     1      -2.220  -3.100   2.035  0.00  0.00    +0.050 A 
ATOM     23  C   UNL     1      -1.689  -3.524   3.249  0.00  0.00    +0.162 A 
ATOM     24  C   UNL     1      -1.581  -2.631   4.313  0.00  0.00    +0.163 A 
ATOM     25  C   UNL     1      -2.006  -1.324   4.163  0.00  0.00    +0.061 A 
ATOM     26  O   UNL     1      -1.056  -3.028   5.505  0.00  0.00    -0.485 OA
ATOM     27  C   UNL     1      -0.984  -4.438   5.738  0.00  0.00    +0.270 C 
ATOM     28  C   UNL     1      -0.411  -5.105   4.480  0.00  0.00    +0.270 C 
ATOM     29  O   UNL     1      -1.283  -4.814   3.382  0.00  0.00    -0.485 OA
ENDBRANCH  18  20
ENDBRANCH   2  18
BRANCH   6  30
ATOM     30  C   UNL     1      -3.233   1.893  -2.211  0.00  0.00    +0.107 C 
BRANCH  30  31
ATOM     31  C   UNL     1      -3.441   0.638  -3.061  0.00  0.00    +0.000 C 
BRANCH  31  32
ATOM     32  C   UNL     1      -3.083   0.942  -4.517  0.00  0.00    -0.077 C 
BRANCH  32  38
ATOM     33  C   UNL     1      -2.330  -1.317  -4.957  0.00  0.00    -0.050 C 
ATOM     34  C   UNL     1      -2.612  -2.572  -5.788  0.00  0.00    +0.141 C 
ATOM     35  O   UNL     1      -2.538  -2.244  -7.178  0.00  0.00    -0.383 OA
ATOM     36  C   UNL     1      -3.453  -1.221  -7.578  0.00  0.00    +0.141 C 
ATOM     37  C   UNL     1      -3.180   0.047  -6.766  0.00  0.00    -0.050 C 
ATOM     38  N   UNL     1      -3.308  -0.273  -5.329  0.00  0.00    +0.383 N 
ATOM     39  H   UNL     1      -4.256  -0.625  -5.148  0.00  0.00    -0.082 HD
ENDBRANCH  32  38
ENDBRANCH  31  32
ENDBRANCH  30  31
ENDBRANCH   6  30
TORSDOF 9
