REMARK  Name = ZINC20798661
REMARK  11 active torsions:
REMARK  status: ('A' for Active; 'I' for Inactive)
REMARK    1  A    between atoms: C_1  and  C_2
REMARK    2  A    between atoms: C_2  and  O_3
REMARK    3  A    between atoms: O_3  and  C_4
REMARK    4  A    between atoms: C_4  and  C_6
REMARK    5  A    between atoms: C_7  and  C_34
REMARK    6  A    between atoms: N_8  and  C_27
REMARK    7  A    between atoms: C_12  and  C_14
REMARK    8  A    between atoms: N_16  and  C_17
REMARK    9  A    between atoms: C_20  and  N_24
REMARK   10  A    between atoms: C_22  and  C_23
REMARK   11  A    between atoms: C_30  and  C_33
REMARK                            x       y       z     vdW  Elec       q    Type
REMARK                         _______ _______ _______ _____ _____    ______ ____
ROOT
ATOM      1  C   UNL     1       1.551   1.773  -0.360  0.00  0.00    +0.066 C 
ATOM      2  C   UNL     1       1.608   2.995  -0.920  0.00  0.00    +0.026 C 
ATOM      3  N   UNL     1       0.479   3.591  -1.423  0.00  0.00    -0.244 N 
ATOM      4  C   UNL     1      -0.613   2.861  -1.717  0.00  0.00    +0.225 C 
ATOM      5  O   UNL     1      -1.602   3.406  -2.160  0.00  0.00    -0.275 OA
ATOM      6  C   UNL     1      -0.613   1.371  -1.499  0.00  0.00    +0.114 C 
ATOM      7  C   UNL     1       0.240   1.036  -0.273  0.00  0.00    +0.122 C 
ATOM      8  C   UNL     1       2.928   3.717  -0.998  0.00  0.00    +0.062 C 
ENDROOT
BRANCH   3   9
ATOM      9  C   UNL     1       0.463   4.976  -1.633  0.00  0.00    +0.041 A 
ATOM     10  C   UNL     1       0.162   5.486  -2.889  0.00  0.00    +0.024 A 
ATOM     11  C   UNL     1       0.141   6.852  -3.091  0.00  0.00    +0.005 A 
ATOM     12  C   UNL     1       0.430   7.712  -2.046  0.00  0.00    -0.050 A 
ATOM     13  C   UNL     1       0.735   7.206  -0.796  0.00  0.00    +0.005 A 
ATOM     14  C   UNL     1       0.752   5.841  -0.586  0.00  0.00    +0.024 A 
ATOM     15  C   UNL     1       0.412   9.201  -2.272  0.00  0.00    +0.044 C 
ENDBRANCH   3   9
BRANCH   7  16
ATOM     16  C   UNL     1      -0.491   1.455   0.977  0.00  0.00    +0.225 C 
ATOM     17  O   UNL     1       0.005   2.271   1.724  0.00  0.00    -0.275 OA
ATOM     18  N   UNL     1      -1.695   0.922   1.264  0.00  0.00    -0.285 N 
ATOM     19  H   UNL     1      -2.188   0.255   0.541  0.00  0.00    +0.155 HD
BRANCH  18  20
ATOM     20  C   UNL     1      -2.319   1.218   2.481  0.00  0.00    +0.036 A 
ATOM     21  C   UNL     1      -1.557   1.600   3.578  0.00  0.00    +0.026 A 
ATOM     22  C   UNL     1      -2.176   1.891   4.778  0.00  0.00    +0.034 A 
ATOM     23  C   UNL     1      -3.552   1.803   4.888  0.00  0.00    +0.127 A 
ATOM     24  C   UNL     1      -4.312   1.423   3.798  0.00  0.00    +0.038 A 
ATOM     25  C   UNL     1      -3.700   1.136   2.593  0.00  0.00    -0.027 A 
ATOM     26  C   UNL     1      -4.530   0.728   1.403  0.00  0.00    +0.046 C 
BRANCH  23  27
ATOM     27  N   UNL     1      -4.211   2.115   6.176  0.00  0.00    +0.056 N 
ATOM     28  O   UNL     1      -3.542   2.449   7.137  0.00  0.00    -0.126 OA
ATOM     29  O   UNL     1      -5.423   2.038   6.274  0.00  0.00    -0.126 OA
ENDBRANCH  23  27
ENDBRANCH  18  20
ENDBRANCH   7  16
BRANCH   1  30
ATOM     30  C   UNL     1       2.728   1.178   0.152  0.00  0.00    +0.337 C 
ATOM     31  O   UNL     1       3.804   1.727  -0.001  0.00  0.00    -0.245 OA
BRANCH  30  32
ATOM     32  O   UNL     1       2.659   0.002   0.810  0.00  0.00    -0.462 OA
BRANCH  32  34
ATOM     33  C   UNL     1       3.609  -1.867   2.012  0.00  0.00    +0.048 C 
ATOM     34  C   UNL     1       3.886  -0.541   1.300  0.00  0.00    +0.229 C 
ENDBRANCH  32  34
ENDBRANCH  30  32
ENDBRANCH   1  30
TORSDOF 7
