REMARK  Name = ZINC08893162
REMARK  9 active torsions:
REMARK  status: ('A' for Active; 'I' for Inactive)
REMARK    1  A    between atoms: C_1  and  C_2
REMARK    2  A    between atoms: C_2  and  O_3
REMARK    3  A    between atoms: O_3  and  C_4
REMARK    4  A    between atoms: C_12  and  N_17
REMARK    5  A    between atoms: C_13  and  C_14
REMARK    6  A    between atoms: C_18  and  C_20
REMARK    7  A    between atoms: N_25  and  S_26
REMARK    8  A    between atoms: S_26  and  C_29
REMARK    9  A    between atoms: C_32  and  C_35
REMARK                            x       y       z     vdW  Elec       q    Type
REMARK                         _______ _______ _______ _____ _____    ______ ____
ROOT
ATOM      1  C   UNL     1      -1.382  -6.443   6.941  0.00  0.00    +0.403 C 
ATOM      2  O   UNL     1      -0.581  -7.160   7.507  0.00  0.00    -0.226 OA
ATOM      3  N   UNL     1      -1.179  -5.111   6.895  0.00  0.00    -0.262 N 
ATOM      4  C   UNL     1       0.002  -4.497   7.521  0.00  0.00    +0.116 C 
ATOM      5  C   UNL     1       0.879  -3.859   6.442  0.00  0.00    +0.056 C 
ATOM      6  C   UNL     1       0.007  -3.018   5.519  0.00  0.00    -0.020 A 
ATOM      7  C   UNL     1      -1.329  -3.211   5.447  0.00  0.00    +0.013 A 
ATOM      8  S   UNL     1      -1.897  -2.027   4.261  0.00  0.00    -0.076 S 
ATOM      9  C   UNL     1      -0.384  -1.280   3.865  0.00  0.00    +0.084 A 
ATOM     10  C   UNL     1       0.525  -1.970   4.655  0.00  0.00    +0.068 A 
ATOM     11  C   UNL     1      -2.135  -4.214   6.216  0.00  0.00    +0.153 C 
ENDROOT
BRANCH  10  12
ATOM     12  C   UNL     1       1.955  -1.651   4.622  0.00  0.00    +0.244 C 
ATOM     13  O   UNL     1       2.410  -0.816   5.383  0.00  0.00    -0.270 OA
ATOM     14  N   UNL     1       2.767  -2.281   3.751  0.00  0.00    -0.325 N 
ATOM     15  H   UNL     1       2.405  -2.946   3.145  0.00  0.00    +0.145 HD
ATOM     16  H   UNL     1       3.713  -2.070   3.729  0.00  0.00    +0.145 HD
ENDBRANCH  10  12
BRANCH   9  17
ATOM     17  N   UNL     1      -0.140  -0.249   2.971  0.00  0.00    -0.278 N 
ATOM     18  C   UNL     1      -1.159   0.300   2.281  0.00  0.00    +0.236 C 
ATOM     19  O   UNL     1      -2.290  -0.108   2.442  0.00  0.00    -0.274 OA
ATOM     20  H   UNL     1       0.764   0.078   2.843  0.00  0.00    +0.155 HD
BRANCH  18  21
ATOM     21  C   UNL     1      -0.894   1.421   1.310  0.00  0.00    +0.166 C 
ATOM     22  C   UNL     1      -0.524   0.842  -0.072  0.00  0.00    +0.031 C 
ATOM     23  C   UNL     1      -1.225   1.812  -1.059  0.00  0.00    +0.019 C 
ATOM     24  C   UNL     1      -2.523   2.156  -0.288  0.00  0.00    +0.110 C 
ATOM     25  N   UNL     1      -2.114   2.230   1.127  0.00  0.00    -0.165 NA
BRANCH  25  26
ATOM     26  S   UNL     1      -2.894   3.080   2.314  0.00  0.00    +0.062 S 
ATOM     27  O   UNL     1      -4.269   3.108   1.957  0.00  0.00    -0.153 OA
ATOM     28  O   UNL     1      -2.439   2.555   3.554  0.00  0.00    -0.153 OA
BRANCH  26  29
ATOM     29  C   UNL     1      -2.318   4.743   2.229  0.00  0.00    +0.106 A 
ATOM     30  C   UNL     1      -1.151   5.104   2.877  0.00  0.00    +0.029 A 
ATOM     31  C   UNL     1      -0.696   6.407   2.806  0.00  0.00    +0.005 A 
ATOM     32  C   UNL     1      -1.414   7.352   2.096  0.00  0.00    -0.050 A 
ATOM     33  C   UNL     1      -2.583   6.992   1.454  0.00  0.00    +0.005 A 
ATOM     34  C   UNL     1      -3.035   5.688   1.520  0.00  0.00    +0.029 A 
ATOM     35  C   UNL     1      -0.921   8.775   2.025  0.00  0.00    +0.044 C 
ENDBRANCH  26  29
ENDBRANCH  25  26
ENDBRANCH  18  21
ENDBRANCH   9  17
BRANCH   1  36
ATOM     36  O   UNL     1      -2.472  -6.978   6.360  0.00  0.00    -0.451 OA
BRANCH  36  38
ATOM     37  C   UNL     1      -3.913  -8.840   5.736  0.00  0.00    +0.048 C 
ATOM     38  C   UNL     1      -2.626  -8.419   6.449  0.00  0.00    +0.230 C 
ENDBRANCH  36  38
ENDBRANCH   1  36
TORSDOF 7
