REMARK  Name = ZINC09837032
REMARK  6 active torsions:
REMARK  status: ('A' for Active; 'I' for Inactive)
REMARK    1  A    between atoms: C_5  and  C_7
REMARK    2  A    between atoms: C_10  and  S_13
REMARK    3  A    between atoms: S_13  and  C_14
REMARK    4  A    between atoms: C_14  and  C_15
REMARK    5  A    between atoms: N_17  and  N_18
REMARK    6  A    between atoms: C_19  and  C_21
REMARK                            x       y       z     vdW  Elec       q    Type
REMARK                         _______ _______ _______ _____ _____    ______ ____
ROOT
ATOM      1  C   UNL     1       4.839   1.171  -0.038  0.00  0.00    +0.174 C 
ENDROOT
BRANCH   1   2
ATOM      2  C   UNL     1       3.524   1.907  -0.021  0.00  0.00    +0.239 C 
ATOM      3  O   UNL     1       3.508   3.120  -0.015  0.00  0.00    -0.273 OA
ATOM      4  N   UNL     1       2.366   1.217  -0.014  0.00  0.00    -0.233 N 
ATOM      5  H   UNL     1       2.379   0.247  -0.019  0.00  0.00    +0.173 HD
BRANCH   4   6
ATOM      6  N   UNL     1       1.143   1.901   0.001  0.00  0.00    -0.230 N 
ATOM      7  C   UNL     1      -0.014   1.212   0.009  0.00  0.00    +0.260 C 
ATOM      8  O   UNL     1       0.002  -0.004   0.002  0.00  0.00    -0.269 OA
ATOM      9  H   UNL     1       1.130   2.871   0.007  0.00  0.00    +0.173 HD
BRANCH   7  10
ATOM     10  C   UNL     1      -1.304   1.933   0.019  0.00  0.00    +0.038 A 
ATOM     11  C   UNL     1      -1.325   3.329   0.032  0.00  0.00    +0.016 A 
ATOM     12  C   UNL     1      -2.531   3.997   0.036  0.00  0.00    +0.039 A 
ATOM     13  C   UNL     1      -3.721   3.285   0.038  0.00  0.00    +0.123 A 
ATOM     14  C   UNL     1      -3.705   1.898   0.030  0.00  0.00    +0.039 A 
ATOM     15  C   UNL     1      -2.505   1.220   0.021  0.00  0.00    +0.016 A 
ATOM     16  F   UNL     1      -4.900   3.944   0.048  0.00  0.00    -0.205 F 
ENDBRANCH   7  10
ENDBRANCH   4   6
ENDBRANCH   1   2
BRANCH   1  17
ATOM     17  S   UNL     1       6.199   2.366  -0.044  0.00  0.00    -0.077 S 
BRANCH  17  21
ATOM     18  C   UNL     1       9.594   0.432  -0.087  0.00  0.00    +0.165 A 
ATOM     19  N   UNL     1       8.894   1.617  -0.074  0.00  0.00    -0.316 N 
ATOM     20  H   UNL     1       9.261   2.514  -0.073  0.00  0.00    +0.169 HD
ATOM     21  C   UNL     1       7.574   1.265  -0.064  0.00  0.00    +0.190 A 
ATOM     22  N   UNL     1       7.521  -0.048  -0.064  0.00  0.00    -0.122 NA
ATOM     23  N   UNL     1       8.709  -0.538  -0.083  0.00  0.00    -0.128 NA
BRANCH  18  28
ATOM     24  C   UNL     1      13.010  -1.127  -0.126  0.00  0.00    +0.001 A 
ATOM     25  C   UNL     1      13.820  -0.005  -0.128  0.00  0.00    +0.003 A 
ATOM     26  C   UNL     1      13.260   1.260  -0.116  0.00  0.00    +0.039 A 
ATOM     27  C   UNL     1      11.886   1.410  -0.108  0.00  0.00    +0.134 A 
ATOM     28  C   UNL     1      11.064   0.280  -0.101  0.00  0.00    +0.054 A 
ATOM     29  C   UNL     1      11.637  -0.992  -0.113  0.00  0.00    +0.014 A 
ATOM     30  F   UNL     1      11.340   2.646  -0.103  0.00  0.00    -0.205 F 
ENDBRANCH  18  28
ENDBRANCH  17  21
ENDBRANCH   1  17
TORSDOF 6
