REMARK  Name = ZINC14335131
REMARK  8 active torsions:
REMARK  status: ('A' for Active; 'I' for Inactive)
REMARK    1  A    between atoms: C_5  and  N_7
REMARK    2  A    between atoms: C_8  and  C_10
REMARK    3  A    between atoms: C_10  and  N_11
REMARK    4  A    between atoms: C_12  and  C_14
REMARK    5  A    between atoms: C_14  and  S_15
REMARK    6  A    between atoms: S_15  and  C_16
REMARK    7  A    between atoms: C_18  and  C_21
REMARK    8  A    between atoms: C_22  and  C_23
REMARK                            x       y       z     vdW  Elec       q    Type
REMARK                         _______ _______ _______ _____ _____    ______ ____
ROOT
ATOM      1  N   UNL     1      -1.250  -4.788   0.299  0.00  0.00    -0.306 N 
ATOM      2  C   UNL     1      -1.467  -6.114   0.404  0.00  0.00    +0.224 C 
ATOM      3  O   UNL     1      -0.530  -6.883   0.409  0.00  0.00    -0.275 OA
ATOM      4  H   UNL     1      -2.000  -4.172   0.295  0.00  0.00    +0.149 HD
ENDROOT
BRANCH   1   5
ATOM      5  C   UNL     1       0.119  -4.276   0.191  0.00  0.00    +0.200 C 
BRANCH   5   7
ATOM      6  N   UNL     1       1.237  -2.080  -0.022  0.00  0.00    -0.283 N 
ATOM      7  C   UNL     1       0.086  -2.773   0.087  0.00  0.00    +0.234 C 
ATOM      8  O   UNL     1      -0.976  -2.187   0.102  0.00  0.00    -0.274 OA
ATOM      9  H   UNL     1       2.080  -2.551  -0.115  0.00  0.00    +0.155 HD
BRANCH   6  14
ATOM     10  C   UNL     1       0.153   1.372   0.637  0.00  0.00    +0.002 A 
ATOM     11  C   UNL     1       1.173   2.086   0.035  0.00  0.00    +0.001 A 
ATOM     12  C   UNL     1       2.214   1.421  -0.586  0.00  0.00    +0.017 A 
ATOM     13  C   UNL     1       2.239   0.040  -0.607  0.00  0.00    +0.039 A 
ATOM     14  C   UNL     1       1.216  -0.681  -0.003  0.00  0.00    +0.047 A 
ATOM     15  C   UNL     1       0.172  -0.009   0.620  0.00  0.00    +0.024 A 
ATOM     16 BR   UNL     1       3.662  -0.869  -1.458  0.00  0.00    -0.048 Br
ENDBRANCH   6  14
ENDBRANCH   5   7
ENDBRANCH   1   5
BRANCH   2  17
ATOM     17  C   UNL     1      -2.875  -6.640   0.515  0.00  0.00    +0.173 C 
BRANCH  17  18
ATOM     18  S   UNL     1      -2.836  -8.449   0.641  0.00  0.00    -0.075 S 
BRANCH  18  19
ATOM     19  C   UNL     1      -4.533  -8.905   0.762  0.00  0.00    +0.209 A 
ATOM     20  N   UNL     1      -4.991 -10.152   0.880  0.00  0.00    -0.202 NA
ATOM     21  C   UNL     1      -6.313 -10.137   0.947  0.00  0.00    +0.150 A 
ATOM     22  N   UNL     1      -6.716  -8.839   0.871  0.00  0.00    -0.258 N 
ATOM     23  N   UNL     1      -5.547  -8.070   0.757  0.00  0.00    -0.145 NA
ATOM     24  H   UNL     1      -7.629  -8.511   0.894  0.00  0.00    +0.191 HD
BRANCH  21  25
ATOM     25  C   UNL     1      -7.184 -11.307   1.080  0.00  0.00    +0.049 C 
ATOM     26  C   UNL     1      -6.648 -12.545   1.145  0.00  0.00    +0.018 C 
BRANCH  26  27
ATOM     27  C   UNL     1      -7.519 -13.714   1.277  0.00  0.00    +0.012 A 
ATOM     28  C   UNL     1      -7.176 -15.054   1.366  0.00  0.00    +0.015 A 
ATOM     29  C   UNL     1      -8.185 -15.979   1.486  0.00  0.00    +0.008 A 
ATOM     30  C   UNL     1      -9.477 -15.556   1.514  0.00  0.00    +0.046 A 
ATOM     31  S   UNL     1      -9.300 -13.785   1.375  0.00  0.00    -0.097 S 
ENDBRANCH  26  27
ENDBRANCH  21  25
ENDBRANCH  18  19
ENDBRANCH  17  18
ENDBRANCH   2  17
TORSDOF 8
