REMARK  Name = ZINC67452562
REMARK  6 active torsions:
REMARK  status: ('A' for Active; 'I' for Inactive)
REMARK    1  A    between atoms: C_1  and  C_2
REMARK    2  A    between atoms: N_6  and  C_8
REMARK    3  A    between atoms: C_11  and  N_14
REMARK    4  A    between atoms: N_14  and  C_15
REMARK    5  A    between atoms: N_19  and  C_22
REMARK    6  A    between atoms: C_26  and  N_28
REMARK                            x       y       z     vdW  Elec       q    Type
REMARK                         _______ _______ _______ _____ _____    ______ ____
ROOT
ATOM      1  C   UNL     1       5.774  -5.887   3.219  0.00  0.00    +0.159 C 
ATOM      2  C   UNL     1       6.195  -6.904   4.305  0.00  0.00    +0.051 C 
ATOM      3  C   UNL     1       7.629  -6.436   4.636  0.00  0.00    +0.116 C 
ATOM      4  N   UNL     1       8.104  -5.747   3.430  0.00  0.00    -0.270 N 
ATOM      5  C   UNL     1       7.080  -5.421   2.616  0.00  0.00    +0.240 C 
ATOM      6  O   UNL     1       7.189  -4.841   1.557  0.00  0.00    -0.273 OA
ENDROOT
BRANCH   4   7
ATOM      7  C   UNL     1       9.447  -5.464   3.160  0.00  0.00    +0.038 A 
ATOM      8  C   UNL     1      10.434  -5.846   4.059  0.00  0.00    +0.023 A 
ATOM      9  C   UNL     1      11.759  -5.566   3.789  0.00  0.00    +0.004 A 
ATOM     10  C   UNL     1      12.104  -4.906   2.624  0.00  0.00    +0.033 A 
ATOM     11  C   UNL     1      11.124  -4.523   1.726  0.00  0.00    +0.128 A 
ATOM     12  C   UNL     1       9.797  -4.805   1.988  0.00  0.00    +0.056 A 
BRANCH  11  13
ATOM     13  N   UNL     1      11.498  -3.816   0.481  0.00  0.00    +0.056 N 
ATOM     14  O   UNL     1      12.659  -3.573   0.249  0.00  0.00    -0.126 OA
ATOM     15  O   UNL     1      10.642  -3.481  -0.304  0.00  0.00    -0.126 OA
ENDBRANCH  11  13
ENDBRANCH   4   7
BRANCH   1  16
ATOM     16  N   UNL     1       5.056  -4.761   3.822  0.00  0.00    -0.333 N 
ATOM     17  H   UNL     1       5.188  -4.548   4.759  0.00  0.00    +0.147 HD
BRANCH  16  21
ATOM     18  C   UNL     1       2.450  -2.471   1.510  0.00  0.00    +0.030 A 
ATOM     19  C   UNL     1       2.638  -2.166   2.852  0.00  0.00    +0.025 A 
ATOM     20  C   UNL     1       3.501  -2.925   3.617  0.00  0.00    +0.025 A 
ATOM     21  C   UNL     1       4.181  -3.992   3.046  0.00  0.00    +0.028 A 
ATOM     22  C   UNL     1       3.993  -4.297   1.704  0.00  0.00    +0.025 A 
ATOM     23  C   UNL     1       3.125  -3.542   0.940  0.00  0.00    +0.025 A 
BRANCH  18  28
ATOM     24  C   UNL     1      -0.019   1.526   0.010  0.00  0.00    +0.009 C 
ATOM     25  C   UNL     1       0.002  -0.004   0.002  0.00  0.00    +0.005 C 
ATOM     26  C   UNL     1       0.806  -0.535  -1.214  0.00  0.00    +0.023 C 
ATOM     27  C   UNL     1       1.279  -1.916  -0.695  0.00  0.00    +0.105 C 
ATOM     28  N   UNL     1       1.575  -1.701   0.733  0.00  0.00    -0.330 N 
ATOM     29  C   UNL     1       0.795  -0.546   1.210  0.00  0.00    +0.108 C 
ENDBRANCH  18  28
ENDBRANCH  16  21
ENDBRANCH   1  16
TORSDOF 5
