REMARK  Name = ZINC08766297
REMARK  9 active torsions:
REMARK  status: ('A' for Active; 'I' for Inactive)
REMARK    1  A    between atoms: C_1  and  C_2
REMARK    2  A    between atoms: C_5  and  C_8
REMARK    3  A    between atoms: N_12  and  C_16
REMARK    4  A    between atoms: C_16  and  C_17
REMARK    5  A    between atoms: C_17  and  C_18
REMARK    6  A    between atoms: N_20  and  N_21
REMARK    7  A    between atoms: N_21  and  C_22
REMARK    8  A    between atoms: C_25  and  N_31
REMARK    9  A    between atoms: C_27  and  N_28
REMARK                            x       y       z     vdW  Elec       q    Type
REMARK                         _______ _______ _______ _____ _____    ______ ____
ROOT
ATOM      1  C   UNL     1       3.053  -0.420   0.328  0.00  0.00    +0.231 C 
ATOM      2  O   UNL     1       3.135  -1.596   0.042  0.00  0.00    -0.274 OA
ATOM      3  N   UNL     1       1.843   0.157   0.466  0.00  0.00    -0.236 N 
ATOM      4  H   UNL     1       1.777   1.097   0.695  0.00  0.00    +0.173 HD
ENDROOT
BRANCH   3   5
ATOM      5  N   UNL     1       0.679  -0.601   0.277  0.00  0.00    -0.262 N 
ATOM      6  H   UNL     1       0.745  -1.541   0.048  0.00  0.00    +0.170 HD
BRANCH   5   7
ATOM      7  C   UNL     1      -0.575  -0.002   0.414  0.00  0.00    +0.075 A 
ATOM      8  C   UNL     1      -0.673   1.315   0.846  0.00  0.00    +0.029 A 
ATOM      9  C   UNL     1      -1.915   1.906   0.976  0.00  0.00    +0.035 A 
ATOM     10  C   UNL     1      -3.059   1.186   0.686  0.00  0.00    +0.128 A 
ATOM     11  C   UNL     1      -2.965  -0.126   0.260  0.00  0.00    +0.067 A 
ATOM     12  C   UNL     1      -1.726  -0.722   0.124  0.00  0.00    +0.150 A 
BRANCH  12  13
ATOM     13  N   UNL     1      -1.626  -2.127  -0.332  0.00  0.00    +0.058 N 
ATOM     14  O   UNL     1      -2.627  -2.817  -0.402  0.00  0.00    -0.126 OA
ATOM     15  O   UNL     1      -0.542  -2.592  -0.637  0.00  0.00    -0.126 OA
ENDBRANCH  12  13
BRANCH  10  16
ATOM     16  N   UNL     1      -4.388   1.821   0.832  0.00  0.00    +0.056 N 
ATOM     17  O   UNL     1      -5.397   1.188   0.577  0.00  0.00    -0.126 OA
ATOM     18  O   UNL     1      -4.473   2.977   1.207  0.00  0.00    -0.126 OA
ENDBRANCH  10  16
ENDBRANCH   5   7
ENDBRANCH   3   5
BRANCH   1  19
ATOM     19  C   UNL     1       4.304   0.395   0.531  0.00  0.00    +0.116 C 
BRANCH  19  20
ATOM     20  C   UNL     1       5.531  -0.493   0.318  0.00  0.00    +0.124 C 
BRANCH  20  25
ATOM     21  C   UNL     1       9.262   1.446   2.951  0.00  0.00    +0.028 C 
ATOM     22  C   UNL     1       8.507   1.191   1.854  0.00  0.00    +0.077 C 
ATOM     23  C   UNL     1       7.281   0.376   1.723  0.00  0.00    +0.258 C 
ATOM     24  O   UNL     1       6.787  -0.195   2.677  0.00  0.00    -0.269 OA
ATOM     25  N   UNL     1       6.748   0.300   0.515  0.00  0.00    -0.255 N 
ATOM     26  C   UNL     1       7.301   0.930  -0.541  0.00  0.00    +0.121 C 
ATOM     27  S   UNL     1       6.768   0.947  -2.168  0.00  0.00    -0.027 S 
ATOM     28  S   UNL     1       8.722   1.746   0.168  0.00  0.00    -0.061 S 
BRANCH  21  33
ATOM     29  C   UNL     1      14.264   4.225   2.415  0.00  0.00    +0.044 C 
ATOM     30  C   UNL     1      12.953   3.497   2.555  0.00  0.00    -0.050 A 
ATOM     31  C   UNL     1      12.320   3.449   3.786  0.00  0.00    +0.004 A 
ATOM     32  C   UNL     1      11.120   2.784   3.923  0.00  0.00    +0.008 A 
ATOM     33  C   UNL     1      10.541   2.157   2.814  0.00  0.00    -0.024 A 
ATOM     34  C   UNL     1      11.190   2.206   1.575  0.00  0.00    +0.008 A 
ATOM     35  C   UNL     1      12.387   2.880   1.453  0.00  0.00    +0.004 A 
ENDBRANCH  21  33
ENDBRANCH  20  25
ENDBRANCH  19  20
ENDBRANCH   1  19
TORSDOF 8
