REMARK  Name = ZINC53102755
REMARK  5 active torsions:
REMARK  status: ('A' for Active; 'I' for Inactive)
REMARK    1  A    between atoms: C_10  and  N_11
REMARK    2  A    between atoms: C_12  and  C_14
REMARK    3  A    between atoms: C_14  and  C_24
REMARK    4  A    between atoms: C_15  and  C_16
REMARK    5  A    between atoms: C_18  and  N_21
REMARK                            x       y       z     vdW  Elec       q    Type
REMARK                         _______ _______ _______ _____ _____    ______ ____
ROOT
ATOM      1  N   UNL     1       4.868   0.097  -0.012  0.00  0.00    -0.280 N 
ATOM      2  C   UNL     1       6.044  -0.556   0.074  0.00  0.00    +0.259 C 
ATOM      3  O   UNL     1       6.064  -1.773   0.091  0.00  0.00    -0.269 OA
ATOM      4  H   UNL     1       4.856   1.062  -0.112  0.00  0.00    +0.155 HD
ENDROOT
BRANCH   1  14
ATOM      5  C   UNL     1       0.176   0.914  -1.682  0.00  0.00    +0.001 A 
ATOM      6  C   UNL     1       1.363   1.641  -1.748  0.00  0.00    +0.001 A 
ATOM      7  C   UNL     1       2.510   1.161  -1.193  0.00  0.00    +0.010 A 
ATOM      8  C   UNL     1       2.500  -0.084  -0.545  0.00  0.00    +0.003 A 
ATOM      9  C   UNL     1       1.294  -0.824  -0.477  0.00  0.00    -0.016 A 
ATOM     10  C   UNL     1       0.129  -0.296  -1.062  0.00  0.00    +0.008 A 
ATOM     11  C   UNL     1       1.282  -2.070   0.172  0.00  0.00    +0.008 A 
ATOM     12  C   UNL     1       2.425  -2.557   0.729  0.00  0.00    +0.002 A 
ATOM     13  C   UNL     1       3.615  -1.840   0.670  0.00  0.00    +0.024 A 
ATOM     14  C   UNL     1       3.669  -0.614   0.042  0.00  0.00    +0.041 A 
ENDBRANCH   1  14
BRANCH   2  15
ATOM     15  C   UNL     1       7.301   0.200   0.148  0.00  0.00    +0.114 C 
ATOM     16  C   UNL     1       8.506  -0.470   0.237  0.00  0.00    +0.032 C 
BRANCH  16  17
ATOM     17  C   UNL     1       9.706   0.255   0.442  0.00  0.00    -0.014 A 
ATOM     18  C   UNL     1      10.989  -0.265   0.023  0.00  0.00    +0.048 A 
ATOM     19  C   UNL     1      12.051   0.522   0.276  0.00  0.00    +0.164 A 
ATOM     20  S   UNL     1      11.328   1.942   1.069  0.00  0.00    -0.072 S 
ATOM     21  C   UNL     1       9.710   1.499   1.050  0.00  0.00    +0.055 A 
BRANCH  19  22
ATOM     22  N   UNL     1      13.477   0.268  -0.030  0.00  0.00    +0.063 N 
ATOM     23  O   UNL     1      13.804  -0.759  -0.578  0.00  0.00    -0.126 OA
ATOM     24  O   UNL     1      14.315   1.088   0.268  0.00  0.00    -0.126 OA
ENDBRANCH  19  22
ENDBRANCH  16  17
BRANCH  15  25
ATOM     25  C   UNL     1       7.277   1.631   0.128  0.00  0.00    +0.104 C 
ATOM     26  N   UNL     1       7.259   2.767   0.112  0.00  0.00    -0.191 NA
ENDBRANCH  15  25
ENDBRANCH   2  15
TORSDOF 5
