REMARK  Name = ZINC14034045
REMARK  10 active torsions:
REMARK  status: ('A' for Active; 'I' for Inactive)
REMARK    1  A    between atoms: C_1  and  C_2
REMARK    2  A    between atoms: C_2  and  C_4
REMARK    3  A    between atoms: C_2  and  O_24
REMARK    4  A    between atoms: N_6  and  N_7
REMARK    5  A    between atoms: C_8  and  C_10
REMARK    6  A    between atoms: C_13  and  O_16
REMARK    7  A    between atoms: O_16  and  C_17
REMARK    8  A    between atoms: C_17  and  C_18
REMARK    9  A    between atoms: O_24  and  C_25
REMARK   10  A    between atoms: C_30  and  N_31
REMARK                            x       y       z     vdW  Elec       q    Type
REMARK                         _______ _______ _______ _____ _____    ______ ____
ROOT
ATOM      1  N   UNL     1      -1.089   7.477   1.218  0.00  0.00    -0.230 N 
ATOM      2  C   UNL     1      -2.204   8.225   1.333  0.00  0.00    +0.260 C 
ATOM      3  O   UNL     1      -3.270   7.792   0.939  0.00  0.00    -0.269 OA
ATOM      4  H   UNL     1      -0.239   7.823   1.532  0.00  0.00    +0.173 HD
ENDROOT
BRANCH   2   5
ATOM      5  C   UNL     1      -2.132   9.570   1.936  0.00  0.00    +0.038 A 
ATOM      6  C   UNL     1      -0.909  10.067   2.394  0.00  0.00    +0.016 A 
ATOM      7  C   UNL     1      -0.845  11.325   2.952  0.00  0.00    +0.046 A 
ATOM      8  C   UNL     1      -1.996  12.095   3.069  0.00  0.00    +0.121 A 
ATOM      9  C   UNL     1      -3.216  11.601   2.620  0.00  0.00    +0.046 A 
ATOM     10  C   UNL     1      -3.287  10.347   2.056  0.00  0.00    +0.016 A 
BRANCH   8  11
ATOM     11  O   UNL     1      -1.930  13.331   3.624  0.00  0.00    -0.487 OA
BRANCH  11  12
ATOM     12  C   UNL     1      -0.645  13.777   4.065  0.00  0.00    +0.264 C 
BRANCH  12  13
ATOM     13  C   UNL     1      -0.766  15.161   4.648  0.00  0.00    -0.010 A 
ATOM     14  C   UNL     1      -0.610  16.269   3.837  0.00  0.00    +0.007 A 
ATOM     15  C   UNL     1      -0.726  17.539   4.371  0.00  0.00    +0.000 A 
ATOM     16  C   UNL     1      -0.988  17.700   5.718  0.00  0.00    +0.000 A 
ATOM     17  C   UNL     1      -1.139  16.592   6.531  0.00  0.00    +0.000 A 
ATOM     18  C   UNL     1      -1.028  15.322   5.996  0.00  0.00    +0.007 A 
ENDBRANCH  12  13
ENDBRANCH  11  12
ENDBRANCH   8  11
ENDBRANCH   2   5
BRANCH   1  21
ATOM     19  C   UNL     1      -0.043   5.452   0.530  0.00  0.00    +0.270 C 
ATOM     20  O   UNL     1       1.020   5.885   0.922  0.00  0.00    -0.270 OA
ATOM     21  N   UNL     1      -1.158   6.200   0.644  0.00  0.00    -0.231 N 
ATOM     22  H   UNL     1      -2.008   5.855   0.331  0.00  0.00    +0.173 HD
BRANCH  19  24
ATOM     23  C   UNL     1      -0.516   4.202  -1.559  0.00  0.00    +0.062 C 
ATOM     24  C   UNL     1      -0.117   4.079  -0.087  0.00  0.00    +0.257 C 
BRANCH  24  25
ATOM     25  O   UNL     1       1.160   3.445   0.009  0.00  0.00    -0.478 OA
BRANCH  25  26
ATOM     26  C   UNL     1       1.176   2.086   0.004  0.00  0.00    +0.152 A 
ATOM     27  C   UNL     1       0.001   1.378  -0.206  0.00  0.00    +0.048 A 
ATOM     28  C   UNL     1       0.020  -0.003  -0.212  0.00  0.00    +0.004 A 
ATOM     29  C   UNL     1       1.208  -0.680  -0.009  0.00  0.00    +0.002 A 
ATOM     30  C   UNL     1       2.380   0.022   0.200  0.00  0.00    +0.036 A 
ATOM     31  C   UNL     1       2.367   1.404   0.207  0.00  0.00    +0.168 A 
BRANCH  31  32
ATOM     32  N   UNL     1       3.622   2.156   0.430  0.00  0.00    +0.060 N 
ATOM     33  O   UNL     1       4.667   1.556   0.609  0.00  0.00    -0.126 OA
ATOM     34  O   UNL     1       3.610   3.374   0.436  0.00  0.00    -0.126 OA
ENDBRANCH  31  32
ENDBRANCH  25  26
ENDBRANCH  24  25
ENDBRANCH  19  24
ENDBRANCH   1  21
TORSDOF 9
