REMARK  Name = ZINC05724503
REMARK  7 active torsions:
REMARK  status: ('A' for Active; 'I' for Inactive)
REMARK    1  A    between atoms: C_1  and  C_2
REMARK    2  A    between atoms: C_3  and  C_7
REMARK    3  A    between atoms: N_9  and  N_10
REMARK    4  A    between atoms: C_11  and  C_12
REMARK    5  A    between atoms: C_15  and  S_21
REMARK    6  A    between atoms: C_16  and  N_18
REMARK    7  A    between atoms: S_21  and  C_22
REMARK                            x       y       z     vdW  Elec       q    Type
REMARK                         _______ _______ _______ _____ _____    ______ ____
ROOT
ATOM      1  C   UNL     1      -0.018   1.393  -0.001  0.00  0.00    -0.003 A 
ATOM      2  C   UNL     1       0.015   0.014   0.226  0.00  0.00    +0.011 A 
ATOM      3  C   UNL     1       1.217  -0.657   0.213  0.00  0.00    +0.017 A 
ATOM      4  C   UNL     1       2.400   0.037  -0.024  0.00  0.00    +0.038 A 
ATOM      5  C   UNL     1       2.372   1.410  -0.250  0.00  0.00    +0.140 A 
ATOM      6  C   UNL     1       1.172   2.087  -0.239  0.00  0.00    +0.043 A 
ENDROOT
BRANCH   5   7
ATOM      7  N   UNL     1       3.632   2.144  -0.502  0.00  0.00    +0.058 N 
ATOM      8  O   UNL     1       3.609   3.345  -0.700  0.00  0.00    -0.126 OA
ATOM      9  O   UNL     1       4.694   1.546  -0.512  0.00  0.00    -0.126 OA
ENDBRANCH   5   7
BRANCH   1  11
ATOM     10  N   UNL     1      -2.408   1.466   0.222  0.00  0.00    -0.187 NA
ATOM     11  C   UNL     1      -1.303   2.113   0.006  0.00  0.00    +0.138 C 
BRANCH  10  14
ATOM     12  C   UNL     1      -4.777   1.479   0.453  0.00  0.00    +0.267 C 
ATOM     13  O   UNL     1      -4.751   0.279   0.650  0.00  0.00    -0.268 OA
ATOM     14  N   UNL     1      -3.631   2.151   0.229  0.00  0.00    -0.203 N 
ATOM     15  H   UNL     1      -3.652   3.108   0.071  0.00  0.00    +0.178 HD
BRANCH  12  18
ATOM     16  C   UNL     1      -7.609   0.220   0.941  0.00  0.00    +0.087 C 
ATOM     17  C   UNL     1      -7.303   1.670   0.670  0.00  0.00    +0.114 A 
ATOM     18  C   UNL     1      -6.063   2.199   0.460  0.00  0.00    +0.079 A 
ATOM     19  C   UNL     1      -6.277   3.638   0.248  0.00  0.00    +0.054 A 
ATOM     20  C   UNL     1      -7.602   3.832   0.341  0.00  0.00    +0.196 A 
ATOM     21  O   UNL     1      -8.201   2.658   0.595  0.00  0.00    -0.467 OA
ENDBRANCH  12  18
ENDBRANCH  10  14
ENDBRANCH   1  11
BRANCH   4  22
ATOM     22  S   UNL     1       3.937  -0.825  -0.040  0.00  0.00    -0.120 S 
BRANCH  22  23
ATOM     23  C   UNL     1       3.463  -2.569   0.108  0.00  0.00    +0.051 C 
ATOM     24  C   UNL     1       4.712  -3.418   0.355  0.00  0.00    +0.014 C 
ATOM     25  C   UNL     1       4.312  -4.889   0.479  0.00  0.00    +0.001 C 
ATOM     26  C   UNL     1       3.633  -5.345  -0.814  0.00  0.00    +0.000 C 
ATOM     27  C   UNL     1       2.384  -4.496  -1.060  0.00  0.00    +0.001 C 
ATOM     28  C   UNL     1       2.784  -3.025  -1.185  0.00  0.00    +0.014 C 
ENDBRANCH  22  23
ENDBRANCH   4  22
TORSDOF 6
