REMARK  Name = ZINC63376044
REMARK  8 active torsions:
REMARK  status: ('A' for Active; 'I' for Inactive)
REMARK    1  A    between atoms: C_1  and  C_2
REMARK    2  A    between atoms: C_2  and  O_3
REMARK    3  A    between atoms: O_3  and  C_4
REMARK    4  A    between atoms: C_4  and  C_6
REMARK    5  A    between atoms: C_9  and  N_12
REMARK    6  A    between atoms: C_15  and  C_22
REMARK    7  A    between atoms: C_29  and  O_34
REMARK    8  A    between atoms: O_34  and  C_35
REMARK                            x       y       z     vdW  Elec       q    Type
REMARK                         _______ _______ _______ _____ _____    ______ ____
ROOT
ATOM      1  N   UNL     1       3.310  -3.901  -5.920  0.00  0.00    -0.229 N 
ATOM      2  C   UNL     1       3.491  -5.231  -6.033  0.00  0.00    +0.270 A 
ATOM      3  O   UNL     1       3.046  -5.985  -5.185  0.00  0.00    -0.267 OA
ATOM      4  C   UNL     1       4.196  -5.744  -7.136  0.00  0.00    +0.101 A 
ATOM      5  C   UNL     1       4.683  -4.879  -8.071  0.00  0.00    +0.263 A 
ATOM      6  N   UNL     1       4.477  -3.532  -7.917  0.00  0.00    -0.274 N 
ATOM      7  H   UNL     1       4.821  -2.913  -8.579  0.00  0.00    +0.173 HD
ATOM      8  C   UNL     1       3.794  -3.064  -6.856  0.00  0.00    +0.337 A 
ATOM      9  O   UNL     1       3.617  -1.867  -6.738  0.00  0.00    -0.246 OA
ATOM     10  O   UNL     1       5.364  -5.345  -9.140  0.00  0.00    -0.267 OA
ENDROOT
BRANCH   4  11
ATOM     11  C   UNL     1       4.410  -7.228  -7.283  0.00  0.00    +0.121 C 
ATOM     12  C   UNL     1       5.906  -7.523  -7.415  0.00  0.00    +0.128 C 
ATOM     13  C   UNL     1       6.346  -6.909  -8.739  0.00  0.00    -0.035 C 
ATOM     14  C   UNL     1       7.368  -6.112  -8.462  0.00  0.00    +0.003 A 
ATOM     15  C   UNL     1       8.260  -5.319  -9.322  0.00  0.00    +0.055 A 
ATOM     16  C   UNL     1       9.219  -4.585  -8.694  0.00  0.00    +0.121 A 
ATOM     17  C   UNL     1       9.394  -4.548  -7.303  0.00  0.00    +0.047 A 
ATOM     18  C   UNL     1       8.634  -5.243  -6.419  0.00  0.00    +0.029 A 
ATOM     19  C   UNL     1       7.564  -6.080  -6.979  0.00  0.00    +0.043 A 
ATOM     20  N   UNL     1       6.701  -6.872  -6.375  0.00  0.00    -0.376 N 
ATOM     21  C   UNL     1       5.597  -7.174 -10.023  0.00  0.00    +0.048 C 
ATOM     22  C   UNL     1       4.106  -6.958  -9.703  0.00  0.00    +0.086 C 
ATOM     23  N   UNL     1       3.734  -7.709  -8.499  0.00  0.00    -0.307 NA
ATOM     24  H   UNL     1       3.884  -8.698  -8.629  0.00  0.00    +0.123 HD
ATOM     25  H   UNL     1       6.601  -7.001  -5.419  0.00  0.00    +0.160 HD
BRANCH  16  26
ATOM     26  O   UNL     1      10.059  -3.842  -9.463  0.00  0.00    -0.495 OA
ATOM     27  C   UNL     1      11.057  -3.079  -8.782  0.00  0.00    +0.277 C 
ENDBRANCH  16  26
ENDBRANCH   4  11
BRANCH   1  31
ATOM     28  C   UNL     1       1.223  -2.368  -2.654  0.00  0.00    +0.059 A 
ATOM     29  C   UNL     1       0.539  -2.716  -3.822  0.00  0.00    +0.017 A 
ATOM     30  C   UNL     1       1.232  -3.221  -4.899  0.00  0.00    +0.027 A 
ATOM     31  C   UNL     1       2.611  -3.387  -4.825  0.00  0.00    +0.054 A 
ATOM     32  C   UNL     1       3.295  -3.042  -3.664  0.00  0.00    +0.027 A 
ATOM     33  C   UNL     1       2.610  -2.529  -2.586  0.00  0.00    +0.017 A 
BRANCH  28  34
ATOM     34  C   UNL     1       0.484  -1.825  -1.498  0.00  0.00    +0.339 C 
ATOM     35  O   UNL     1       1.081  -1.519  -0.485  0.00  0.00    -0.245 OA
BRANCH  34  36
ATOM     36  O   UNL     1      -0.853  -1.670  -1.566  0.00  0.00    -0.461 OA
BRANCH  36  38
ATOM     37  C   UNL     1      -3.007  -1.037  -0.673  0.00  0.00    +0.048 C 
ATOM     38  C   UNL     1      -1.504  -1.140  -0.410  0.00  0.00    +0.229 C 
ENDBRANCH  36  38
ENDBRANCH  34  36
ENDBRANCH  28  34
ENDBRANCH   1  31
TORSDOF 6
