REMARK  Name = ZINC46674173
REMARK  9 active torsions:
REMARK  status: ('A' for Active; 'I' for Inactive)
REMARK    1  A    between atoms: C_1  and  O_2
REMARK    2  A    between atoms: O_2  and  C_3
REMARK    3  A    between atoms: C_3  and  C_5
REMARK    4  A    between atoms: C_7  and  C_11
REMARK    5  A    between atoms: C_17  and  C_19
REMARK    6  A    between atoms: C_19  and  C_20
REMARK    7  A    between atoms: C_20  and  C_21
REMARK    8  A    between atoms: C_21  and  C_22
REMARK    9  A    between atoms: C_24  and  C_27
REMARK                            x       y       z     vdW  Elec       q    Type
REMARK                         _______ _______ _______ _____ _____    ______ ____
ROOT
ATOM      1  C   UNL     1       1.530  -5.327  -2.588  0.00  0.00    +0.082 A 
ATOM      2  C   UNL     1       1.302  -6.610  -2.177  0.00  0.00    +0.077 A 
ATOM      3  S   UNL     1       2.072  -7.526  -3.503  0.00  0.00    -0.060 S 
ATOM      4  C   UNL     1       2.592  -6.217  -4.423  0.00  0.00    +0.165 A 
ATOM      5  N   UNL     1       2.181  -5.177  -3.734  0.00  0.00    -0.225 NA
ATOM      6  N   UNL     1       3.285  -6.233  -5.628  0.00  0.00    -0.265 N 
ATOM      7  C   UNL     1       3.620  -7.407  -6.197  0.00  0.00    +0.219 C 
ATOM      8  O   UNL     1       3.317  -8.451  -5.658  0.00  0.00    -0.275 OA
ATOM      9  H   UNL     1       3.527  -5.398  -6.059  0.00  0.00    +0.157 HD
ENDROOT
BRANCH   1  12
ATOM     10  C   UNL     1       0.659  -2.065  -1.123  0.00  0.00    +0.125 A 
ATOM     11  C   UNL     1       1.241  -2.804  -2.129  0.00  0.00    +0.044 A 
ATOM     12  C   UNL     1       1.065  -4.160  -1.795  0.00  0.00    +0.019 A 
ATOM     13  C   UNL     1       0.389  -4.207  -0.610  0.00  0.00    +0.093 A 
ATOM     14  N   UNL     1       0.146  -2.946  -0.197  0.00  0.00    -0.355 N 
ATOM     15  H   UNL     1      -0.318  -2.700   0.619  0.00  0.00    +0.166 HD
BRANCH  10  16
ATOM     16  C   UNL     1       0.601  -0.603  -1.048  0.00  0.00    +0.355 C 
ATOM     17  O   UNL     1       1.094   0.071  -1.932  0.00  0.00    -0.243 OA
BRANCH  16  19
ATOM     18  C   UNL     1      -0.017   1.425   0.010  0.00  0.00    +0.280 C 
ATOM     19  O   UNL     1       0.002  -0.004   0.002  0.00  0.00    -0.463 OA
ENDBRANCH  16  19
ENDBRANCH  10  16
ENDBRANCH   1  12
BRANCH   7  20
ATOM     20  C   UNL     1       4.372  -7.425  -7.503  0.00  0.00    +0.096 C 
BRANCH  20  21
ATOM     21  C   UNL     1       4.625  -8.873  -7.927  0.00  0.00    +0.019 C 
BRANCH  21  22
ATOM     22  C   UNL     1       5.389  -8.890  -9.253  0.00  0.00    +0.099 C 
BRANCH  22  23
ATOM     23  C   UNL     1       5.638 -10.316  -9.670  0.00  0.00    +0.228 A 
ATOM     24  N   UNL     1       4.851 -11.041 -10.412  0.00  0.00    -0.191 NA
ATOM     25  C   UNL     1       5.381 -12.265 -10.588  0.00  0.00    +0.202 A 
ATOM     26  N   UNL     1       6.523 -12.322  -9.949  0.00  0.00    -0.056 NA
ATOM     27  O   UNL     1       6.710 -11.051  -9.345  0.00  0.00    -0.338 OA
BRANCH  25  28
ATOM     28  C   UNL     1       4.773 -13.367 -11.374  0.00  0.00    +0.023 A 
ATOM     29  C   UNL     1       3.550 -13.177 -12.014  0.00  0.00    +0.013 A 
ATOM     30  C   UNL     1       2.989 -14.204 -12.744  0.00  0.00    +0.021 A 
ATOM     31  C   UNL     1       3.639 -15.423 -12.841  0.00  0.00    +0.041 A 
ATOM     32  C   UNL     1       4.854 -15.617 -12.207  0.00  0.00    +0.021 A 
ATOM     33  C   UNL     1       5.426 -14.593 -11.480  0.00  0.00    +0.013 A 
ATOM     34 CL   UNL     1       2.927 -16.712 -13.761  0.00  0.00    -0.084 Cl
ENDBRANCH  25  28
ENDBRANCH  22  23
ENDBRANCH  21  22
ENDBRANCH  20  21
ENDBRANCH   7  20
TORSDOF 8
