REMARK  Name = ZINC65965996
REMARK  11 active torsions:
REMARK  status: ('A' for Active; 'I' for Inactive)
REMARK    1  A    between atoms: C_1  and  C_2
REMARK    2  A    between atoms: C_2  and  C_3
REMARK    3  A    between atoms: C_2  and  C_4
REMARK    4  A    between atoms: C_4  and  C_5
REMARK    5  A    between atoms: C_4  and  C_6
REMARK    6  A    between atoms: C_4  and  N_8
REMARK    7  A    between atoms: C_9  and  C_11
REMARK    8  A    between atoms: C_11  and  C_12
REMARK    9  A    between atoms: C_11  and  N_13
REMARK   10  A    between atoms: C_17  and  C_19
REMARK   11  A    between atoms: N_21  and  C_22
REMARK                            x       y       z     vdW  Elec       q    Type
REMARK                         _______ _______ _______ _____ _____    ______ ____
ROOT
ATOM      1  N   UNL     1      -3.926  -4.702  -0.131  0.00  0.00    +0.388 N 
ATOM      2  C   UNL     1      -3.893  -6.169  -0.131  0.00  0.00    -0.078 C 
ATOM      3  C   UNL     1      -5.306  -6.715   0.086  0.00  0.00    -0.018 C 
ATOM      4  C   UNL     1      -6.216  -6.223  -1.044  0.00  0.00    +0.009 C 
ATOM      5  C   UNL     1      -6.184  -4.692  -1.082  0.00  0.00    +0.058 C 
ATOM      6  C   UNL     1      -4.739  -4.222  -1.255  0.00  0.00    -0.065 C 
ATOM      7  H   UNL     1      -4.326  -4.376   0.736  0.00  0.00    -0.081 HD
ENDROOT
BRANCH   5   8
ATOM      8  C   UNL     1      -7.016  -4.200  -2.238  0.00  0.00    +0.215 C 
ATOM      9  O   UNL     1      -6.504  -3.535  -3.113  0.00  0.00    -0.276 OA
ATOM     10  N   UNL     1      -8.329  -4.500  -2.300  0.00  0.00    -0.312 N 
ATOM     11  H   UNL     1      -8.738  -5.032  -1.600  0.00  0.00    +0.149 HD
BRANCH  10  12
ATOM     12  C   UNL     1      -9.137  -4.021  -3.424  0.00  0.00    +0.073 C 
ATOM     13  C   UNL     1      -9.625  -2.601  -3.133  0.00  0.00    +0.022 C 
ATOM     14  C   UNL     1     -10.469  -2.101  -4.307  0.00  0.00    +0.002 C 
ATOM     15  C   UNL     1     -11.674  -3.025  -4.498  0.00  0.00    +0.000 C 
ATOM     16  C   UNL     1     -11.186  -4.446  -4.789  0.00  0.00    +0.002 C 
ATOM     17  C   UNL     1     -10.341  -4.945  -3.615  0.00  0.00    +0.022 C 
ENDBRANCH  10  12
ENDBRANCH   5   8
BRANCH   1  18
ATOM     18  C   UNL     1      -2.558  -4.183  -0.262  0.00  0.00    +0.016 C 
ATOM     19  C   UNL     1      -1.694  -4.728   0.878  0.00  0.00    -0.004 C 
BRANCH  18  21
ATOM     20  N   UNL     1      -1.620  -1.960  -0.809  0.00  0.00    -0.299 N 
ATOM     21  C   UNL     1      -2.583  -2.677  -0.197  0.00  0.00    +0.200 C 
ATOM     22  O   UNL     1      -3.470  -2.111   0.407  0.00  0.00    -0.278 OA
ATOM     23  H   UNL     1      -0.911  -2.413  -1.291  0.00  0.00    +0.150 HD
BRANCH  20  24
ATOM     24  C   UNL     1      -1.645  -0.497  -0.746  0.00  0.00    +0.121 C 
ATOM     25  C   UNL     1      -1.568  -0.048   0.715  0.00  0.00    +0.048 C 
BRANCH  24  27
ATOM     26  C   UNL     1      -0.543   1.594  -1.556  0.00  0.00    +0.010 C 
ATOM     27  C   UNL     1      -0.449   0.067  -1.516  0.00  0.00    +0.020 C 
ATOM     28  C   UNL     1       0.848  -0.346  -0.819  0.00  0.00    +0.010 C 
ENDBRANCH  24  27
BRANCH  24  29
ATOM     29  C   UNL     1      -2.894  -0.001  -1.346  0.00  0.00    +0.088 C 
ATOM     30  N   UNL     1      -3.858   0.382  -1.810  0.00  0.00    -0.194 NA
ENDBRANCH  24  29
ENDBRANCH  20  24
ENDBRANCH  18  21
ENDBRANCH   1  18
TORSDOF 7
