REMARK  Name = ZINC16614573
REMARK  10 active torsions:
REMARK  status: ('A' for Active; 'I' for Inactive)
REMARK    1  A    between atoms: C_1  and  C_2
REMARK    2  A    between atoms: C_6  and  C_8
REMARK    3  A    between atoms: C_14  and  C_16
REMARK    4  A    between atoms: C_16  and  C_18
REMARK    5  A    between atoms: C_16  and  N_21
REMARK    6  A    between atoms: C_18  and  C_19
REMARK    7  A    between atoms: C_18  and  C_20
REMARK    8  A    between atoms: N_24  and  C_25
REMARK    9  A    between atoms: C_26  and  C_32
REMARK   10  A    between atoms: C_30  and  C_31
REMARK                            x       y       z     vdW  Elec       q    Type
REMARK                         _______ _______ _______ _____ _____    ______ ____
ROOT
ATOM      1  C   UNL     1       1.014  11.130   0.981  0.00  0.00    +0.163 C 
ENDROOT
BRANCH   1   8
ATOM      2  C   UNL     1       4.226   5.645   0.672  0.00  0.00    +0.134 A 
ATOM      3  N   UNL     1       4.220   6.614  -0.234  0.00  0.00    -0.140 NA
ATOM      4  N   UNL     1       3.549   7.665  -0.040  0.00  0.00    -0.125 NA
ATOM      5  C   UNL     1       2.841   7.851   1.063  0.00  0.00    +0.188 A 
ATOM      6  S   UNL     1       3.159   6.366   1.913  0.00  0.00    -0.030 S 
ATOM      7  N   UNL     1       2.059   8.935   1.440  0.00  0.00    -0.262 N 
ATOM      8  C   UNL     1       1.946  10.001   0.623  0.00  0.00    +0.239 C 
ATOM      9  O   UNL     1       2.594  10.051  -0.401  0.00  0.00    -0.273 OA
ATOM     10  H   UNL     1       1.594   8.925   2.291  0.00  0.00    +0.157 HD
BRANCH   2  16
ATOM     11  C   UNL     1       7.223   2.368  -1.605  0.00  0.00    +0.044 C 
ATOM     12  C   UNL     1       6.365   2.761  -0.429  0.00  0.00    -0.050 A 
ATOM     13  C   UNL     1       6.230   1.899   0.645  0.00  0.00    +0.003 A 
ATOM     14  C   UNL     1       5.440   2.250   1.725  0.00  0.00    +0.001 A 
ATOM     15  C   UNL     1       4.791   3.467   1.743  0.00  0.00    +0.010 A 
ATOM     16  C   UNL     1       4.923   4.341   0.663  0.00  0.00    +0.009 A 
ATOM     17  C   UNL     1       5.717   3.979  -0.427  0.00  0.00    +0.014 A 
ENDBRANCH   2  16
ENDBRANCH   1   8
BRANCH   1  18
ATOM     18  N   UNL     1       1.432  12.348   0.283  0.00  0.00    -0.288 N 
ATOM     19  C   UNL     1       1.359  13.541   0.906  0.00  0.00    +0.304 C 
ATOM     20  O   UNL     1       1.036  13.596   2.077  0.00  0.00    -0.252 OA
ATOM     21  N   UNL     1       1.643  14.672   0.232  0.00  0.00    -0.269 N 
ATOM     22  H   UNL     1       1.761  12.296  -0.628  0.00  0.00    +0.151 HD
ATOM     23  H   UNL     1       1.846  14.634  -0.716  0.00  0.00    +0.156 HD
BRANCH  21  24
ATOM     24  C   UNL     1       1.646  15.902   0.899  0.00  0.00    +0.041 A 
ATOM     25  C   UNL     1       2.803  16.670   0.939  0.00  0.00    -0.029 A 
ATOM     26  C   UNL     1       2.801  17.886   1.593  0.00  0.00    +0.005 A 
ATOM     27  C   UNL     1       1.652  18.335   2.218  0.00  0.00    +0.001 A 
ATOM     28  C   UNL     1       0.500  17.571   2.184  0.00  0.00    +0.005 A 
ATOM     29  C   UNL     1       0.494  16.356   1.527  0.00  0.00    -0.029 A 
ATOM     30  C   UNL     1      -0.762  15.524   1.490  0.00  0.00    +0.045 C 
ATOM     31  C   UNL     1       4.058  16.178   0.264  0.00  0.00    +0.045 C 
ENDBRANCH  21  24
ENDBRANCH   1  18
BRANCH   1  32
ATOM     32  C   UNL     1      -0.412  10.766   0.564  0.00  0.00    +0.012 C 
ATOM     33  C   UNL     1      -1.372  11.871   1.011  0.00  0.00    +0.009 C 
ATOM     34  C   UNL     1      -0.477  10.620  -0.958  0.00  0.00    +0.009 C 
ENDBRANCH   1  32
TORSDOF 5
