REMARK  Name = ZINC09671618
REMARK  11 active torsions:
REMARK  status: ('A' for Active; 'I' for Inactive)
REMARK    1  A    between atoms: C_1  and  C_2
REMARK    2  A    between atoms: C_2  and  C_3
REMARK    3  A    between atoms: C_2  and  C_4
REMARK    4  A    between atoms: C_2  and  O_24
REMARK    5  A    between atoms: C_4  and  O_6
REMARK    6  A    between atoms: O_6  and  C_7
REMARK    7  A    between atoms: C_7  and  C_8
REMARK    8  A    between atoms: C_16  and  C_20
REMARK    9  A    between atoms: C_20  and  O_22
REMARK   10  A    between atoms: O_22  and  C_23
REMARK   11  A    between atoms: O_24  and  C_25
REMARK                            x       y       z     vdW  Elec       q    Type
REMARK                         _______ _______ _______ _____ _____    ______ ____
ROOT
ATOM      1  C   UNL     1      -1.116   1.553   1.244  0.00  0.00    +0.148 A 
ATOM      2  N   UNL     1      -0.722   1.168   2.485  0.00  0.00    -0.308 N 
ATOM      3  H   UNL     1       0.037   0.572   2.586  0.00  0.00    +0.170 HD
ATOM      4  C   UNL     1      -1.377   1.609   3.584  0.00  0.00    +0.259 A 
ATOM      5  O   UNL     1      -1.034   1.272   4.702  0.00  0.00    -0.267 OA
ATOM      6  C   UNL     1      -2.521   2.512   3.374  0.00  0.00    +0.065 A 
ATOM      7  C   UNL     1      -3.260   3.021   4.441  0.00  0.00    +0.016 A 
ATOM      8  C   UNL     1      -4.314   3.856   4.200  0.00  0.00    +0.016 A 
ATOM      9  C   UNL     1      -4.660   4.207   2.890  0.00  0.00    +0.061 A 
ATOM     10  C   UNL     1      -3.936   3.711   1.812  0.00  0.00    +0.043 A 
ATOM     11  C   UNL     1      -2.857   2.857   2.046  0.00  0.00    +0.079 A 
ATOM     12  N   UNL     1      -2.116   2.351   1.028  0.00  0.00    -0.230 NA
ENDROOT
BRANCH   9  13
ATOM     13  C   UNL     1      -5.805   5.113   2.650  0.00  0.00    +0.339 C 
ATOM     14  O   UNL     1      -6.109   5.421   1.515  0.00  0.00    -0.245 OA
BRANCH  13  15
ATOM     15  O   UNL     1      -6.510   5.597   3.691  0.00  0.00    -0.464 OA
ATOM     16  C   UNL     1      -7.620   6.480   3.381  0.00  0.00    +0.280 C 
ENDBRANCH  13  15
ENDBRANCH   9  13
BRANCH   1  17
ATOM     17  C   UNL     1      -0.349   1.031   0.056  0.00  0.00    +0.306 C 
BRANCH  17  18
ATOM     18  O   UNL     1      -0.929   1.559  -1.165  0.00  0.00    -0.454 OA
BRANCH  18  19
ATOM     19  C   UNL     1      -0.358   1.188  -2.322  0.00  0.00    +0.351 C 
ATOM     20  O   UNL     1       0.596   0.446  -2.314  0.00  0.00    -0.246 OA
BRANCH  19  22
ATOM     21  C   UNL     1      -2.363   1.254  -3.779  0.00  0.00    +0.067 C 
ATOM     22  C   UNL     1      -0.906   1.696  -3.630  0.00  0.00    +0.200 C 
ATOM     23  C   UNL     1      -0.831   3.224  -3.655  0.00  0.00    +0.067 C 
BRANCH  22  24
ATOM     24  O   UNL     1      -0.134   1.164  -4.709  0.00  0.00    -0.475 OA
BRANCH  24  25
ATOM     25  C   UNL     1      -0.124  -0.188  -4.853  0.00  0.00    +0.122 A 
ATOM     26  C   UNL     1      -0.739  -0.991  -3.904  0.00  0.00    +0.047 A 
ATOM     27  C   UNL     1      -0.733  -2.365  -4.054  0.00  0.00    +0.023 A 
ATOM     28  C   UNL     1      -0.104  -2.939  -5.144  0.00  0.00    +0.041 A 
ATOM     29  C   UNL     1       0.515  -2.139  -6.089  0.00  0.00    +0.023 A 
ATOM     30  C   UNL     1       0.505  -0.765  -5.945  0.00  0.00    +0.047 A 
ATOM     31 CL   UNL     1      -0.091  -4.665  -5.328  0.00  0.00    -0.084 Cl
ENDBRANCH  24  25
ENDBRANCH  22  24
ENDBRANCH  19  22
ENDBRANCH  18  19
ENDBRANCH  17  18
ENDBRANCH   1  17
TORSDOF 8
