REMARK  Name = ZINC09821037
REMARK  11 active torsions:
REMARK  status: ('A' for Active; 'I' for Inactive)
REMARK    1  A    between atoms: C_1  and  C_2
REMARK    2  A    between atoms: C_2  and  C_3
REMARK    3  A    between atoms: C_3  and  C_4
REMARK    4  A    between atoms: C_4  and  N_5
REMARK    5  A    between atoms: C_6  and  N_35
REMARK    6  A    between atoms: C_7  and  N_14
REMARK    7  A    between atoms: N_14  and  C_15
REMARK    8  A    between atoms: C_16  and  C_18
REMARK    9  A    between atoms: C_19  and  C_20
REMARK   10  A    between atoms: N_25  and  C_26
REMARK   11  A    between atoms: C_32  and  C_34
REMARK                            x       y       z     vdW  Elec       q    Type
REMARK                         _______ _______ _______ _____ _____    ______ ____
ROOT
ATOM      1  N   UNL     1      -6.083   3.827  -1.152  0.00  0.00    -0.264 N 
ATOM      2  C   UNL     1      -5.683   5.082  -0.511  0.00  0.00    +0.139 C 
ATOM      3  C   UNL     1      -5.167   3.076  -1.795  0.00  0.00    +0.244 C 
ATOM      4  O   UNL     1      -5.515   2.083  -2.408  0.00  0.00    -0.270 OA
ENDROOT
BRANCH   1   7
ATOM      5  N   UNL     1      -9.099   1.883  -0.360  0.00  0.00    -0.280 N 
ATOM      6  C   UNL     1      -7.778   2.266  -0.401  0.00  0.00    +0.127 A 
ATOM      7  C   UNL     1      -7.428   3.404  -1.098  0.00  0.00    +0.140 A 
ATOM      8  C   UNL     1      -8.435   4.133  -1.758  0.00  0.00    +0.277 A 
ATOM      9  O   UNL     1      -8.153   5.140  -2.385  0.00  0.00    -0.266 OA
ATOM     10  N   UNL     1      -9.713   3.711  -1.692  0.00  0.00    -0.273 N 
ATOM     11  H   UNL     1     -10.429   4.228  -2.160  0.00  0.00    +0.173 HD
ATOM     12  C   UNL     1     -10.036   2.602  -1.003  0.00  0.00    +0.331 A 
ATOM     13  O   UNL     1     -11.197   2.244  -0.960  0.00  0.00    -0.246 OA
BRANCH   6  14
ATOM     14  N   UNL     1      -6.819   1.527   0.250  0.00  0.00    -0.343 N 
ATOM     15  H   UNL     1      -5.910   1.857   0.310  0.00  0.00    +0.144 HD
ATOM     16  H   UNL     1      -7.053   0.674   0.650  0.00  0.00    +0.144 HD
ENDBRANCH   6  14
BRANCH   5  17
ATOM     17  C   UNL     1      -9.486   0.679   0.381  0.00  0.00    +0.128 C 
BRANCH  17  18
ATOM     18  C   UNL     1      -9.418  -0.535  -0.547  0.00  0.00    +0.021 C 
BRANCH  18  20
ATOM     19  C   UNL     1      -9.755  -3.006  -0.702  0.00  0.00    +0.004 C 
ATOM     20  C   UNL     1      -9.822  -1.792   0.227  0.00  0.00    -0.002 C 
ENDBRANCH  18  20
ENDBRANCH  17  18
ENDBRANCH   5  17
ENDBRANCH   1   7
BRANCH   3  21
ATOM     21  C   UNL     1      -3.799   3.442  -1.756  0.00  0.00    +0.070 C 
ATOM     22  C   UNL     1      -2.879   2.688  -2.401  0.00  0.00    +0.033 C 
BRANCH  22  23
ATOM     23  C   UNL     1      -1.462   3.067  -2.361  0.00  0.00    +0.073 A 
ATOM     24  C   UNL     1      -0.517   2.308  -3.012  0.00  0.00    +0.076 A 
ATOM     25  S   UNL     1       0.968   3.227  -2.630  0.00  0.00    -0.059 S 
ATOM     26  C   UNL     1       0.198   4.506  -1.649  0.00  0.00    +0.172 A 
ATOM     27  N   UNL     1      -1.069   4.149  -1.688  0.00  0.00    -0.225 NA
ATOM     28  N   UNL     1       0.783   5.594  -1.011  0.00  0.00    -0.219 N 
ATOM     29  C   UNL     1       0.010   6.512  -0.399  0.00  0.00    +0.223 C 
ATOM     30  O   UNL     1      -1.189   6.344  -0.326  0.00  0.00    -0.275 OA
ATOM     31  C   UNL     1       0.635   7.749   0.195  0.00  0.00    +0.110 C 
BRANCH  28  32
ATOM     32  C   UNL     1       2.177   5.736  -1.005  0.00  0.00    +0.043 A 
ATOM     33  C   UNL     1       2.928   5.184   0.024  0.00  0.00    +0.024 A 
ATOM     34  C   UNL     1       4.303   5.321   0.024  0.00  0.00    +0.002 A 
ATOM     35  C   UNL     1       4.930   6.017  -0.993  0.00  0.00    +0.000 A 
ATOM     36  C   UNL     1       4.184   6.573  -2.017  0.00  0.00    +0.002 A 
ATOM     37  C   UNL     1       2.810   6.434  -2.025  0.00  0.00    +0.024 A 
ENDBRANCH  28  32
ENDBRANCH  22  23
ENDBRANCH   3  21
TORSDOF 8
