REMARK  Name = ZINC08813581
REMARK  10 active torsions:
REMARK  status: ('A' for Active; 'I' for Inactive)
REMARK    1  A    between atoms: C_1  and  C_2
REMARK    2  A    between atoms: C_2  and  C_4
REMARK    3  A    between atoms: C_2  and  N_14
REMARK    4  A    between atoms: C_15  and  C_17
REMARK    5  A    between atoms: C_20  and  C_23
REMARK    6  A    between atoms: C_23  and  N_24
REMARK    7  A    between atoms: N_24  and  S_25
REMARK    8  A    between atoms: S_25  and  C_28
REMARK    9  A    between atoms: C_31  and  N_34
REMARK   10  A    between atoms: C_35  and  C_37
REMARK                            x       y       z     vdW  Elec       q    Type
REMARK                         _______ _______ _______ _____ _____    ______ ____
ROOT
ATOM      1  C   UNL     1      -2.636  -0.758   1.151  0.00  0.00    +0.075 C 
ATOM      2  C   UNL     1      -3.491   0.178   0.295  0.00  0.00    +0.013 C 
ATOM      3  C   UNL     1      -3.621   1.532   0.994  0.00  0.00    +0.005 C 
ATOM      4  C   UNL     1      -4.286   1.340   2.358  0.00  0.00    +0.005 C 
ATOM      5  C   UNL     1      -3.431   0.404   3.215  0.00  0.00    +0.005 C 
ATOM      6  C   UNL     1      -3.301  -0.951   2.516  0.00  0.00    +0.013 C 
ENDROOT
BRANCH   1   8
ATOM      7  N   UNL     1      -0.492   0.104   0.269  0.00  0.00    -0.309 N 
ATOM      8  C   UNL     1      -1.267  -0.156   1.340  0.00  0.00    +0.217 C 
ATOM      9  O   UNL     1      -0.863   0.094   2.456  0.00  0.00    -0.275 OA
ATOM     10  H   UNL     1      -0.815  -0.097  -0.624  0.00  0.00    +0.149 HD
BRANCH   7  12
ATOM     11  C   UNL     1       0.717   2.211   0.550  0.00  0.00    +0.033 C 
ATOM     12  C   UNL     1       0.839   0.689   0.452  0.00  0.00    +0.100 C 
BRANCH  12  13
ATOM     13  C   UNL     1       1.712   0.329  -0.722  0.00  0.00    -0.024 A 
ATOM     14  C   UNL     1       1.188   0.341  -2.001  0.00  0.00    +0.009 A 
ATOM     15  C   UNL     1       1.985   0.010  -3.080  0.00  0.00    +0.050 A 
ATOM     16  C   UNL     1       3.314  -0.334  -2.883  0.00  0.00    +0.162 A 
ATOM     17  C   UNL     1       3.842  -0.343  -1.597  0.00  0.00    +0.162 A 
ATOM     18  C   UNL     1       3.037  -0.006  -0.519  0.00  0.00    +0.055 A 
ATOM     19  O   UNL     1       5.145  -0.670  -1.382  0.00  0.00    -0.485 OA
ATOM     20  C   UNL     1       5.821  -1.356  -2.442  0.00  0.00    +0.270 C 
ATOM     21  C   UNL     1       5.504  -0.635  -3.759  0.00  0.00    +0.270 C 
ATOM     22  O   UNL     1       4.086  -0.661  -3.955  0.00  0.00    -0.485 OA
ENDBRANCH  12  13
ENDBRANCH   7  12
ENDBRANCH   1   8
BRANCH   4  23
ATOM     23  C   UNL     1      -4.417   2.694   3.058  0.00  0.00    +0.109 C 
BRANCH  23  24
ATOM     24  N   UNL     1      -5.160   2.528   4.309  0.00  0.00    -0.190 NA
ATOM     25  H   UNL     1      -5.664   1.715   4.470  0.00  0.00    +0.148 HD
BRANCH  24  26
ATOM     26  S   UNL     1      -5.138   3.728   5.450  0.00  0.00    +0.058 S 
ATOM     27  O   UNL     1      -5.962   3.286   6.520  0.00  0.00    -0.153 OA
ATOM     28  O   UNL     1      -3.776   4.088   5.636  0.00  0.00    -0.153 OA
BRANCH  26  29
ATOM     29  C   UNL     1      -5.939   5.131   4.746  0.00  0.00    +0.105 A 
ATOM     30  C   UNL     1      -5.201   6.064   4.040  0.00  0.00    +0.030 A 
ATOM     31  C   UNL     1      -5.825   7.164   3.486  0.00  0.00    +0.025 A 
ATOM     32  C   UNL     1      -7.195   7.334   3.639  0.00  0.00    +0.033 A 
ATOM     33  C   UNL     1      -7.933   6.396   4.349  0.00  0.00    +0.025 A 
ATOM     34  C   UNL     1      -7.303   5.294   4.896  0.00  0.00    +0.030 A 
BRANCH  32  35
ATOM     35  N   UNL     1      -7.830   8.448   3.080  0.00  0.00    -0.286 N 
ATOM     36  C   UNL     1      -7.381   8.968   1.921  0.00  0.00    +0.214 C 
ATOM     37  O   UNL     1      -6.490   8.415   1.313  0.00  0.00    -0.276 OA
ATOM     38  C   UNL     1      -7.988  10.237   1.379  0.00  0.00    +0.109 C 
ATOM     39  H   UNL     1      -8.593   8.847   3.527  0.00  0.00    +0.155 HD
ENDBRANCH  32  35
ENDBRANCH  26  29
ENDBRANCH  24  26
ENDBRANCH  23  24
ENDBRANCH   4  23
TORSDOF 8
