REMARK  Name = ZINC11027385
REMARK  8 active torsions:
REMARK  status: ('A' for Active; 'I' for Inactive)
REMARK    1  A    between atoms: C_1  and  C_2
REMARK    2  A    between atoms: C_2  and  C_3
REMARK    3  A    between atoms: C_6  and  S_8
REMARK    4  A    between atoms: S_8  and  N_11
REMARK    5  A    between atoms: N_11  and  C_12
REMARK    6  A    between atoms: C_15  and  C_18
REMARK    7  A    between atoms: C_25  and  O_27
REMARK    8  A    between atoms: O_27  and  C_28
REMARK                            x       y       z     vdW  Elec       q    Type
REMARK                         _______ _______ _______ _____ _____    ______ ____
ROOT
ATOM      1  C   UNL     1      -0.285   7.205   4.385  0.00  0.00    +0.048 A 
ATOM      2  C   UNL     1      -0.055   5.834   4.413  0.00  0.00    +0.025 A 
ATOM      3  C   UNL     1       0.252   5.210   5.603  0.00  0.00    +0.012 A 
ATOM      4  C   UNL     1       0.322   5.952   6.781  0.00  0.00    +0.002 A 
ATOM      5  C   UNL     1       0.086   7.325   6.752  0.00  0.00    +0.012 A 
ATOM      6  C   UNL     1      -0.215   7.947   5.559  0.00  0.00    +0.025 A 
ENDROOT
BRANCH   4   7
ATOM      7  C   UNL     1       0.647   5.281   8.064  0.00  0.00    +0.091 A 
ATOM      8  C   UNL     1       0.893   3.948   8.230  0.00  0.00    +0.143 A 
ATOM      9  N   UNL     1       1.151   3.750   9.552  0.00  0.00    -0.216 N 
ATOM     10  C   UNL     1       1.048   4.968  10.174  0.00  0.00    +0.155 A 
ATOM     11  N   UNL     1       0.744   5.878   9.260  0.00  0.00    -0.226 NA
ATOM     12  C   UNL     1       1.264   5.051  11.564  0.00  0.00    +0.053 A 
ATOM     13  C   UNL     1       1.569   3.921  12.258  0.00  0.00    +0.072 A 
ATOM     14  C   UNL     1       1.666   2.688  11.589  0.00  0.00    +0.233 A 
ATOM     15  N   UNL     1       1.467   2.608  10.296  0.00  0.00    -0.127 NA
BRANCH  14  16
ATOM     16  O   UNL     1       1.972   1.567  12.290  0.00  0.00    -0.479 OA
ATOM     17  C   UNL     1       2.057   0.345  11.555  0.00  0.00    +0.279 C 
ENDBRANCH  14  16
ENDBRANCH   4   7
BRANCH   1  18
ATOM     18  N   UNL     1      -0.591   7.835   3.178  0.00  0.00    -0.216 N 
ATOM     19  H   UNL     1      -1.468   7.721   2.780  0.00  0.00    +0.174 HD
BRANCH  18  20
ATOM     20  S   UNL     1       0.543   8.779   2.426  0.00  0.00    +0.079 S 
ATOM     21  O   UNL     1       1.035   9.683   3.406  0.00  0.00    -0.149 OA
ATOM     22  O   UNL     1      -0.039   9.220   1.207  0.00  0.00    -0.149 OA
BRANCH  20  26
ATOM     23  C   UNL     1       4.139   6.265   1.728  0.00  0.00    -0.009 A 
ATOM     24  C   UNL     1       3.195   6.199   0.757  0.00  0.00    +0.013 A 
ATOM     25  C   UNL     1       2.042   6.949   0.891  0.00  0.00    +0.037 A 
ATOM     26  C   UNL     1       1.889   7.728   1.990  0.00  0.00    +0.146 A 
ATOM     27  S   UNL     1       3.401   7.408   2.883  0.00  0.00    -0.073 S 
BRANCH  23  29
ATOM     28  C   UNL     1       6.546   6.408   1.151  0.00  0.00    +0.009 C 
ATOM     29  C   UNL     1       5.464   5.553   1.813  0.00  0.00    +0.039 C 
ENDBRANCH  23  29
ENDBRANCH  20  26
ENDBRANCH  18  20
ENDBRANCH   1  18
TORSDOF 6
