REMARK  Name = ZINC35269235
REMARK  8 active torsions:
REMARK  status: ('A' for Active; 'I' for Inactive)
REMARK    1  A    between atoms: C_1  and  C_2
REMARK    2  A    between atoms: C_2  and  C_28
REMARK    3  A    between atoms: N_5  and  N_9
REMARK    4  A    between atoms: C_10  and  C_12
REMARK    5  A    between atoms: C_12  and  N_13
REMARK    6  A    between atoms: C_19  and  C_21
REMARK    7  A    between atoms: C_28  and  C_29
REMARK    8  A    between atoms: C_29  and  C_30
REMARK                            x       y       z     vdW  Elec       q    Type
REMARK                         _______ _______ _______ _____ _____    ______ ____
ROOT
ATOM      1  N   UNL     1      -1.184  -2.583   2.002  0.00  0.00    -0.223 N 
ATOM      2  C   UNL     1      -1.513  -3.883   1.871  0.00  0.00    +0.244 C 
ATOM      3  O   UNL     1      -0.734  -4.657   1.354  0.00  0.00    -0.273 OA
ATOM      4  H   UNL     1      -1.807  -1.965   2.415  0.00  0.00    +0.174 HD
ENDROOT
BRANCH   1   9
ATOM      5  C   UNL     1       1.998   0.368   0.368  0.00  0.00    +0.041 C 
ATOM      6  C   UNL     1       1.717  -1.135   0.324  0.00  0.00    +0.112 C 
ATOM      7  C   UNL     1       0.228  -1.403   0.417  0.00  0.00    +0.263 C 
ATOM      8  O   UNL     1      -0.631  -1.042  -0.359  0.00  0.00    -0.271 OA
ATOM      9  N   UNL     1       0.057  -2.124   1.542  0.00  0.00    -0.137 N 
ATOM     10  C   UNL     1       1.219  -2.348   2.166  0.00  0.00    +0.326 C 
ATOM     11  O   UNL     1       1.320  -2.977   3.202  0.00  0.00    -0.251 OA
ATOM     12  N   UNL     1       2.264  -1.800   1.519  0.00  0.00    -0.284 N 
ATOM     13  H   UNL     1       3.195  -1.836   1.788  0.00  0.00    +0.151 HD
BRANCH   6  14
ATOM     14  C   UNL     1       2.299  -1.753  -0.949  0.00  0.00    +0.040 C 
BRANCH  14  15
ATOM     15  C   UNL     1       3.824  -1.625  -0.927  0.00  0.00    +0.038 C 
BRANCH  15  16
ATOM     16  C   UNL     1       4.397  -2.233  -2.181  0.00  0.00    -0.047 A 
ATOM     17  C   UNL     1       4.736  -3.573  -2.207  0.00  0.00    +0.003 A 
ATOM     18  C   UNL     1       5.262  -4.131  -3.357  0.00  0.00    +0.000 A 
ATOM     19  C   UNL     1       5.449  -3.350  -4.481  0.00  0.00    +0.000 A 
ATOM     20  C   UNL     1       5.109  -2.010  -4.456  0.00  0.00    +0.000 A 
ATOM     21  C   UNL     1       4.579  -1.453  -3.308  0.00  0.00    +0.003 A 
ENDBRANCH  15  16
ENDBRANCH  14  15
ENDBRANCH   6  14
ENDBRANCH   1   9
BRANCH   2  22
ATOM     22  C   UNL     1      -2.848  -4.377   2.365  0.00  0.00    +0.182 C 
BRANCH  22  23
ATOM     23  N   UNL     1      -2.964  -5.818   2.108  0.00  0.00    -0.291 NA
ATOM     24  C   UNL     1      -2.994  -6.094   0.665  0.00  0.00    +0.104 C 
ATOM     25  C   UNL     1      -2.932  -7.609   0.437  0.00  0.00    +0.123 C 
ATOM     26  N   UNL     1      -4.008  -8.243   1.214  0.00  0.00    -0.295 N 
ATOM     27  C   UNL     1      -4.126  -7.907   2.641  0.00  0.00    +0.123 C 
ATOM     28  C   UNL     1      -4.141  -6.381   2.783  0.00  0.00    +0.104 C 
ATOM     29  C   UNL     1      -4.862  -9.109   0.634  0.00  0.00    +0.248 C 
ATOM     30  O   UNL     1      -5.699  -9.679   1.306  0.00  0.00    -0.270 OA
BRANCH  29  31
ATOM     31  C   UNL     1      -4.781  -9.365  -0.819  0.00  0.00    +0.055 A 
ATOM     32  C   UNL     1      -3.567  -9.741  -1.399  0.00  0.00    +0.014 A 
ATOM     33  C   UNL     1      -3.498  -9.979  -2.755  0.00  0.00    +0.001 A 
ATOM     34  C   UNL     1      -4.629  -9.846  -3.543  0.00  0.00    +0.001 A 
ATOM     35  C   UNL     1      -5.834  -9.474  -2.977  0.00  0.00    +0.021 A 
ATOM     36  C   UNL     1      -5.919  -9.239  -1.619  0.00  0.00    +0.053 A 
ATOM     37 CL   UNL     1      -7.435  -8.779  -0.908  0.00  0.00    -0.083 Cl
ENDBRANCH  29  31
ENDBRANCH  22  23
ENDBRANCH   2  22
TORSDOF 7
