REMARK  Name = ZINC39708770
REMARK  7 active torsions:
REMARK  status: ('A' for Active; 'I' for Inactive)
REMARK    1  A    between atoms: C_1  and  C_2
REMARK    2  A    between atoms: C_7  and  C_12
REMARK    3  A    between atoms: C_12  and  C_30
REMARK    4  A    between atoms: C_13  and  C_14
REMARK    5  A    between atoms: C_17  and  O_20
REMARK    6  A    between atoms: O_20  and  C_21
REMARK    7  A    between atoms: C_21  and  C_22
REMARK                            x       y       z     vdW  Elec       q    Type
REMARK                         _______ _______ _______ _____ _____    ______ ____
ROOT
ATOM      1  C   UNL     1      -1.052  -4.945   2.564  0.00  0.00    +0.072 C 
ATOM      2  C   UNL     1      -1.020  -6.293   2.595  0.00  0.00    +0.026 C 
ENDROOT
BRANCH   1   9
ATOM      3  C   UNL     1       1.069   1.712   2.728  0.00  0.00    +0.044 C 
ATOM      4  C   UNL     1       0.640   0.370   2.192  0.00  0.00    -0.048 A 
ATOM      5  C   UNL     1      -0.066   0.324   0.976  0.00  0.00    +0.005 A 
ATOM      6  C   UNL     1      -0.488  -0.832   0.425  0.00  0.00    +0.027 A 
ATOM      7  C   UNL     1      -0.209  -2.104   1.105  0.00  0.00    +0.060 A 
ATOM      8  N   UNL     1      -0.488  -3.342   0.815  0.00  0.00    -0.359 N 
ATOM      9  C   UNL     1       0.058  -4.180   1.891  0.00  0.00    +0.216 C 
ATOM     10  N   UNL     1       0.693  -3.264   2.847  0.00  0.00    -0.359 N 
ATOM     11  C   UNL     1       0.538  -2.054   2.391  0.00  0.00    +0.061 A 
ATOM     12  C   UNL     1       0.952  -0.737   2.894  0.00  0.00    +0.030 A 
ATOM     13  H   UNL     1      -0.968  -3.654   0.033  0.00  0.00    +0.162 HD
ATOM     14  H   UNL     1       1.144  -3.514   3.668  0.00  0.00    +0.162 HD
ENDBRANCH   1   9
BRANCH   2  15
ATOM     15  C   UNL     1      -2.176  -7.045   3.106  0.00  0.00    -0.024 A 
ATOM     16  C   UNL     1      -3.475  -6.596   2.848  0.00  0.00    +0.011 A 
ATOM     17  C   UNL     1      -4.554  -7.303   3.328  0.00  0.00    +0.046 A 
ATOM     18  C   UNL     1      -4.354  -8.463   4.068  0.00  0.00    +0.121 A 
ATOM     19  C   UNL     1      -3.066  -8.914   4.328  0.00  0.00    +0.046 A 
ATOM     20  C   UNL     1      -1.980  -8.216   3.847  0.00  0.00    +0.011 A 
BRANCH  18  21
ATOM     21  O   UNL     1      -5.422  -9.157   4.539  0.00  0.00    -0.483 OA
BRANCH  21  22
ATOM     22  C   UNL     1      -5.145 -10.339   5.293  0.00  0.00    +0.324 C 
BRANCH  22  23
ATOM     23  C   UNL     1      -6.442 -10.971   5.729  0.00  0.00    +0.253 C 
ATOM     24  O   UNL     1      -7.498 -10.459   5.426  0.00  0.00    -0.272 OA
ATOM     25  N   UNL     1      -6.427 -12.105   6.458  0.00  0.00    -0.294 N 
ATOM     26  C   UNL     1      -5.157 -12.741   6.844  0.00  0.00    +0.136 C 
ATOM     27  C   UNL     1      -5.190 -13.010   8.352  0.00  0.00    +0.179 C 
ATOM     28  O   UNL     1      -6.384 -13.727   8.677  0.00  0.00    -0.377 OA
ATOM     29  C   UNL     1      -7.590 -13.012   8.398  0.00  0.00    +0.179 C 
ATOM     30  C   UNL     1      -7.680 -12.741   6.896  0.00  0.00    +0.136 C 
ENDBRANCH  22  23
ENDBRANCH  21  22
ENDBRANCH  18  21
ENDBRANCH   2  15
BRANCH   1  31
ATOM     31  C   UNL     1      -2.142  -4.241   3.171  0.00  0.00    +0.099 C 
ATOM     32  N   UNL     1      -3.006  -3.682   3.652  0.00  0.00    -0.191 NA
ENDBRANCH   1  31
TORSDOF 6
