REMARK  Name = ZINC39362365
REMARK  9 active torsions:
REMARK  status: ('A' for Active; 'I' for Inactive)
REMARK    1  A    between atoms: C_1  and  C_2
REMARK    2  A    between atoms: C_8  and  C_10
REMARK    3  A    between atoms: C_10  and  S_11
REMARK    4  A    between atoms: S_11  and  C_12
REMARK    5  A    between atoms: C_16  and  C_27
REMARK    6  A    between atoms: N_18  and  C_19
REMARK    7  A    between atoms: C_22  and  O_25
REMARK    8  A    between atoms: O_25  and  C_26
REMARK    9  A    between atoms: C_27  and  C_28
REMARK                            x       y       z     vdW  Elec       q    Type
REMARK                         _______ _______ _______ _____ _____    ______ ____
ROOT
ATOM      1  C   UNL     1       0.132  -7.885   4.045  0.00  0.00    +0.276 C 
ATOM      2  N   UNL     1      -1.032  -7.569   4.875  0.00  0.00    -0.156 NA
ATOM      3  N   UNL     1      -0.703  -7.134   5.976  0.00  0.00    -0.166 NA
ATOM      4  C   UNL     1       0.752  -7.064   6.122  0.00  0.00    +0.222 C 
ATOM      5  N   UNL     1       1.320  -7.558   4.853  0.00  0.00    -0.274 N 
ENDROOT
BRANCH   5   6
ATOM      6  C   UNL     1       2.668  -7.686   4.500  0.00  0.00    +0.034 A 
ATOM      7  C   UNL     1       3.660  -7.330   5.404  0.00  0.00    +0.027 A 
ATOM      8  C   UNL     1       4.990  -7.457   5.054  0.00  0.00    +0.047 A 
ATOM      9  C   UNL     1       5.335  -7.940   3.800  0.00  0.00    +0.120 A 
ATOM     10  C   UNL     1       4.344  -8.296   2.897  0.00  0.00    +0.047 A 
ATOM     11  C   UNL     1       3.014  -8.175   3.247  0.00  0.00    +0.027 A 
BRANCH   9  12
ATOM     12  O   UNL     1       6.645  -8.065   3.457  0.00  0.00    -0.495 OA
ATOM     13  C   UNL     1       6.928  -8.569   2.150  0.00  0.00    +0.277 C 
ENDBRANCH   9  12
ENDBRANCH   5   6
BRANCH   1  14
ATOM     14  S   UNL     1       0.110  -6.881   2.534  0.00  0.00    -0.104 S 
BRANCH  14  15
ATOM     15  C   UNL     1       0.089  -5.172   3.144  0.00  0.00    +0.168 C 
BRANCH  15  23
ATOM     16  C   UNL     1      -0.018   1.503   0.010  0.00  0.00    +0.066 C 
ATOM     17  C   UNL     1       0.002  -0.004   0.002  0.00  0.00    +0.047 A 
ATOM     18  C   UNL     1       0.006  -0.706  -1.158  0.00  0.00    +0.071 A 
ATOM     19  S   UNL     1       0.032  -2.379  -0.535  0.00  0.00    -0.060 S 
ATOM     20  C   UNL     1       0.036  -2.015   1.108  0.00  0.00    +0.165 A 
ATOM     21  N   UNL     1       0.023  -0.700   1.124  0.00  0.00    -0.230 NA
ATOM     22  N   UNL     1       0.053  -2.891   2.187  0.00  0.00    -0.264 N 
ATOM     23  C   UNL     1       0.071  -4.222   1.974  0.00  0.00    +0.229 C 
ATOM     24  O   UNL     1       0.071  -4.655   0.841  0.00  0.00    -0.275 OA
ATOM     25  H   UNL     1       0.053  -2.545   3.093  0.00  0.00    +0.157 HD
ENDBRANCH  15  23
ENDBRANCH  14  15
ENDBRANCH   1  14
BRANCH   4  26
ATOM     26  C   UNL     1       1.187  -5.618   6.366  0.00  0.00    +0.102 C 
BRANCH  26  27
ATOM     27  C   UNL     1       0.669  -5.157   7.704  0.00  0.00    +0.029 A 
ATOM     28  N   UNL     1      -0.601  -4.660   7.815  0.00  0.00    -0.311 N 
ATOM     29  C   UNL     1      -1.073  -4.246   9.005  0.00  0.00    +0.327 A 
ATOM     30  O   UNL     1      -2.205  -3.807   9.081  0.00  0.00    -0.247 OA
ATOM     31  N   UNL     1      -0.311  -4.311  10.112  0.00  0.00    -0.275 N 
ATOM     32  C   UNL     1       0.946  -4.794  10.045  0.00  0.00    +0.254 A 
ATOM     33  O   UNL     1       1.636  -4.853  11.046  0.00  0.00    -0.268 OA
ATOM     34  C   UNL     1       1.454  -5.238   8.800  0.00  0.00    +0.091 A 
ATOM     35  H   UNL     1      -0.667  -4.008  10.962  0.00  0.00    +0.173 HD
ATOM     36  H   UNL     1      -1.166  -4.605   7.028  0.00  0.00    +0.170 HD
ENDBRANCH  26  27
ENDBRANCH   4  26
TORSDOF 7
