REMARK  Name = ZINC21170257
REMARK  7 active torsions:
REMARK  status: ('A' for Active; 'I' for Inactive)
REMARK    1  A    between atoms: C_1  and  C_2
REMARK    2  A    between atoms: C_9  and  S_12
REMARK    3  A    between atoms: S_12  and  C_13
REMARK    4  A    between atoms: C_13  and  C_14
REMARK    5  A    between atoms: C_17  and  C_19
REMARK    6  A    between atoms: C_20  and  C_30
REMARK    7  A    between atoms: C_23  and  C_24
REMARK                            x       y       z     vdW  Elec       q    Type
REMARK                         _______ _______ _______ _____ _____    ______ ____
ROOT
ATOM      1  C   UNL     1       5.087   4.235   2.704  0.00  0.00    +0.228 A 
ATOM      2  N   UNL     1       4.795   2.984   2.489  0.00  0.00    -0.111 NA
ATOM      3  N   UNL     1       3.735   2.908   1.762  0.00  0.00    -0.107 NA
ATOM      4  C   UNL     1       3.312   4.120   1.487  0.00  0.00    +0.254 A 
ATOM      5  O   UNL     1       4.164   4.984   2.075  0.00  0.00    -0.419 OA
ENDROOT
BRANCH   4   6
ATOM      6  C   UNL     1       2.127   4.472   0.678  0.00  0.00    +0.108 A 
ATOM      7  C   UNL     1       1.648   5.715   0.363  0.00  0.00    +0.147 A 
ATOM      8  O   UNL     1       0.557   5.525  -0.388  0.00  0.00    -0.359 OA
ATOM      9  N   UNL     1       0.307   4.360  -0.580  0.00  0.00    -0.077 NA
ATOM     10  C   UNL     1       1.169   3.570   0.010  0.00  0.00    +0.126 A 
ATOM     11  C   UNL     1       2.235   7.039   0.781  0.00  0.00    +0.090 C 
BRANCH  10  12
ATOM     12  C   UNL     1       1.182   2.086   0.002  0.00  0.00    +0.004 A 
ATOM     13  C   UNL     1      -0.017   1.376   0.010  0.00  0.00    +0.010 A 
ATOM     14  C   UNL     1       0.002  -0.004   0.002  0.00  0.00    +0.001 A 
ATOM     15  C   UNL     1       1.208  -0.682  -0.013  0.00  0.00    +0.000 A 
ATOM     16  C   UNL     1       2.401   0.018  -0.020  0.00  0.00    +0.001 A 
ATOM     17  C   UNL     1       2.394   1.398  -0.012  0.00  0.00    +0.010 A 
ENDBRANCH  10  12
ENDBRANCH   4   6
BRANCH   1  18
ATOM     18  C   UNL     1       6.253   4.750   3.509  0.00  0.00    +0.175 C 
BRANCH  18  19
ATOM     19  S   UNL     1       7.684   4.974   2.424  0.00  0.00    -0.078 S 
BRANCH  19  28
ATOM     20  C   UNL     1      11.657   7.392   8.523  0.00  0.00    +0.044 C 
ATOM     21  C   UNL     1      11.328   7.011   7.102  0.00  0.00    -0.048 A 
ATOM     22  C   UNL     1      12.301   7.114   6.119  0.00  0.00    +0.005 A 
ATOM     23  C   UNL     1      12.015   6.770   4.814  0.00  0.00    +0.028 A 
ATOM     24  C   UNL     1      10.748   6.317   4.482  0.00  0.00    +0.067 A 
ATOM     25  C   UNL     1       9.759   6.210   5.473  0.00  0.00    +0.090 A 
ATOM     26  C   UNL     1      10.064   6.563   6.790  0.00  0.00    +0.033 A 
ATOM     27  N   UNL     1       8.632   5.751   4.867  0.00  0.00    -0.222 NA
ATOM     28  C   UNL     1       8.864   5.564   3.591  0.00  0.00    +0.168 A 
ATOM     29  N   UNL     1      10.155   5.902   3.300  0.00  0.00    -0.333 N 
ATOM     30  H   UNL     1      10.737   5.896   2.366  0.00  0.00    +0.168 HD
ENDBRANCH  19  28
ENDBRANCH  18  19
ENDBRANCH   1  18
TORSDOF 5
