REMARK  Name = ZINC39211257
REMARK  17 active torsions:
REMARK  status: ('A' for Active; 'I' for Inactive)
REMARK    1  A    between atoms: C_1  and  C_2
REMARK    2  A    between atoms: C_5  and  S_8
REMARK    3  A    between atoms: S_8  and  N_11
REMARK    4  A    between atoms: N_11  and  C_12
REMARK    5  A    between atoms: C_12  and  C_14
REMARK    6  A    between atoms: C_12  and  C_17
REMARK    7  A    between atoms: C_14  and  C_15
REMARK    8  A    between atoms: C_14  and  C_16
REMARK    9  A    between atoms: C_17  and  O_19
REMARK   10  A    between atoms: O_19  and  C_20
REMARK   11  A    between atoms: C_20  and  C_21
REMARK   12  A    between atoms: C_21  and  C_23
REMARK   13  A    between atoms: C_24  and  C_34
REMARK   14  A    between atoms: C_25  and  C_30
REMARK   15  A    between atoms: C_26  and  C_29
REMARK   16  A    between atoms: C_30  and  O_32
REMARK   17  A    between atoms: O_32  and  C_33
REMARK                            x       y       z     vdW  Elec       q    Type
REMARK                         _______ _______ _______ _____ _____    ______ ____
ROOT
ATOM      1  C   UNL     1       3.652  -5.689   0.898  0.00  0.00    +0.327 C 
ATOM      2  O   UNL     1       3.618  -6.581   0.084  0.00  0.00    -0.249 OA
ENDROOT
BRANCH   1   3
ATOM      3  C   UNL     1       2.559  -4.651   0.924  0.00  0.00    +0.187 C 
BRANCH   3   4
ATOM      4  C   UNL     1       3.165  -3.266   0.686  0.00  0.00    +0.012 C 
ATOM      5  C   UNL     1       2.043  -2.232   0.568  0.00  0.00    +0.009 C 
ATOM      6  C   UNL     1       4.075  -2.899   1.859  0.00  0.00    +0.009 C 
ENDBRANCH   3   4
BRANCH   3   7
ATOM      7  N   UNL     1       1.583  -4.944  -0.128  0.00  0.00    -0.176 NA
ATOM      8  H   UNL     1       1.740  -4.638  -1.035  0.00  0.00    +0.149 HD
BRANCH   7   9
ATOM      9  S   UNL     1       0.210  -5.798   0.232  0.00  0.00    +0.059 S 
ATOM     10  O   UNL     1       0.624  -6.944   0.964  0.00  0.00    -0.153 OA
ATOM     11  O   UNL     1      -0.537  -5.893  -0.974  0.00  0.00    -0.153 OA
BRANCH   9  16
ATOM     12  C   UNL     1      -3.055  -2.421   4.019  0.00  0.00    +0.044 C 
ATOM     13  C   UNL     1      -2.240  -3.265   3.073  0.00  0.00    -0.050 A 
ATOM     14  C   UNL     1      -2.345  -3.071   1.708  0.00  0.00    +0.005 A 
ATOM     15  C   UNL     1      -1.596  -3.844   0.841  0.00  0.00    +0.029 A 
ATOM     16  C   UNL     1      -0.743  -4.811   1.338  0.00  0.00    +0.105 A 
ATOM     17  C   UNL     1      -0.637  -5.005   2.702  0.00  0.00    +0.029 A 
ATOM     18  C   UNL     1      -1.382  -4.228   3.570  0.00  0.00    +0.005 A 
ENDBRANCH   9  16
ENDBRANCH   7   9
ENDBRANCH   3   7
ENDBRANCH   1   3
BRANCH   1  19
ATOM     19  O   UNL     1       4.663  -5.621   1.778  0.00  0.00    -0.455 OA
BRANCH  19  20
ATOM     20  C   UNL     1       5.664  -6.637   1.696  0.00  0.00    +0.313 C 
BRANCH  20  21
ATOM     21  C   UNL     1       6.710  -6.399   2.755  0.00  0.00    +0.217 C 
ATOM     22  O   UNL     1       6.607  -5.452   3.507  0.00  0.00    -0.287 OA
BRANCH  21  23
ATOM     23  C   UNL     1       7.811  -7.281   2.873  0.00  0.00    +0.090 A 
ATOM     24  C   UNL     1       8.830  -7.184   3.795  0.00  0.00    -0.008 A 
ATOM     25  C   UNL     1       9.706  -8.264   3.551  0.00  0.00    +0.083 A 
ATOM     26  C   UNL     1       9.185  -8.980   2.487  0.00  0.00    +0.028 A 
ATOM     27  N   UNL     1       8.048  -8.391   2.089  0.00  0.00    -0.355 N 
ATOM     28  H   UNL     1       7.483  -8.696   1.362  0.00  0.00    +0.166 HD
ATOM     29  C   UNL     1       9.792 -10.219   1.882  0.00  0.00    +0.064 C 
ATOM     30  C   UNL     1       8.982  -6.128   4.859  0.00  0.00    +0.047 C 
BRANCH  25  31
ATOM     31  C   UNL     1      10.942  -8.572   4.291  0.00  0.00    +0.341 C 
ATOM     32  O   UNL     1      10.902  -9.295   5.266  0.00  0.00    -0.245 OA
BRANCH  31  33
ATOM     33  O   UNL     1      12.117  -8.050   3.886  0.00  0.00    -0.464 OA
ATOM     34  C   UNL     1      13.275  -8.391   4.650  0.00  0.00    +0.280 C 
ENDBRANCH  31  33
ENDBRANCH  25  31
ENDBRANCH  21  23
ENDBRANCH  20  21
ENDBRANCH  19  20
ENDBRANCH   1  19
TORSDOF 11
