REMARK  Name = ZINC14950539
REMARK  7 active torsions:
REMARK  status: ('A' for Active; 'I' for Inactive)
REMARK    1  A    between atoms: C_3  and  C_10
REMARK    2  A    between atoms: C_10  and  N_11
REMARK    3  A    between atoms: N_11  and  C_12
REMARK    4  A    between atoms: N_11  and  C_19
REMARK    5  A    between atoms: C_12  and  C_13
REMARK    6  A    between atoms: C_19  and  C_20
REMARK    7  A    between atoms: N_23  and  C_26
REMARK                            x       y       z     vdW  Elec       q    Type
REMARK                         _______ _______ _______ _____ _____    ______ ____
ROOT
ATOM      1  N   UNL     1       4.111   2.655  -1.268  0.00  0.00    +0.384 N 
ATOM      2  H   UNL     1       4.571   1.804  -1.554  0.00  0.00    -0.081 HD
ENDROOT
BRANCH   1   3
ATOM      3  C   UNL     1       3.104   3.028  -2.270  0.00  0.00    -0.041 C 
BRANCH   3   6
ATOM      4  C   UNL     1       1.553  -0.076  -3.783  0.00  0.00    +0.003 A 
ATOM      5  C   UNL     1       2.394   1.015  -3.533  0.00  0.00    +0.004 A 
ATOM      6  C   UNL     1       2.174   1.866  -2.505  0.00  0.00    -0.033 A 
ATOM      7  C   UNL     1       1.062   1.658  -1.648  0.00  0.00    +0.136 A 
ATOM      8  C   UNL     1       0.176   0.508  -1.911  0.00  0.00    +0.134 A 
ATOM      9  C   UNL     1       0.475  -0.339  -3.010  0.00  0.00    +0.033 A 
ATOM     10  N   UNL     1      -0.775   0.509  -1.006  0.00  0.00    -0.049 NA
ATOM     11  O   UNL     1      -0.558   1.616  -0.147  0.00  0.00    -0.242 OA
ATOM     12  N   UNL     1       0.602   2.295  -0.596  0.00  0.00    -0.049 NA
ENDBRANCH   3   6
ENDBRANCH   1   3
BRANCH   1  13
ATOM     13  C   UNL     1       3.455   2.444   0.030  0.00  0.00    -0.046 C 
BRANCH  13  14
ATOM     14  C   UNL     1       4.471   1.888   1.030  0.00  0.00    +0.102 C 
ATOM     15  C   UNL     1       3.758   1.515   2.348  0.00  0.00    +0.032 C 
ATOM     16  C   UNL     1       4.787   1.967   3.419  0.00  0.00    +0.030 C 
ATOM     17  C   UNL     1       5.396   3.216   2.733  0.00  0.00    +0.160 C 
ATOM     18  O   UNL     1       5.451   2.888   1.334  0.00  0.00    -0.378 OA
ENDBRANCH  13  14
ENDBRANCH   1  13
BRANCH   1  19
ATOM     19  C   UNL     1       5.103   3.731  -1.146  0.00  0.00    -0.075 C 
BRANCH  19  20
ATOM     20  C   UNL     1       5.817   3.921  -2.486  0.00  0.00    -0.031 C 
ATOM     21  C   UNL     1       6.593   2.648  -2.837  0.00  0.00    -0.017 C 
ATOM     22  C   UNL     1       7.368   2.872  -4.137  0.00  0.00    -0.078 C 
ATOM     23  N   UNL     1       8.306   3.988  -3.966  0.00  0.00    +0.382 N 
ATOM     24  C   UNL     1       7.564   5.226  -3.700  0.00  0.00    -0.078 C 
ATOM     25  C   UNL     1       6.797   5.093  -2.383  0.00  0.00    -0.017 C 
ATOM     26  H   UNL     1       8.922   3.792  -3.190  0.00  0.00    -0.081 HD
BRANCH  23  27
ATOM     27  C   UNL     1       9.102   4.149  -5.190  0.00  0.00    -0.069 C 
ATOM     28  C   UNL     1       9.950   2.884  -5.439  0.00  0.00    -0.015 C 
ATOM     29  C   UNL     1      11.285   3.427  -6.006  0.00  0.00    -0.002 C 
ATOM     30  C   UNL     1      11.506   4.719  -5.181  0.00  0.00    -0.002 C 
ATOM     31  C   UNL     1      10.092   5.316  -5.026  0.00  0.00    -0.015 C 
ENDBRANCH  23  27
ENDBRANCH  19  20
ENDBRANCH   1  19
TORSDOF 7
