REMARK  Name = ZINC35758192
REMARK  17 active torsions:
REMARK  status: ('A' for Active; 'I' for Inactive)
REMARK    1  A    between atoms: C_1  and  C_2
REMARK    2  A    between atoms: C_2  and  C_3
REMARK    3  A    between atoms: C_3  and  C_4
REMARK    4  A    between atoms: C_4  and  O_6
REMARK    5  A    between atoms: O_6  and  C_7
REMARK    6  A    between atoms: C_7  and  C_8
REMARK    7  A    between atoms: C_8  and  C_10
REMARK    8  A    between atoms: C_8  and  O_38
REMARK    9  A    between atoms: C_10  and  N_11
REMARK   10  A    between atoms: N_11  and  C_12
REMARK   11  A    between atoms: N_11  and  C_16
REMARK   12  A    between atoms: C_12  and  C_13
REMARK   13  A    between atoms: C_13  and  O_14
REMARK   14  A    between atoms: O_14  and  C_15
REMARK   15  A    between atoms: C_16  and  C_17
REMARK   16  A    between atoms: C_18  and  C_32
REMARK   17  A    between atoms: C_21  and  N_22
REMARK                            x       y       z     vdW  Elec       q    Type
REMARK                         _______ _______ _______ _____ _____    ______ ____
ROOT
ATOM      1  C   UNL     1       4.223  -7.934   5.750  0.00  0.00    +0.025 A 
ATOM      2  C   UNL     1       5.595  -8.185   5.541  0.00  0.00    +0.117 A 
ATOM      3  N   UNL     1       6.105  -8.613   6.673  0.00  0.00    -0.076 NA
ATOM      4  O   UNL     1       5.067  -8.646   7.636  0.00  0.00    -0.339 OA
ATOM      5  C   UNL     1       3.937  -8.222   7.045  0.00  0.00    +0.223 A 
ENDROOT
BRANCH   5   6
ATOM      6  N   UNL     1       2.699  -8.103   7.650  0.00  0.00    -0.295 N 
ATOM      7  C   UNL     1       1.777  -9.247   7.737  0.00  0.00    +0.113 C 
ATOM      8  C   UNL     1       1.590  -9.587   9.215  0.00  0.00    +0.054 C 
ATOM      9  C   UNL     1       1.308  -8.346  10.020  0.00  0.00    -0.041 A 
ATOM     10  C   UNL     1       0.704  -8.506  11.261  0.00  0.00    +0.004 A 
ATOM     11  C   UNL     1       0.426  -7.412  12.053  0.00  0.00    +0.000 A 
ATOM     12  C   UNL     1       0.753  -6.143  11.611  0.00  0.00    +0.000 A 
ATOM     13  C   UNL     1       1.349  -5.981  10.378  0.00  0.00    +0.005 A 
ATOM     14  C   UNL     1       1.624  -7.081   9.578  0.00  0.00    -0.027 A 
ATOM     15  C   UNL     1       2.255  -6.833   8.235  0.00  0.00    +0.143 C 
ENDBRANCH   5   6
BRANCH   2  16
ATOM     16  C   UNL     1       6.333  -7.999   4.266  0.00  0.00    +0.004 A 
ATOM     17  C   UNL     1       5.761  -8.404   3.062  0.00  0.00    +0.010 A 
ATOM     18  C   UNL     1       6.451  -8.229   1.880  0.00  0.00    +0.001 A 
ATOM     19  C   UNL     1       7.708  -7.651   1.889  0.00  0.00    +0.000 A 
ATOM     20  C   UNL     1       8.280  -7.246   3.081  0.00  0.00    +0.001 A 
ATOM     21  C   UNL     1       7.596  -7.413   4.269  0.00  0.00    +0.010 A 
ENDBRANCH   2  16
BRANCH   1  22
ATOM     22  C   UNL     1       3.248  -7.427   4.719  0.00  0.00    -0.035 C 
BRANCH  22  23
ATOM     23  N   UNL     1       3.112  -5.970   4.846  0.00  0.00    +0.386 N 
ATOM     24  H   UNL     1       2.849  -5.739   5.793  0.00  0.00    -0.081 HD
BRANCH  23  25
ATOM     25  C   UNL     1       4.394  -5.329   4.523  0.00  0.00    -0.043 C 
BRANCH  25  26
ATOM     26  C   UNL     1       4.314  -3.837   4.849  0.00  0.00    +0.136 C 
BRANCH  26  27
ATOM     27  O   UNL     1       3.411  -3.199   3.944  0.00  0.00    -0.390 OA
ATOM     28  H   UNL     1       3.667  -3.274   3.015  0.00  0.00    +0.210 HD
ENDBRANCH  26  27
BRANCH  26  29
ATOM     29  C   UNL     1       5.702  -3.209   4.711  0.00  0.00    +0.261 C 
BRANCH  29  30
ATOM     30  O   UNL     1       5.652  -1.843   5.128  0.00  0.00    -0.462 OA
BRANCH  30  31
ATOM     31  C   UNL     1       6.796  -1.145   5.068  0.00  0.00    +0.307 C 
ATOM     32  O   UNL     1       7.808  -1.676   4.675  0.00  0.00    -0.251 OA
BRANCH  31  33
ATOM     33  C   UNL     1       6.820   0.301   5.491  0.00  0.00    +0.120 C 
BRANCH  33  35
ATOM     34  C   UNL     1       8.259   2.326   5.755  0.00  0.00    +0.004 C 
ATOM     35  C   UNL     1       8.235   0.858   5.326  0.00  0.00    +0.008 C 
ENDBRANCH  33  35
ENDBRANCH  31  33
ENDBRANCH  30  31
ENDBRANCH  29  30
ENDBRANCH  26  29
ENDBRANCH  25  26
ENDBRANCH  23  25
BRANCH  23  36
ATOM     36  C   UNL     1       2.078  -5.492   3.920  0.00  0.00    -0.050 C 
BRANCH  36  37
ATOM     37  C   UNL     1       0.732  -6.120   4.289  0.00  0.00    +0.141 C 
BRANCH  37  38
ATOM     38  O   UNL     1       0.343  -5.681   5.592  0.00  0.00    -0.385 OA
ATOM     39  C   UNL     1      -0.907  -6.213   6.035  0.00  0.00    +0.193 C 
ENDBRANCH  37  38
ENDBRANCH  36  37
ENDBRANCH  23  36
ENDBRANCH  22  23
ENDBRANCH   1  22
TORSDOF 15
