REMARK  Name = ZINC11980011
REMARK  10 active torsions:
REMARK  status: ('A' for Active; 'I' for Inactive)
REMARK    1  A    between atoms: C_1  and  C_2
REMARK    2  A    between atoms: C_2  and  C_3
REMARK    3  A    between atoms: C_3  and  C_5
REMARK    4  A    between atoms: C_3  and  N_6
REMARK    5  A    between atoms: N_6  and  S_7
REMARK    6  A    between atoms: S_7  and  C_10
REMARK    7  A    between atoms: C_13  and  C_16
REMARK    8  A    between atoms: C_16  and  O_18
REMARK    9  A    between atoms: O_18  and  C_19
REMARK   10  A    between atoms: C_19  and  N_20
REMARK                            x       y       z     vdW  Elec       q    Type
REMARK                         _______ _______ _______ _____ _____    ______ ____
ROOT
ATOM      1  C   UNL     1       0.735  -0.523   1.518  0.00  0.00    +0.105 A 
ATOM      2  C   UNL     1       2.103  -0.715   1.591  0.00  0.00    +0.029 A 
ATOM      3  C   UNL     1       2.684  -1.116   2.776  0.00  0.00    +0.017 A 
ATOM      4  C   UNL     1       1.887  -1.341   3.900  0.00  0.00    +0.059 A 
ATOM      5  C   UNL     1       0.506  -1.151   3.817  0.00  0.00    +0.017 A 
ATOM      6  C   UNL     1      -0.061  -0.744   2.628  0.00  0.00    +0.029 A 
ENDROOT
BRANCH   1   7
ATOM      7  S   UNL     1       0.002  -0.004   0.002  0.00  0.00    +0.059 S 
ATOM      8  O   UNL     1      -1.353  -0.429   0.040  0.00  0.00    -0.153 OA
ATOM      9  O   UNL     1       0.893  -0.392  -1.034  0.00  0.00    -0.153 OA
BRANCH   7  10
ATOM     10  N   UNL     1      -0.020   1.652   0.011  0.00  0.00    -0.187 NA
ATOM     11  H   UNL     1      -0.867   2.125   0.018  0.00  0.00    +0.148 HD
BRANCH  10  12
ATOM     12  C   UNL     1       1.238   2.401   0.003  0.00  0.00    +0.073 C 
ATOM     13  C   UNL     1       1.626   2.763   1.438  0.00  0.00    +0.025 C 
BRANCH  12  15
ATOM     14  C   UNL     1       0.799   3.320  -2.279  0.00  0.00    +0.005 C 
ATOM     15  C   UNL     1       1.064   3.682  -0.816  0.00  0.00    +0.017 C 
ENDBRANCH  12  15
ENDBRANCH  10  12
ENDBRANCH   7  10
ENDBRANCH   1   7
BRANCH   4  16
ATOM     16  C   UNL     1       2.501  -1.776   5.171  0.00  0.00    +0.341 C 
ATOM     17  O   UNL     1       1.805  -1.970   6.147  0.00  0.00    -0.245 OA
BRANCH  16  18
ATOM     18  O   UNL     1       3.834  -1.958   5.247  0.00  0.00    -0.441 OA
BRANCH  18  19
ATOM     19  C   UNL     1       4.368  -2.387   6.527  0.00  0.00    +0.353 C 
BRANCH  19  20
ATOM     20  N   UNL     1       4.171  -3.830   6.681  0.00  0.00    -0.199 N 
ATOM     21  C   UNL     1       2.991  -4.411   6.966  0.00  0.00    +0.256 C 
ATOM     22  O   UNL     1       1.938  -3.830   7.133  0.00  0.00    -0.269 OA
ATOM     23  C   UNL     1       3.191  -5.874   7.037  0.00  0.00    +0.049 A 
ATOM     24  C   UNL     1       2.360  -6.953   7.288  0.00  0.00    +0.014 A 
ATOM     25  C   UNL     1       2.881  -8.237   7.287  0.00  0.00    +0.001 A 
ATOM     26  C   UNL     1       4.224  -8.448   7.037  0.00  0.00    +0.001 A 
ATOM     27  C   UNL     1       5.068  -7.378   6.785  0.00  0.00    +0.014 A 
ATOM     28  C   UNL     1       4.561  -6.088   6.783  0.00  0.00    +0.049 A 
ATOM     29  C   UNL     1       5.146  -4.749   6.561  0.00  0.00    +0.256 C 
ATOM     30  O   UNL     1       6.311  -4.517   6.311  0.00  0.00    -0.269 OA
ENDBRANCH  19  20
ENDBRANCH  18  19
ENDBRANCH  16  18
ENDBRANCH   4  16
TORSDOF 8
