REMARK  Name = ZINC12583202
REMARK  4 active torsions:
REMARK  status: ('A' for Active; 'I' for Inactive)
REMARK    1  A    between atoms: C_4  and  N_17
REMARK    2  A    between atoms: C_5  and  N_7
REMARK    3  A    between atoms: N_8  and  C_9
REMARK    4  A    between atoms: C_14  and  O_15
REMARK                            x       y       z     vdW  Elec       q    Type
REMARK                         _______ _______ _______ _____ _____    ______ ____
ROOT
ATOM      1  N   UNL     1       1.250  -2.050  -0.021  0.00  0.00    -0.147 NA
ATOM      2  N   UNL     1       0.145  -2.716  -0.014  0.00  0.00    -0.146 NA
ENDROOT
BRANCH   2   3
ATOM      3  C   UNL     1       0.172  -4.080  -0.022  0.00  0.00    +0.128 A 
ATOM      4  C   UNL     1       1.393  -4.760  -0.032  0.00  0.00    +0.048 A 
ATOM      5  C   UNL     1       1.412  -6.139  -0.040  0.00  0.00    +0.020 A 
ATOM      6  C   UNL     1       0.225  -6.854  -0.037  0.00  0.00    +0.019 A 
ATOM      7  C   UNL     1      -0.989  -6.194  -0.027  0.00  0.00    +0.049 A 
ATOM      8  C   UNL     1      -1.027  -4.809  -0.014  0.00  0.00    +0.144 A 
ATOM      9 BR   UNL     1       3.065  -7.058  -0.054  0.00  0.00    -0.050 Br
BRANCH   8  10
ATOM     10  O   UNL     1      -2.219  -4.160   0.002  0.00  0.00    -0.505 OA
ATOM     11  H   UNL     1      -2.573  -3.968  -0.877  0.00  0.00    +0.292 HD
ENDBRANCH   8  10
ENDBRANCH   2   3
BRANCH   1  16
ATOM     12  C   UNL     1      -0.017   1.375   0.010  0.00  0.00    +0.002 A 
ATOM     13  C   UNL     1       1.171   2.086   0.002  0.00  0.00    +0.002 A 
ATOM     14  C   UNL     1       2.384   1.421  -0.013  0.00  0.00    +0.035 A 
ATOM     15  C   UNL     1       2.418   0.042  -0.021  0.00  0.00    +0.153 A 
ATOM     16  C   UNL     1       1.224  -0.683  -0.013  0.00  0.00    +0.116 A 
ATOM     17  C   UNL     1       0.002  -0.004   0.002  0.00  0.00    +0.032 A 
BRANCH  15  18
ATOM     18  N   UNL     1       3.717  -0.667  -0.038  0.00  0.00    +0.059 N 
ATOM     19  O   UNL     1       4.749  -0.038  -0.046  0.00  0.00    -0.126 OA
ATOM     20  O   UNL     1       3.745  -1.876  -0.045  0.00  0.00    -0.126 OA
ENDBRANCH  15  18
ENDBRANCH   1  16
TORSDOF 4
