REMARK  Name = ZINC18200952
REMARK  3 active torsions:
REMARK  status: ('A' for Active; 'I' for Inactive)
REMARK    1  A    between atoms: C_4  and  C_7
REMARK    2  A    between atoms: C_10  and  C_13
REMARK    3  A    between atoms: C_18  and  C_23
REMARK                            x       y       z     vdW  Elec       q    Type
REMARK                         _______ _______ _______ _____ _____    ______ ____
ROOT
ATOM      1  C   UNL     1      -0.128   9.603   0.058  0.00  0.00    +0.177 C 
ATOM      2  C   UNL     1       0.567  10.122  -1.182  0.00  0.00    +0.041 C 
ATOM      3  C   UNL     1       1.790  10.693  -1.134  0.00  0.00    +0.020 C 
ATOM      4  C   UNL     1       2.456  11.207  -2.389  0.00  0.00    +0.060 C 
ATOM      5  C   UNL     1       2.017  10.363  -3.587  0.00  0.00    +0.032 C 
ATOM      6  C   UNL     1       0.491  10.442  -3.700  0.00  0.00    +0.088 C 
ATOM      7  C   UNL     1      -0.117   9.984  -2.403  0.00  0.00    +0.164 C 
ATOM      8  O   UNL     1      -1.224   9.483  -2.411  0.00  0.00    -0.292 OA
ATOM      9  N   UNL     1       2.478  10.838   0.047  0.00  0.00    -0.286 N 
ATOM     10  C   UNL     1       1.781  10.663   1.230  0.00  0.00    +0.240 A 
ATOM     11  N   UNL     1       0.551  10.088   1.249  0.00  0.00    -0.201 N 
ATOM     12  N   UNL     1       0.160  10.086   2.587  0.00  0.00    -0.042 NA
ATOM     13  N   UNL     1       1.129  10.626   3.254  0.00  0.00    -0.021 NA
ATOM     14  N   UNL     1       2.086  10.966   2.460  0.00  0.00    -0.092 NA
ATOM     15  H   UNL     1       3.423  11.056   0.051  0.00  0.00    +0.155 HD
ENDROOT
BRANCH   1  19
ATOM     16  C   UNL     1      -0.070   5.328   0.032  0.00  0.00    -0.018 A 
ATOM     17  C   UNL     1       1.125   6.043   0.030  0.00  0.00    +0.009 A 
ATOM     18  C   UNL     1       1.101   7.423   0.034  0.00  0.00    +0.006 A 
ATOM     19  C   UNL     1      -0.108   8.096   0.048  0.00  0.00    -0.018 A 
ATOM     20  C   UNL     1      -1.298   7.391   0.055  0.00  0.00    +0.006 A 
ATOM     21  C   UNL     1      -1.285   6.011   0.047  0.00  0.00    +0.009 A 
BRANCH  16  25
ATOM     22  C   UNL     1      -0.013   1.076   0.008  0.00  0.00    +0.000 A 
ATOM     23  C   UNL     1      -1.221   1.748   0.017  0.00  0.00    +0.001 A 
ATOM     24  C   UNL     1      -1.246   3.128   0.031  0.00  0.00    +0.008 A 
ATOM     25  C   UNL     1      -0.050   3.844   0.023  0.00  0.00    -0.018 A 
ATOM     26  C   UNL     1       1.164   3.161   0.008  0.00  0.00    +0.008 A 
ATOM     27  C   UNL     1       1.177   1.781   0.000  0.00  0.00    +0.001 A 
ENDBRANCH  16  25
ENDBRANCH   1  19
BRANCH   5  28
ATOM     28  C   UNL     1       2.648  10.902  -4.846  0.00  0.00    -0.044 A 
ATOM     29  C   UNL     1       2.389  12.199  -5.248  0.00  0.00    +0.004 A 
ATOM     30  C   UNL     1       2.971  12.694  -6.400  0.00  0.00    +0.000 A 
ATOM     31  C   UNL     1       3.805  11.890  -7.154  0.00  0.00    +0.000 A 
ATOM     32  C   UNL     1       4.060  10.592  -6.755  0.00  0.00    +0.000 A 
ATOM     33  C   UNL     1       3.481  10.098  -5.601  0.00  0.00    +0.004 A 
ENDBRANCH   5  28
TORSDOF 3
