REMARK  Name = ZINC59465442
REMARK  12 active torsions:
REMARK  status: ('A' for Active; 'I' for Inactive)
REMARK    1  A    between atoms: C_2  and  C_11
REMARK    2  A    between atoms: C_5  and  O_7
REMARK    3  A    between atoms: O_7  and  C_8
REMARK    4  A    between atoms: C_8  and  C_9
REMARK    5  A    between atoms: N_12  and  N_13
REMARK    6  A    between atoms: C_14  and  C_16
REMARK    7  A    between atoms: C_20  and  C_21
REMARK    8  A    between atoms: N_23  and  N_24
REMARK    9  A    between atoms: C_25  and  C_26
REMARK   10  A    between atoms: C_29  and  O_32
REMARK   11  A    between atoms: O_32  and  C_33
REMARK   12  A    between atoms: C_33  and  C_34
REMARK                            x       y       z     vdW  Elec       q    Type
REMARK                         _______ _______ _______ _____ _____    ______ ____
ROOT
ATOM      1  C   UNL     1       3.420   7.789   0.010  0.00  0.00    +0.202 A 
ATOM      2  N   UNL     1       2.353   8.544   0.029  0.00  0.00    -0.043 NA
ATOM      3  O   UNL     1       2.777   9.896   0.030  0.00  0.00    -0.241 OA
ATOM      4  N   UNL     1       4.193   9.903   0.010  0.00  0.00    -0.043 NA
ATOM      5  C   UNL     1       4.601   8.662   0.003  0.00  0.00    +0.202 A 
ENDROOT
BRANCH   1   7
ATOM      6  N   UNL     1       2.274   5.622   0.010  0.00  0.00    -0.202 N 
ATOM      7  C   UNL     1       3.435   6.308   0.002  0.00  0.00    +0.287 C 
ATOM      8  O   UNL     1       4.493   5.710  -0.011  0.00  0.00    -0.267 OA
ATOM      9  H   UNL     1       1.430   6.098   0.020  0.00  0.00    +0.178 HD
BRANCH   6  11
ATOM     10  C   UNL     1       1.171   3.561   0.009  0.00  0.00    +0.138 C 
ATOM     11  N   UNL     1       2.288   4.221   0.002  0.00  0.00    -0.187 NA
BRANCH  10  13
ATOM     12  C   UNL     1      -0.017   1.374   0.010  0.00  0.00    +0.013 A 
ATOM     13  C   UNL     1       1.185   2.087   0.002  0.00  0.00    -0.005 A 
ATOM     14  C   UNL     1       2.401   1.398  -0.013  0.00  0.00    +0.013 A 
ATOM     15  C   UNL     1       2.410   0.020  -0.021  0.00  0.00    +0.046 A 
ATOM     16  C   UNL     1       1.213  -0.684  -0.014  0.00  0.00    +0.122 A 
ATOM     17  C   UNL     1       0.002  -0.004   0.002  0.00  0.00    +0.046 A 
BRANCH  16  18
ATOM     18  O   UNL     1       1.227  -2.043  -0.022  0.00  0.00    -0.477 OA
BRANCH  18  19
ATOM     19  C   UNL     1      -0.040  -2.704  -0.014  0.00  0.00    +0.346 C 
BRANCH  19  20
ATOM     20  C   UNL     1       0.167  -4.161  -0.025  0.00  0.00    +0.104 C 
ATOM     21  N   UNL     1       0.328  -5.286  -0.033  0.00  0.00    -0.193 NA
ENDBRANCH  19  20
ENDBRANCH  18  19
ENDBRANCH  16  18
ENDBRANCH  10  13
ENDBRANCH   6  11
ENDBRANCH   1   7
BRANCH   5  22
ATOM     22  C   UNL     1       6.013   8.211  -0.013  0.00  0.00    +0.287 C 
ATOM     23  O   UNL     1       6.272   7.024  -0.022  0.00  0.00    -0.267 OA
ATOM     24  N   UNL     1       7.009   9.119  -0.018  0.00  0.00    -0.202 N 
ATOM     25  H   UNL     1       6.803  10.066  -0.010  0.00  0.00    +0.178 HD
BRANCH  24  26
ATOM     26  N   UNL     1       8.344   8.693  -0.033  0.00  0.00    -0.187 NA
ATOM     27  C   UNL     1       9.304   9.567  -0.037  0.00  0.00    +0.138 C 
BRANCH  27  28
ATOM     28  C   UNL     1      10.708   9.120  -0.053  0.00  0.00    -0.005 A 
ATOM     29  C   UNL     1      11.009   7.755  -0.069  0.00  0.00    +0.013 A 
ATOM     30  C   UNL     1      12.323   7.341  -0.084  0.00  0.00    +0.046 A 
ATOM     31  C   UNL     1      13.348   8.278  -0.084  0.00  0.00    +0.122 A 
ATOM     32  C   UNL     1      13.055   9.635  -0.068  0.00  0.00    +0.046 A 
ATOM     33  C   UNL     1      11.743  10.059  -0.058  0.00  0.00    +0.013 A 
BRANCH  31  34
ATOM     34  O   UNL     1      14.643   7.865  -0.099  0.00  0.00    -0.477 OA
BRANCH  34  35
ATOM     35  C   UNL     1      15.648   8.881  -0.097  0.00  0.00    +0.346 C 
BRANCH  35  36
ATOM     36  C   UNL     1      16.979   8.254  -0.114  0.00  0.00    +0.104 C 
ATOM     37  N   UNL     1      18.007   7.770  -0.127  0.00  0.00    -0.193 NA
ENDBRANCH  35  36
ENDBRANCH  34  35
ENDBRANCH  31  34
ENDBRANCH  27  28
ENDBRANCH  24  26
ENDBRANCH   5  22
TORSDOF 12
