REMARK  Name = ZINC22222366
REMARK  11 active torsions:
REMARK  status: ('A' for Active; 'I' for Inactive)
REMARK    1  A    between atoms: C_1  and  C_2
REMARK    2  A    between atoms: C_2  and  C_3
REMARK    3  A    between atoms: C_3  and  C_4
REMARK    4  A    between atoms: C_7  and  C_10
REMARK    5  A    between atoms: C_10  and  C_33
REMARK    6  A    between atoms: N_13  and  C_17
REMARK    7  A    between atoms: C_17  and  C_18
REMARK    8  A    between atoms: C_18  and  C_20
REMARK    9  A    between atoms: C_22  and  C_32
REMARK   10  A    between atoms: C_24  and  C_25
REMARK   11  A    between atoms: C_28  and  C_31
REMARK                            x       y       z     vdW  Elec       q    Type
REMARK                         _______ _______ _______ _____ _____    ______ ____
ROOT
ATOM      1  C   UNL     1      -1.578   2.580   3.021  0.00  0.00    +0.135 C 
ATOM      2  C   UNL     1      -1.234   1.578   1.936  0.00  0.00    +0.251 C 
ATOM      3  O   UNL     1      -1.677   0.457   1.809  0.00  0.00    -0.272 OA
ATOM      4  N   UNL     1      -0.336   2.194   1.143  0.00  0.00    -0.216 N 
ATOM      5  C   UNL     1      -0.062   3.431   1.574  0.00  0.00    +0.310 C 
ATOM      6  O   UNL     1       0.722   4.180   1.025  0.00  0.00    -0.252 OA
ATOM      7  N   UNL     1      -0.755   3.754   2.681  0.00  0.00    -0.281 N 
ATOM      8  C   UNL     1      -1.195   2.035   4.398  0.00  0.00    +0.047 C 
ATOM      9  H   UNL     1      -0.802   4.658   3.306  0.00  0.00    +0.152 HD
ENDROOT
BRANCH   1  13
ATOM     10  C   UNL     1      -5.732   3.568   2.892  0.00  0.00    -0.047 A 
ATOM     11  C   UNL     1      -4.814   4.499   3.340  0.00  0.00    +0.004 A 
ATOM     12  C   UNL     1      -3.469   4.180   3.381  0.00  0.00    +0.006 A 
ATOM     13  C   UNL     1      -3.043   2.929   2.976  0.00  0.00    -0.015 A 
ATOM     14  C   UNL     1      -3.961   1.999   2.523  0.00  0.00    +0.006 A 
ATOM     15  C   UNL     1      -5.306   2.317   2.486  0.00  0.00    +0.004 A 
BRANCH  10  16
ATOM     16  C   UNL     1      -7.197   3.917   2.847  0.00  0.00    +0.035 C 
BRANCH  16  18
ATOM     17  C   UNL     1      -9.023   4.880   1.440  0.00  0.00    +0.004 C 
ATOM     18  C   UNL     1      -7.535   4.526   1.485  0.00  0.00    +0.001 C 
ENDBRANCH  16  18
ENDBRANCH  10  16
ENDBRANCH   1  13
BRANCH   4  19
ATOM     19  C   UNL     1       0.272   1.582  -0.041  0.00  0.00    +0.197 C 
BRANCH  19  20
ATOM     20  C   UNL     1      -0.576   1.879  -1.251  0.00  0.00    +0.183 C 
ATOM     21  O   UNL     1      -1.588   2.537  -1.136  0.00  0.00    -0.290 OA
BRANCH  20  22
ATOM     22  C   UNL     1      -0.177   1.373  -2.567  0.00  0.00    +0.040 A 
ATOM     23  C   UNL     1       1.010   0.566  -2.882  0.00  0.00    +0.034 A 
ATOM     24  C   UNL     1       0.971   0.333  -4.204  0.00  0.00    +0.023 A 
ATOM     25  N   UNL     1      -0.142   0.929  -4.732  0.00  0.00    -0.299 N 
ATOM     26  C   UNL     1      -0.844   1.552  -3.764  0.00  0.00    +0.033 A 
ATOM     27  C   UNL     1      -2.130   2.314  -3.955  0.00  0.00    +0.064 C 
ATOM     28  C   UNL     1      -0.503   0.892  -6.082  0.00  0.00    +0.181 A 
ATOM     29  C   UNL     1      -0.525  -0.248  -6.928  0.00  0.00    +0.094 A 
ATOM     30  C   UNL     1      -0.941   0.237  -8.120  0.00  0.00    +0.136 A 
ATOM     31  O   UNL     1      -1.129   1.554  -7.952  0.00  0.00    -0.358 OA
ATOM     32  N   UNL     1      -0.883   1.901  -6.820  0.00  0.00    -0.060 NA
ATOM     33  C   UNL     1      -1.147  -0.547  -9.390  0.00  0.00    +0.089 C 
ATOM     34  C   UNL     1       1.990  -0.459  -4.982  0.00  0.00    +0.064 C 
ENDBRANCH  20  22
ENDBRANCH  19  20
ENDBRANCH   4  19
TORSDOF 6
