REMARK  Name = ZINC20693542
REMARK  8 active torsions:
REMARK  status: ('A' for Active; 'I' for Inactive)
REMARK    1  A    between atoms: C_1  and  O_2
REMARK    2  A    between atoms: O_2  and  C_3
REMARK    3  A    between atoms: C_5  and  C_10
REMARK    4  A    between atoms: C_8  and  O_9
REMARK    5  A    between atoms: C_21  and  S_26
REMARK    6  A    between atoms: S_26  and  N_29
REMARK    7  A    between atoms: N_29  and  C_30
REMARK    8  A    between atoms: C_30  and  C_31
REMARK                            x       y       z     vdW  Elec       q    Type
REMARK                         _______ _______ _______ _____ _____    ______ ____
ROOT
ATOM      1  C   UNL     1       0.207   6.050  -0.474  0.00  0.00    +0.105 C 
ATOM      2  C   UNL     1      -0.903   6.629  -1.333  0.00  0.00    +0.029 C 
ATOM      3  C   UNL     1      -1.632   5.664  -2.277  0.00  0.00    +0.033 C 
ATOM      4  C   UNL     1      -2.050   6.601  -3.413  0.00  0.00    -0.030 C 
ATOM      5  C   UNL     1      -1.226   7.640  -3.470  0.00  0.00    -0.023 C 
ATOM      6  C   UNL     1      -0.185   7.478  -2.424  0.00  0.00    +0.049 C 
ATOM      7  C   UNL     1       0.445   8.638  -1.758  0.00  0.00    -0.018 A 
ATOM      8  C   UNL     1       0.547   9.873  -2.362  0.00  0.00    +0.034 A 
ATOM      9  C   UNL     1       1.164  10.922  -1.706  0.00  0.00    +0.106 A 
ATOM     10  C   UNL     1       1.682  10.735  -0.437  0.00  0.00    +0.030 A 
ATOM     11  C   UNL     1       1.578   9.505   0.179  0.00  0.00    +0.025 A 
ATOM     12  C   UNL     1       0.955   8.445  -0.469  0.00  0.00    +0.031 A 
ATOM     13  N   UNL     1       0.849   7.210   0.182  0.00  0.00    -0.336 N 
ATOM     14  H   UNL     1       1.255   7.111   1.200  0.00  0.00    +0.147 HD
ENDROOT
BRANCH   1  17
ATOM     15  C   UNL     1      -0.787   2.893   1.346  0.00  0.00    +0.162 A 
ATOM     16  C   UNL     1      -0.259   3.751   0.395  0.00  0.00    +0.054 A 
ATOM     17  C   UNL     1      -0.368   5.119   0.562  0.00  0.00    -0.023 A 
ATOM     18  C   UNL     1      -1.003   5.634   1.677  0.00  0.00    +0.009 A 
ATOM     19  C   UNL     1      -1.532   4.784   2.629  0.00  0.00    +0.049 A 
ATOM     20  C   UNL     1      -1.432   3.411   2.465  0.00  0.00    +0.158 A 
BRANCH  15  22
ATOM     21  C   UNL     1      -0.013   1.086   0.008  0.00  0.00    +0.277 C 
ATOM     22  O   UNL     1      -0.682   1.547   1.184  0.00  0.00    -0.491 OA
ENDBRANCH  15  22
BRANCH  20  23
ATOM     23  O   UNL     1      -1.957   2.573   3.399  0.00  0.00    -0.503 OA
ATOM     24  H   UNL     1      -2.466   2.985   4.283  0.00  0.00    +0.292 HD
ENDBRANCH  20  23
ENDBRANCH   1  17
BRANCH   9  25
ATOM     25  S   UNL     1       1.291  12.496  -2.486  0.00  0.00    +0.058 S 
ATOM     26  O   UNL     1       2.394  13.160  -1.884  0.00  0.00    -0.153 OA
ATOM     27  O   UNL     1       1.214  12.264  -3.886  0.00  0.00    -0.153 OA
BRANCH  25  28
ATOM     28  N   UNL     1      -0.062  13.358  -2.074  0.00  0.00    -0.187 NA
ATOM     29  H   UNL     1      -0.858  13.497  -2.820  0.00  0.00    +0.148 HD
BRANCH  28  30
ATOM     30  C   UNL     1      -0.292  13.738  -0.678  0.00  0.00    +0.137 C 
BRANCH  30  31
ATOM     31  C   UNL     1      -1.374  14.817  -0.615  0.00  0.00    +0.134 C 
ATOM     32  C   UNL     1      -1.542  15.306   0.840  0.00  0.00    +0.035 C 
ATOM     33  C   UNL     1      -3.081  15.484   0.952  0.00  0.00    +0.031 C 
ATOM     34  C   UNL     1      -3.578  14.333   0.042  0.00  0.00    +0.160 C 
ATOM     35  O   UNL     1      -2.630  14.271  -1.036  0.00  0.00    -0.375 OA
ENDBRANCH  30  31
ENDBRANCH  28  30
ENDBRANCH  25  28
ENDBRANCH   9  25
TORSDOF 7
