REMARK  Name = ZINC09001519
REMARK  12 active torsions:
REMARK  status: ('A' for Active; 'I' for Inactive)
REMARK    1  A    between atoms: C_1  and  C_2
REMARK    2  A    between atoms: C_2  and  C_4
REMARK    3  A    between atoms: C_2  and  O_33
REMARK    4  A    between atoms: C_4  and  N_5
REMARK    5  A    between atoms: C_6  and  C_18
REMARK    6  A    between atoms: N_12  and  C_17
REMARK    7  A    between atoms: N_15  and  C_16
REMARK    8  A    between atoms: C_18  and  N_62
REMARK    9  A    between atoms: C_19  and  C_20
REMARK   10  A    between atoms: C_19  and  N_62
REMARK   11  A    between atoms: C_26  and  C_27
REMARK   12  A    between atoms: C_26  and  N_62
REMARK                            x       y       z     vdW  Elec       q    Type
REMARK                         _______ _______ _______ _____ _____    ______ ____
ROOT
ATOM      1  N   UNL     1      -1.622   1.381   3.882  0.00  0.00    -0.321 N 
ATOM      2  C   UNL     1      -1.206   2.479   4.542  0.00  0.00    +0.096 A 
ATOM      3  N   UNL     1      -1.983   2.696   5.572  0.00  0.00    -0.216 NA
ATOM      4  C   UNL     1      -2.927   1.753   5.634  0.00  0.00    +0.168 A 
ATOM      5  C   UNL     1      -2.720   0.894   4.562  0.00  0.00    +0.152 A 
ATOM      6  C   UNL     1      -3.586  -0.207   4.386  0.00  0.00    +0.282 A 
ATOM      7  O   UNL     1      -3.426  -0.974   3.454  0.00  0.00    -0.265 OA
ATOM      8  N   UNL     1      -4.594  -0.399   5.263  0.00  0.00    -0.262 N 
ATOM      9  C   UNL     1      -4.782   0.440   6.296  0.00  0.00    +0.333 A 
ATOM     10  O   UNL     1      -5.700   0.236   7.066  0.00  0.00    -0.246 OA
ATOM     11  N   UNL     1      -3.979   1.502   6.500  0.00  0.00    -0.280 N 
ATOM     12  C   UNL     1      -4.218   2.392   7.638  0.00  0.00    +0.155 C 
ATOM     13  C   UNL     1      -5.496  -1.540   5.087  0.00  0.00    +0.157 C 
ENDROOT
BRANCH   1  14
ATOM     14  C   UNL     1      -1.019   0.808   2.676  0.00  0.00    +0.154 C 
BRANCH  14  16
ATOM     15  C   UNL     1      -1.136   0.735   0.181  0.00  0.00    +0.039 C 
ATOM     16  C   UNL     1      -1.676   1.421   1.438  0.00  0.00    +0.131 C 
BRANCH  16  17
ATOM     17  O   UNL     1      -1.378   2.818   1.383  0.00  0.00    -0.390 OA
ATOM     18  H   UNL     1      -1.764   3.272   0.621  0.00  0.00    +0.210 HD
ENDBRANCH  16  17
ENDBRANCH  14  16
ENDBRANCH   1  14
BRANCH   2  19
ATOM     19  C   UNL     1      -0.026   3.331   4.151  0.00  0.00    -0.002 C 
BRANCH  19  20
ATOM     20  N   UNL     1      -0.484   4.381   3.217  0.00  0.00    +0.390 N 
ATOM     21  H   UNL     1      -1.010   3.941   2.453  0.00  0.00    -0.080 HD
BRANCH  20  22
ATOM     22  C   UNL     1      -1.368   5.333   3.922  0.00  0.00    -0.042 C 
BRANCH  22  23
ATOM     23  C   UNL     1      -2.111   6.152   2.899  0.00  0.00    -0.064 A 
ATOM     24  C   UNL     1      -1.640   7.401   2.538  0.00  0.00    +0.002 A 
ATOM     25  C   UNL     1      -2.319   8.150   1.595  0.00  0.00    +0.000 A 
ATOM     26  C   UNL     1      -3.475   7.655   1.021  0.00  0.00    +0.000 A 
ATOM     27  C   UNL     1      -3.949   6.409   1.386  0.00  0.00    +0.000 A 
ATOM     28  C   UNL     1      -3.267   5.657   2.325  0.00  0.00    +0.002 A 
ENDBRANCH  22  23
ENDBRANCH  20  22
BRANCH  20  29
ATOM     29  C   UNL     1       0.679   5.096   2.651  0.00  0.00    -0.042 C 
BRANCH  29  30
ATOM     30  C   UNL     1       1.301   4.234   1.582  0.00  0.00    -0.064 A 
ATOM     31  C   UNL     1       2.336   3.376   1.902  0.00  0.00    +0.002 A 
ATOM     32  C   UNL     1       2.903   2.582   0.922  0.00  0.00    +0.000 A 
ATOM     33  C   UNL     1       2.443   2.654  -0.379  0.00  0.00    +0.000 A 
ATOM     34  C   UNL     1       1.412   3.517  -0.700  0.00  0.00    +0.000 A 
ATOM     35  C   UNL     1       0.841   4.307   0.280  0.00  0.00    +0.002 A 
ENDBRANCH  29  30
ENDBRANCH  20  29
ENDBRANCH  19  20
ENDBRANCH   2  19
TORSDOF 9
