REMARK  Name = ZINC17042728
REMARK  12 active torsions:
REMARK  status: ('A' for Active; 'I' for Inactive)
REMARK    1  A    between atoms: C_1  and  C_2
REMARK    2  A    between atoms: C_2  and  C_4
REMARK    3  A    between atoms: C_2  and  O_14
REMARK    4  A    between atoms: N_9  and  C_10
REMARK    5  A    between atoms: C_10  and  C_11
REMARK    6  A    between atoms: C_10  and  C_12
REMARK    7  A    between atoms: C_10  and  C_13
REMARK    8  A    between atoms: O_14  and  C_15
REMARK    9  A    between atoms: C_15  and  C_17
REMARK   10  A    between atoms: C_19  and  S_25
REMARK   11  A    between atoms: S_25  and  N_28
REMARK   12  A    between atoms: N_28  and  C_29
REMARK                            x       y       z     vdW  Elec       q    Type
REMARK                         _______ _______ _______ _____ _____    ______ ____
ROOT
ATOM      1  C   UNL     1      -1.163   1.480  -1.310  0.00  0.00    +0.341 C 
ATOM      2  O   UNL     1      -1.286   0.471  -0.644  0.00  0.00    -0.245 OA
ENDROOT
BRANCH   1   3
ATOM      3  C   UNL     1      -1.980   1.667  -2.524  0.00  0.00    +0.079 A 
ATOM      4  C   UNL     1      -1.840   2.826  -3.292  0.00  0.00    +0.046 A 
ATOM      5  C   UNL     1      -2.606   2.994  -4.426  0.00  0.00    +0.124 A 
ATOM      6  C   UNL     1      -3.514   2.018  -4.805  0.00  0.00    +0.069 A 
ATOM      7  C   UNL     1      -3.658   0.867  -4.049  0.00  0.00    +0.042 A 
ATOM      8  C   UNL     1      -2.893   0.683  -2.915  0.00  0.00    +0.056 A 
ATOM      9 CL   UNL     1      -3.069  -0.764  -1.972  0.00  0.00    -0.083 Cl
ATOM     10 CL   UNL     1      -4.475   2.240  -6.233  0.00  0.00    -0.081 Cl
BRANCH   5  11
ATOM     11  S   UNL     1      -2.431   4.455  -5.395  0.00  0.00    +0.060 S 
ATOM     12  O   UNL     1      -1.474   5.270  -4.732  0.00  0.00    -0.153 OA
ATOM     13  O   UNL     1      -2.268   4.032  -6.742  0.00  0.00    -0.153 OA
BRANCH  11  14
ATOM     14  N   UNL     1      -3.873   5.266  -5.324  0.00  0.00    -0.187 NA
ATOM     15  H   UNL     1      -4.403   5.384  -6.128  0.00  0.00    +0.148 HD
BRANCH  14  16
ATOM     16  C   UNL     1      -4.349   5.804  -4.048  0.00  0.00    +0.077 C 
ATOM     17  C   UNL     1      -5.860   5.818  -3.806  0.00  0.00    +0.022 C 
ATOM     18  C   UNL     1      -5.117   7.127  -4.081  0.00  0.00    +0.022 C 
ENDBRANCH  14  16
ENDBRANCH  11  14
ENDBRANCH   5  11
ENDBRANCH   1   3
BRANCH   1  19
ATOM     19  O   UNL     1      -0.280   2.428  -0.939  0.00  0.00    -0.449 OA
BRANCH  19  21
ATOM     20  C   UNL     1      -0.263   2.733   1.477  0.00  0.00    +0.062 C 
ATOM     21  C   UNL     1       0.489   2.177   0.266  0.00  0.00    +0.259 C 
BRANCH  21  22
ATOM     22  C   UNL     1       1.832   2.852   0.155  0.00  0.00    +0.261 C 
ATOM     23  O   UNL     1       2.079   3.557  -0.800  0.00  0.00    -0.271 OA
ATOM     24  N   UNL     1       2.758   2.673   1.118  0.00  0.00    -0.237 N 
ATOM     25  C   UNL     1       3.959   3.277   1.018  0.00  0.00    +0.306 C 
ATOM     26  O   UNL     1       4.206   3.984   0.061  0.00  0.00    -0.252 OA
ATOM     27  N   UNL     1       4.885   3.098   1.980  0.00  0.00    -0.294 N 
ATOM     28  H   UNL     1       2.561   2.109   1.882  0.00  0.00    +0.159 HD
ATOM     29  H   UNL     1       4.688   2.534   2.745  0.00  0.00    +0.151 HD
BRANCH  27  30
ATOM     30  C   UNL     1       6.190   3.755   1.872  0.00  0.00    +0.028 C 
ATOM     31  C   UNL     1       5.996   5.271   1.825  0.00  0.00    +0.031 C 
ATOM     32  C   UNL     1       7.048   3.388   3.086  0.00  0.00    +0.031 C 
ATOM     33  C   UNL     1       6.891   3.290   0.594  0.00  0.00    +0.031 C 
ENDBRANCH  27  30
ENDBRANCH  21  22
ENDBRANCH  19  21
ENDBRANCH   1  19
TORSDOF 8
