REMARK  Name = ZINC06365929
REMARK  9 active torsions:
REMARK  status: ('A' for Active; 'I' for Inactive)
REMARK    1  A    between atoms: C_1  and  C_2
REMARK    2  A    between atoms: C_3  and  C_11
REMARK    3  A    between atoms: C_7  and  N_8
REMARK    4  A    between atoms: C_11  and  O_13
REMARK    5  A    between atoms: O_13  and  C_14
REMARK    6  A    between atoms: C_14  and  C_16
REMARK    7  A    between atoms: C_14  and  C_17
REMARK    8  A    between atoms: N_19  and  C_20
REMARK    9  A    between atoms: C_23  and  N_26
REMARK                            x       y       z     vdW  Elec       q    Type
REMARK                         _______ _______ _______ _____ _____    ______ ____
ROOT
ATOM      1  C   UNL     1       1.890  -3.384  -0.023  0.00  0.00    +0.258 C 
ATOM      2  O   UNL     1       2.845  -2.636   0.010  0.00  0.00    -0.271 OA
ATOM      3  N   UNL     1       0.643  -2.890   0.106  0.00  0.00    -0.282 N 
ATOM      4  H   UNL     1      -0.115  -3.493   0.154  0.00  0.00    +0.155 HD
ENDROOT
BRANCH   3   5
ATOM      5  C   UNL     1       0.441  -1.504   0.170  0.00  0.00    +0.034 A 
ATOM      6  C   UNL     1       1.197  -0.655  -0.628  0.00  0.00    +0.025 A 
ATOM      7  C   UNL     1       0.998   0.710  -0.566  0.00  0.00    +0.025 A 
ATOM      8  C   UNL     1       0.043   1.233   0.295  0.00  0.00    +0.030 A 
ATOM      9  C   UNL     1      -0.713   0.384   1.093  0.00  0.00    +0.025 A 
ATOM     10  C   UNL     1      -0.514  -0.981   1.031  0.00  0.00    +0.025 A 
BRANCH   8  11
ATOM     11  N   UNL     1      -0.158   2.616   0.359  0.00  0.00    -0.330 N 
ATOM     12  C   UNL     1       1.094   3.316   0.671  0.00  0.00    +0.105 C 
ATOM     13  C   UNL     1       0.869   4.828   0.590  0.00  0.00    +0.019 C 
ATOM     14  C   UNL     1      -0.224   5.231   1.584  0.00  0.00    +0.003 C 
ATOM     15  C   UNL     1      -1.503   4.452   1.267  0.00  0.00    +0.019 C 
ATOM     16  C   UNL     1      -1.209   2.951   1.329  0.00  0.00    +0.105 C 
ENDBRANCH   8  11
ENDBRANCH   3   5
BRANCH   1  17
ATOM     17  C   UNL     1       2.099  -4.865  -0.207  0.00  0.00    +0.259 C 
ATOM     18  C   UNL     1       1.527  -5.614   0.998  0.00  0.00    +0.062 C 
BRANCH  17  19
ATOM     19  O   UNL     1       3.519  -5.144  -0.320  0.00  0.00    -0.449 OA
BRANCH  19  20
ATOM     20  C   UNL     1       3.877  -6.205  -1.069  0.00  0.00    +0.340 C 
ATOM     21  O   UNL     1       3.025  -6.879  -1.613  0.00  0.00    -0.245 OA
BRANCH  20  24
ATOM     22  C   UNL     1       4.615  -8.650  -2.429  0.00  0.00    +0.047 C 
ATOM     23  C   UNL     1       5.673  -7.726  -1.884  0.00  0.00    -0.006 A 
ATOM     24  C   UNL     1       5.304  -6.548  -1.229  0.00  0.00    +0.064 A 
ATOM     25  C   UNL     1       6.291  -5.701  -0.722  0.00  0.00    +0.015 A 
ATOM     26  C   UNL     1       7.622  -6.028  -0.875  0.00  0.00    +0.003 A 
ATOM     27  C   UNL     1       7.981  -7.193  -1.530  0.00  0.00    +0.033 A 
ATOM     28  C   UNL     1       7.008  -8.038  -2.035  0.00  0.00    +0.130 A 
BRANCH  28  29
ATOM     29  N   UNL     1       7.401  -9.282  -2.734  0.00  0.00    +0.057 N 
ATOM     30  O   UNL     1       8.569  -9.625  -2.755  0.00  0.00    -0.126 OA
ATOM     31  O   UNL     1       6.556  -9.962  -3.288  0.00  0.00    -0.126 OA
ENDBRANCH  28  29
ENDBRANCH  20  24
ENDBRANCH  19  20
ENDBRANCH  17  19
ENDBRANCH   1  17
TORSDOF 7
