REMARK  Name = ZINC27516692
REMARK  9 active torsions:
REMARK  status: ('A' for Active; 'I' for Inactive)
REMARK    1  A    between atoms: C_6  and  C_7
REMARK    2  A    between atoms: C_8  and  C_29
REMARK    3  A    between atoms: N_10  and  C_12
REMARK    4  A    between atoms: C_12  and  C_13
REMARK    5  A    between atoms: C_13  and  C_14
REMARK    6  A    between atoms: C_14  and  O_16
REMARK    7  A    between atoms: O_16  and  N_17
REMARK    8  A    between atoms: C_18  and  C_19
REMARK    9  A    between atoms: C_22  and  N_25
REMARK                            x       y       z     vdW  Elec       q    Type
REMARK                         _______ _______ _______ _____ _____    ______ ____
ROOT
ATOM      1  C   UNL     1      -0.718   1.572   1.248  0.00  0.00    +0.338 C 
ATOM      2  O   UNL     1      -1.714   2.256   1.150  0.00  0.00    -0.248 OA
ENDROOT
BRANCH   1   3
ATOM      3  C   UNL     1      -0.013   1.086   0.008  0.00  0.00    +0.146 C 
BRANCH   3   4
ATOM      4  C   UNL     1      -0.753   1.593  -1.232  0.00  0.00    +0.154 C 
BRANCH   4   8
ATOM      5  C   UNL     1       1.568   0.773  -3.882  0.00  0.00    +0.103 A 
ATOM      6  C   UNL     1       0.328   0.166  -4.381  0.00  0.00    +0.059 A 
ATOM      7  C   UNL     1      -0.641   0.424  -3.428  0.00  0.00    +0.120 A 
ATOM      8  N   UNL     1      -0.067   1.120  -2.437  0.00  0.00    -0.270 N 
ATOM      9  N   UNL     1       1.283   1.333  -2.729  0.00  0.00    -0.171 NA
BRANCH   5  15
ATOM     10  C   UNL     1       3.288  -0.348  -5.297  0.00  0.00    +0.011 A 
ATOM     11  C   UNL     1       4.516  -0.351  -5.925  0.00  0.00    +0.020 A 
ATOM     12  C   UNL     1       5.356   0.744  -5.813  0.00  0.00    +0.041 A 
ATOM     13  C   UNL     1       4.966   1.849  -5.074  0.00  0.00    +0.020 A 
ATOM     14  C   UNL     1       3.738   1.863  -4.446  0.00  0.00    +0.011 A 
ATOM     15  C   UNL     1       2.889   0.763  -4.556  0.00  0.00    +0.003 A 
ATOM     16 CL   UNL     1       6.903   0.732  -6.600  0.00  0.00    -0.084 Cl
ENDBRANCH   5  15
BRANCH   6  17
ATOM     17  C   UNL     1       0.152  -0.568  -5.637  0.00  0.00    +0.262 C 
ATOM     18  O   UNL     1      -0.936  -1.020  -5.928  0.00  0.00    -0.296 OA
ENDBRANCH   6  17
ENDBRANCH   4   8
ENDBRANCH   3   4
ENDBRANCH   1   3
BRANCH   1  19
ATOM     19  O   UNL     1      -0.244   1.248   2.460  0.00  0.00    -0.315 OA
BRANCH  19  20
ATOM     20  N   UNL     1      -0.857   1.669   3.424  0.00  0.00    -0.059 NA
ATOM     21  C   UNL     1      -0.448   1.390   4.628  0.00  0.00    +0.163 C 
ATOM     22  N   UNL     1       0.682   0.614   4.812  0.00  0.00    -0.340 N 
ATOM     23  H   UNL     1       1.028   0.378   5.829  0.00  0.00    +0.144 HD
ATOM     24  H   UNL     1       1.236   0.233   3.941  0.00  0.00    +0.144 HD
BRANCH  21  25
ATOM     25  C   UNL     1      -1.192   1.903   5.800  0.00  0.00    +0.018 A 
ATOM     26  C   UNL     1      -2.329   2.691   5.618  0.00  0.00    +0.013 A 
ATOM     27  C   UNL     1      -3.022   3.160   6.715  0.00  0.00    +0.033 A 
ATOM     28  C   UNL     1      -2.585   2.862   7.993  0.00  0.00    +0.126 A 
ATOM     29  C   UNL     1      -1.455   2.086   8.180  0.00  0.00    +0.033 A 
ATOM     30  C   UNL     1      -0.757   1.605   7.091  0.00  0.00    +0.013 A 
BRANCH  28  31
ATOM     31  N   UNL     1      -3.330   3.374   9.165  0.00  0.00    +0.056 N 
ATOM     32  O   UNL     1      -2.947   3.112  10.291  0.00  0.00    -0.126 OA
ATOM     33  O   UNL     1      -4.325   4.057   9.003  0.00  0.00    -0.126 OA
ENDBRANCH  28  31
ENDBRANCH  21  25
ENDBRANCH  19  20
ENDBRANCH   1  19
TORSDOF 9
