REMARK  Name = ZINC12867692
REMARK  7 active torsions:
REMARK  status: ('A' for Active; 'I' for Inactive)
REMARK    1  A    between atoms: C_1  and  C_2
REMARK    2  A    between atoms: C_6  and  O_35
REMARK    3  A    between atoms: C_7  and  O_34
REMARK    4  A    between atoms: C_12  and  C_13
REMARK    5  A    between atoms: C_12  and  N_67
REMARK    6  A    between atoms: C_20  and  C_33
REMARK    7  A    between atoms: O_35  and  C_36
REMARK                            x       y       z     vdW  Elec       q    Type
REMARK                         _______ _______ _______ _____ _____    ______ ____
ROOT
ATOM      1  C   UNL     1      -1.297   3.265  -1.323  0.00  0.00    -0.063 C 
ENDROOT
BRANCH   1   2
ATOM      2  C   UNL     1      -0.385   2.046  -1.167  0.00  0.00    +0.088 C 
ATOM      3  C   UNL     1      -0.039   1.813   0.334  0.00  0.00    +0.042 C 
ATOM      4  C   UNL     1       0.102   0.301   0.516  0.00  0.00    +0.014 C 
ATOM      5  C   UNL     1       0.879  -0.020   1.791  0.00  0.00    +0.030 C 
ATOM      6  C   UNL     1       2.296   0.554   1.647  0.00  0.00    -0.023 C 
ATOM      7  C   UNL     1       3.128   0.161   2.867  0.00  0.00    +0.007 C 
ATOM      8  C   UNL     1       3.272  -1.360   2.930  0.00  0.00    +0.003 C 
ATOM      9  C   UNL     1       1.890  -1.996   3.113  0.00  0.00    +0.037 C 
ATOM     10  C   UNL     1       0.977  -1.535   1.974  0.00  0.00    +0.096 C 
ATOM     11  C   UNL     1      -0.260  -2.376   1.663  0.00  0.00    +0.196 C 
ATOM     12  O   UNL     1       0.889  -2.358   0.813  0.00  0.00    -0.368 OA
ATOM     13  C   UNL     1       2.180   2.077   1.569  0.00  0.00    +0.052 C 
ATOM     14  C   UNL     1       1.335   2.507   0.395  0.00  0.00    +0.181 C 
ATOM     15  O   UNL     1       1.935   2.192  -0.894  0.00  0.00    -0.461 OA
ATOM     16  C   UNL     1       0.959   2.300  -1.823  0.00  0.00    +0.309 C 
ATOM     17  O   UNL     1       1.130   2.558  -2.991  0.00  0.00    -0.251 OA
ATOM     18  C   UNL     1       2.949   0.004   0.378  0.00  0.00    +0.011 C 
ENDBRANCH   1   2
BRANCH   1  29
ATOM     19  C   UNL     1      -2.575   5.139   0.495  0.00  0.00    -0.008 C 
ATOM     20  C   UNL     1      -3.342   4.237  -0.474  0.00  0.00    -0.040 C 
ATOM     21  C   UNL     1      -4.705   3.940   0.096  0.00  0.00    -0.054 A 
ATOM     22  C   UNL     1      -5.408   4.975   0.695  0.00  0.00    +0.051 A 
ATOM     23  C   UNL     1      -6.664   4.751   1.230  0.00  0.00    +0.161 A 
ATOM     24  C   UNL     1      -7.224   3.479   1.165  0.00  0.00    +0.159 A 
ATOM     25  C   UNL     1      -6.519   2.450   0.567  0.00  0.00    +0.053 A 
ATOM     26  C   UNL     1      -5.259   2.679   0.035  0.00  0.00    -0.044 A 
ATOM     27  C   UNL     1      -4.527   1.523  -0.597  0.00  0.00    +0.017 C 
ATOM     28  C   UNL     1      -3.384   2.043  -1.470  0.00  0.00    -0.073 C 
ATOM     29  N   UNL     1      -2.589   2.986  -0.657  0.00  0.00    +0.385 N 
ATOM     30  H   UNL     1      -2.407   2.566   0.262  0.00  0.00    -0.081 HD
BRANCH  24  31
ATOM     31  O   UNL     1      -8.459   3.249   1.686  0.00  0.00    -0.503 OA
ATOM     32  H   UNL     1      -9.182   3.383   1.059  0.00  0.00    +0.292 HD
ENDBRANCH  24  31
BRANCH  23  33
ATOM     33  O   UNL     1      -7.348   5.770   1.817  0.00  0.00    -0.491 OA
ATOM     34  C   UNL     1      -6.709   7.048   1.847  0.00  0.00    +0.277 C 
ENDBRANCH  23  33
ENDBRANCH   1  29
TORSDOF 4
