REMARK  Name = ZINC54632808
REMARK  9 active torsions:
REMARK  status: ('A' for Active; 'I' for Inactive)
REMARK    1  A    between atoms: C_1  and  C_2
REMARK    2  A    between atoms: C_5  and  C_8
REMARK    3  A    between atoms: C_8  and  C_28
REMARK    4  A    between atoms: N_11  and  C_15
REMARK    5  A    between atoms: C_15  and  C_16
REMARK    6  A    between atoms: N_18  and  C_19
REMARK    7  A    between atoms: C_19  and  C_20
REMARK    8  A    between atoms: C_20  and  C_21
REMARK    9  A    between atoms: C_24  and  O_27
REMARK                            x       y       z     vdW  Elec       q    Type
REMARK                         _______ _______ _______ _____ _____    ______ ____
ROOT
ATOM      1  C   UNL     1       0.059  -4.275  -0.021  0.00  0.00    +0.135 C 
ATOM      2  C   UNL     1      -0.728  -4.825   1.151  0.00  0.00    +0.251 C 
ATOM      3  O   UNL     1      -0.502  -4.654   2.330  0.00  0.00    -0.272 OA
ATOM      4  N   UNL     1      -1.732  -5.543   0.611  0.00  0.00    -0.215 N 
ATOM      5  C   UNL     1      -1.689  -5.524  -0.726  0.00  0.00    +0.310 C 
ATOM      6  O   UNL     1      -2.490  -6.100  -1.437  0.00  0.00    -0.252 OA
ATOM      7  N   UNL     1      -0.660  -4.796  -1.197  0.00  0.00    -0.281 N 
ATOM      8  C   UNL     1       1.499  -4.794   0.002  0.00  0.00    +0.047 C 
ATOM      9  H   UNL     1      -0.435  -4.644  -2.128  0.00  0.00    +0.152 HD
ENDROOT
BRANCH   1  14
ATOM     10  C   UNL     1      -0.018   1.503   0.010  0.00  0.00    +0.044 C 
ATOM     11  C   UNL     1       0.002  -0.004   0.002  0.00  0.00    -0.050 A 
ATOM     12  C   UNL     1       0.006  -0.689  -1.199  0.00  0.00    +0.004 A 
ATOM     13  C   UNL     1       0.025  -2.071  -1.206  0.00  0.00    +0.006 A 
ATOM     14  C   UNL     1       0.040  -2.768  -0.013  0.00  0.00    -0.015 A 
ATOM     15  C   UNL     1       0.037  -2.084   1.188  0.00  0.00    +0.006 A 
ATOM     16  C   UNL     1       0.023  -0.702   1.195  0.00  0.00    +0.004 A 
ENDBRANCH   1  14
BRANCH   4  17
ATOM     17  C   UNL     1      -2.746  -6.258   1.391  0.00  0.00    +0.213 C 
BRANCH  17  18
ATOM     18  C   UNL     1      -3.917  -5.345   1.650  0.00  0.00    +0.231 C 
ATOM     19  O   UNL     1      -3.906  -4.210   1.224  0.00  0.00    -0.274 OA
ATOM     20  N   UNL     1      -4.976  -5.791   2.354  0.00  0.00    -0.314 N 
ATOM     21  H   UNL     1      -4.984  -6.699   2.694  0.00  0.00    +0.149 HD
BRANCH  20  22
ATOM     22  C   UNL     1      -6.114  -4.904   2.605  0.00  0.00    +0.109 C 
BRANCH  22  23
ATOM     23  C   UNL     1      -7.172  -5.650   3.420  0.00  0.00    +0.054 C 
BRANCH  23  24
ATOM     24  C   UNL     1      -8.343  -4.737   3.679  0.00  0.00    -0.046 A 
ATOM     25  C   UNL     1      -8.360  -3.940   4.808  0.00  0.00    +0.007 A 
ATOM     26  C   UNL     1      -9.433  -3.103   5.048  0.00  0.00    +0.045 A 
ATOM     27  C   UNL     1     -10.493  -3.062   4.154  0.00  0.00    +0.117 A 
ATOM     28  C   UNL     1     -10.473  -3.862   3.021  0.00  0.00    +0.045 A 
ATOM     29  C   UNL     1      -9.396  -4.694   2.783  0.00  0.00    +0.007 A 
BRANCH  27  30
ATOM     30  O   UNL     1     -11.549  -2.239   4.387  0.00  0.00    -0.507 OA
ATOM     31  H   UNL     1     -11.451  -1.356   4.006  0.00  0.00    +0.292 HD
ENDBRANCH  27  30
ENDBRANCH  23  24
ENDBRANCH  22  23
ENDBRANCH  20  22
ENDBRANCH  17  18
ENDBRANCH   4  17
TORSDOF 7
