REMARK  Name = ZINC11012642
REMARK  11 active torsions:
REMARK  status: ('A' for Active; 'I' for Inactive)
REMARK    1  A    between atoms: C_1  and  C_2
REMARK    2  A    between atoms: C_4  and  S_25
REMARK    3  A    between atoms: C_6  and  N_9
REMARK    4  A    between atoms: C_7  and  C_8
REMARK    5  A    between atoms: C_10  and  C_12
REMARK    6  A    between atoms: C_12  and  N_50
REMARK    7  A    between atoms: C_13  and  N_50
REMARK    8  A    between atoms: C_14  and  C_15
REMARK    9  A    between atoms: C_14  and  N_50
REMARK   10  A    between atoms: C_17  and  N_22
REMARK   11  A    between atoms: S_25  and  N_28
REMARK                            x       y       z     vdW  Elec       q    Type
REMARK                         _______ _______ _______ _____ _____    ______ ____
ROOT
ATOM      1  N   UNL     1      -1.996   4.756  -0.105  0.00  0.00    -0.287 N 
ATOM      2  C   UNL     1      -1.732   3.449   0.090  0.00  0.00    +0.201 C 
ATOM      3  O   UNL     1      -2.236   2.614  -0.631  0.00  0.00    -0.278 OA
ATOM      4  H   UNL     1      -1.657   5.418   0.518  0.00  0.00    +0.155 HD
ENDROOT
BRANCH   1  10
ATOM      5  C   UNL     1      -4.975   8.049  -2.215  0.00  0.00    +0.044 C 
ATOM      6  C   UNL     1      -4.211   6.751  -2.258  0.00  0.00    -0.044 A 
ATOM      7  C   UNL     1      -4.263   5.956  -3.389  0.00  0.00    +0.032 A 
ATOM      8  C   UNL     1      -3.563   4.764  -3.432  0.00  0.00    +0.107 A 
ATOM      9  C   UNL     1      -2.810   4.364  -2.345  0.00  0.00    +0.052 A 
ATOM     10  C   UNL     1      -2.757   5.159  -1.208  0.00  0.00    +0.038 A 
ATOM     11  C   UNL     1      -3.465   6.353  -1.166  0.00  0.00    -0.026 A 
ATOM     12  C   UNL     1      -3.415   7.217   0.068  0.00  0.00    +0.046 C 
BRANCH   8  13
ATOM     13  S   UNL     1      -3.631   3.755  -4.875  0.00  0.00    +0.056 S 
ATOM     14  O   UNL     1      -3.965   4.614  -5.956  0.00  0.00    -0.153 OA
ATOM     15  O   UNL     1      -2.455   2.958  -4.869  0.00  0.00    -0.153 OA
BRANCH  13  16
ATOM     16  N   UNL     1      -4.907   2.716  -4.685  0.00  0.00    -0.204 NA
ATOM     17  H   UNL     1      -5.447   2.752  -3.880  0.00  0.00    +0.144 HD
ATOM     18  H   UNL     1      -5.115   2.071  -5.380  0.00  0.00    +0.144 HD
ENDBRANCH  13  16
ENDBRANCH   8  13
ENDBRANCH   1  10
BRANCH   2  19
ATOM     19  C   UNL     1      -0.810   3.025   1.204  0.00  0.00    +0.019 C 
BRANCH  19  21
ATOM     20  C   UNL     1      -0.009   1.087  -0.007  0.00  0.00    -0.095 C 
ATOM     21  N   UNL     1      -0.714   1.550   1.207  0.00  0.00    +0.386 N 
ATOM     22  H   UNL     1      -1.661   1.153   1.214  0.00  0.00    -0.081 HD
BRANCH  21  23
ATOM     23  C   UNL     1       0.007   1.093   2.414  0.00  0.00    -0.041 C 
BRANCH  23  24
ATOM     24  C   UNL     1      -0.100  -0.407   2.506  0.00  0.00    -0.043 A 
ATOM     25  C   UNL     1       0.992  -1.198   2.201  0.00  0.00    +0.036 A 
ATOM     26  C   UNL     1       0.896  -2.574   2.290  0.00  0.00    +0.126 A 
ATOM     27  C   UNL     1      -0.296  -3.160   2.674  0.00  0.00    +0.034 A 
ATOM     28  C   UNL     1      -1.390  -2.371   2.974  0.00  0.00    +0.022 A 
ATOM     29  C   UNL     1      -1.292  -0.993   2.890  0.00  0.00    +0.042 A 
ATOM     30 CL   UNL     1      -2.666  -0.001   3.266  0.00  0.00    -0.083 Cl
BRANCH  26  31
ATOM     31  N   UNL     1       2.067  -3.420   1.969  0.00  0.00    +0.056 N 
ATOM     32  O   UNL     1       1.981  -4.632   2.042  0.00  0.00    -0.126 OA
ATOM     33  O   UNL     1       3.117  -2.903   1.631  0.00  0.00    -0.126 OA
ENDBRANCH  26  31
ENDBRANCH  23  24
ENDBRANCH  21  23
ENDBRANCH  19  21
ENDBRANCH   2  19
TORSDOF 8
