REMARK  Name = ZINC09283137
REMARK  12 active torsions:
REMARK  status: ('A' for Active; 'I' for Inactive)
REMARK    1  A    between atoms: C_1  and  C_2
REMARK    2  A    between atoms: C_2  and  N_3
REMARK    3  A    between atoms: N_3  and  C_4
REMARK    4  A    between atoms: N_3  and  C_6
REMARK    5  A    between atoms: C_4  and  C_5
REMARK    6  A    between atoms: C_9  and  C_12
REMARK    7  A    between atoms: N_14  and  N_15
REMARK    8  A    between atoms: C_16  and  C_18
REMARK    9  A    between atoms: C_18  and  C_20
REMARK   10  A    between atoms: C_18  and  N_21
REMARK   11  A    between atoms: N_21  and  S_22
REMARK   12  A    between atoms: S_22  and  C_25
REMARK                            x       y       z     vdW  Elec       q    Type
REMARK                         _______ _______ _______ _____ _____    ______ ____
ROOT
ATOM      1  N   UNL     1       2.447  -4.216  -0.043  0.00  0.00    -0.233 N 
ATOM      2  C   UNL     1       3.624  -4.871  -0.058  0.00  0.00    +0.247 C 
ATOM      3  O   UNL     1       4.665  -4.248  -0.065  0.00  0.00    -0.273 OA
ATOM      4  H   UNL     1       1.614  -4.714  -0.037  0.00  0.00    +0.173 HD
ENDROOT
BRANCH   1   7
ATOM      5  C   UNL     1       1.246  -2.160  -0.021  0.00  0.00    +0.260 C 
ATOM      6  O   UNL     1       0.203  -2.785  -0.014  0.00  0.00    -0.269 OA
ATOM      7  N   UNL     1       2.424  -2.815  -0.036  0.00  0.00    -0.230 N 
ATOM      8  H   UNL     1       3.256  -2.317  -0.041  0.00  0.00    +0.173 HD
BRANCH   5  12
ATOM      9  C   UNL     1       1.179   2.086   0.002  0.00  0.00    +0.030 A 
ATOM     10  C   UNL     1      -0.017   1.372   0.010  0.00  0.00    +0.024 A 
ATOM     11  C   UNL     1       0.002  -0.004   0.002  0.00  0.00    +0.015 A 
ATOM     12  C   UNL     1       1.223  -0.685  -0.013  0.00  0.00    +0.038 A 
ATOM     13  C   UNL     1       2.421   0.035  -0.021  0.00  0.00    +0.015 A 
ATOM     14  C   UNL     1       2.396   1.411  -0.013  0.00  0.00    +0.024 A 
BRANCH   9  15
ATOM     15  N   UNL     1       1.156   3.476   0.009  0.00  0.00    -0.330 N 
BRANCH  15  17
ATOM     16  C   UNL     1       2.837   4.498  -1.444  0.00  0.00    +0.024 C 
ATOM     17  C   UNL     1       2.413   4.229   0.001  0.00  0.00    +0.102 C 
ENDBRANCH  15  17
BRANCH  15  18
ATOM     18  C   UNL     1      -0.124   4.188   0.025  0.00  0.00    +0.102 C 
ATOM     19  C   UNL     1      -0.556   4.429   1.473  0.00  0.00    +0.024 C 
ENDBRANCH  15  18
ENDBRANCH   9  15
ENDBRANCH   5  12
ENDBRANCH   1   7
BRANCH   2  20
ATOM     20  C   UNL     1       3.648  -6.378  -0.066  0.00  0.00    +0.160 C 
ATOM     21  C   UNL     1       2.923  -6.893  -1.310  0.00  0.00    +0.035 C 
BRANCH  20  22
ATOM     22  N   UNL     1       5.037  -6.844  -0.082  0.00  0.00    -0.178 NA
ATOM     23  H   UNL     1       5.711  -6.343  -0.568  0.00  0.00    +0.149 HD
BRANCH  22  24
ATOM     24  S   UNL     1       5.456  -8.225   0.730  0.00  0.00    +0.059 S 
ATOM     25  O   UNL     1       6.845  -8.423   0.504  0.00  0.00    -0.153 OA
ATOM     26  O   UNL     1       4.905  -8.113   2.035  0.00  0.00    -0.153 OA
BRANCH  24  27
ATOM     27  C   UNL     1       4.623  -9.564  -0.056  0.00  0.00    +0.107 A 
ATOM     28  C   UNL     1       3.365  -9.944   0.376  0.00  0.00    +0.030 A 
ATOM     29  C   UNL     1       2.708 -10.990  -0.243  0.00  0.00    +0.023 A 
ATOM     30  C   UNL     1       3.313 -11.666  -1.288  0.00  0.00    +0.059 A 
ATOM     31  C   UNL     1       4.575 -11.290  -1.716  0.00  0.00    +0.061 A 
ATOM     32  C   UNL     1       5.229 -10.238  -1.099  0.00  0.00    +0.050 A 
ATOM     33 CL   UNL     1       5.335 -12.136  -3.027  0.00  0.00    -0.082 Cl
ATOM     34 CL   UNL     1       2.491 -12.985  -2.061  0.00  0.00    -0.082 Cl
ENDBRANCH  24  27
ENDBRANCH  22  24
ENDBRANCH  20  22
ENDBRANCH   2  20
TORSDOF 9
