REMARK  Name = ZINC24878036
REMARK  8 active torsions:
REMARK  status: ('A' for Active; 'I' for Inactive)
REMARK    1  A    between atoms: C_1  and  C_2
REMARK    2  A    between atoms: C_3  and  C_31
REMARK    3  A    between atoms: N_4  and  C_24
REMARK    4  A    between atoms: C_5  and  N_9
REMARK    5  A    between atoms: C_6  and  C_7
REMARK    6  A    between atoms: C_10  and  C_12
REMARK    7  A    between atoms: C_12  and  S_13
REMARK    8  A    between atoms: S_13  and  C_14
REMARK                            x       y       z     vdW  Elec       q    Type
REMARK                         _______ _______ _______ _____ _____    ______ ____
ROOT
ATOM      1  N   UNL     1      -1.839  -4.887  -0.120  0.00  0.00    -0.270 N 
ATOM      2  C   UNL     1      -1.487  -4.088   0.906  0.00  0.00    +0.229 C 
ATOM      3  O   UNL     1      -2.128  -4.106   1.936  0.00  0.00    -0.275 OA
ATOM      4  H   UNL     1      -1.311  -4.810  -1.083  0.00  0.00    +0.156 HD
ENDROOT
BRANCH   1   9
ATOM      5  C   UNL     1      -4.455  -9.174   0.449  0.00  0.00    +0.047 C 
ATOM      6  C   UNL     1      -4.077  -7.724   0.294  0.00  0.00    -0.010 A 
ATOM      7  C   UNL     1      -4.916  -6.675   0.264  0.00  0.00    +0.027 A 
ATOM      8  N   UNL     1      -4.193  -5.521   0.109  0.00  0.00    -0.300 N 
ATOM      9  C   UNL     1      -2.865  -5.807   0.036  0.00  0.00    +0.128 A 
ATOM     10  C   UNL     1      -2.720  -7.184   0.141  0.00  0.00    +0.095 A 
ATOM     11  C   UNL     1      -6.416  -6.756   0.381  0.00  0.00    +0.064 C 
BRANCH   8  12
ATOM     12  C   UNL     1      -4.742  -4.232   0.037  0.00  0.00    +0.048 A 
ATOM     13  C   UNL     1      -5.363  -3.679   1.148  0.00  0.00    +0.029 A 
ATOM     14  C   UNL     1      -5.900  -2.408   1.077  0.00  0.00    +0.040 A 
ATOM     15  C   UNL     1      -5.827  -1.690  -0.105  0.00  0.00    +0.124 A 
ATOM     16  C   UNL     1      -5.212  -2.243  -1.216  0.00  0.00    +0.040 A 
ATOM     17  C   UNL     1      -4.670  -3.511  -1.147  0.00  0.00    +0.029 A 
ATOM     18  F   UNL     1      -6.357  -0.450  -0.175  0.00  0.00    -0.205 F 
ENDBRANCH   8  12
BRANCH  10  19
ATOM     19  C   UNL     1      -1.496  -7.926   0.109  0.00  0.00    +0.103 C 
ATOM     20  N   UNL     1      -0.524  -8.514   0.084  0.00  0.00    -0.191 NA
ENDBRANCH  10  19
ENDBRANCH   1   9
BRANCH   2  21
ATOM     21  C   UNL     1      -0.298  -3.172   0.775  0.00  0.00    +0.173 C 
BRANCH  21  22
ATOM     22  S   UNL     1      -0.086  -2.235   2.310  0.00  0.00    -0.077 S 
BRANCH  22  23
ATOM     23  C   UNL     1       1.330  -1.275   1.889  0.00  0.00    +0.191 A 
ATOM     24  N   UNL     1       1.828  -0.423   2.778  0.00  0.00    -0.207 NA
ATOM     25  C   UNL     1       2.888   0.323   2.520  0.00  0.00    +0.129 A 
ATOM     26  C   UNL     1       3.522   0.216   1.250  0.00  0.00    +0.047 A 
ATOM     27  C   UNL     1       4.685   0.917   0.733  0.00  0.00    +0.021 A 
ATOM     28  C   UNL     1       5.111   0.651  -0.510  0.00  0.00    +0.048 A 
ATOM     29  S   UNL     1       3.962  -0.583  -1.089  0.00  0.00    -0.077 S 
ATOM     30  C   UNL     1       2.941  -0.708   0.356  0.00  0.00    +0.114 A 
ATOM     31  N   UNL     1       1.880  -1.417   0.690  0.00  0.00    -0.215 NA
ATOM     32  N   UNL     1       3.375   1.198   3.473  0.00  0.00    -0.343 N 
ATOM     33  H   UNL     1       4.258   1.816   3.251  0.00  0.00    +0.144 HD
ATOM     34  H   UNL     1       2.880   1.277   4.452  0.00  0.00    +0.144 HD
ENDBRANCH  22  23
ENDBRANCH  21  22
ENDBRANCH   2  21
TORSDOF 6
