REMARK  Name = ZINC13050987
REMARK  8 active torsions:
REMARK  status: ('A' for Active; 'I' for Inactive)
REMARK    1  A    between atoms: C_1  and  C_2
REMARK    2  A    between atoms: C_2  and  C_4
REMARK    3  A    between atoms: C_2  and  S_14
REMARK    4  A    between atoms: N_6  and  C_7
REMARK    5  A    between atoms: S_14  and  C_15
REMARK    6  A    between atoms: C_19  and  C_32
REMARK    7  A    between atoms: N_25  and  C_26
REMARK    8  A    between atoms: C_26  and  C_27
REMARK                            x       y       z     vdW  Elec       q    Type
REMARK                         _______ _______ _______ _____ _____    ______ ____
ROOT
ATOM      1  C   UNL     1      -2.774  -0.537   1.915  0.00  0.00    +0.173 A 
ATOM      2  N   UNL     1      -3.000  -0.671   3.198  0.00  0.00    -0.223 NA
ATOM      3  C   UNL     1      -2.489  -1.708   3.903  0.00  0.00    +0.080 A 
ATOM      4  C   UNL     1      -2.732  -1.849   5.273  0.00  0.00    +0.043 A 
ATOM      5  C   UNL     1      -2.188  -2.930   5.955  0.00  0.00    +0.065 A 
ATOM      6  C   UNL     1      -1.402  -3.873   5.280  0.00  0.00    +0.016 A 
ATOM      7  C   UNL     1      -1.158  -3.746   3.943  0.00  0.00    +0.016 A 
ATOM      8  C   UNL     1      -1.695  -2.669   3.238  0.00  0.00    +0.065 A 
ATOM      9  C   UNL     1      -1.462  -2.496   1.795  0.00  0.00    +0.263 A 
ATOM     10  O   UNL     1      -0.791  -3.292   1.165  0.00  0.00    -0.267 OA
ATOM     11  N   UNL     1      -2.018  -1.418   1.196  0.00  0.00    -0.280 N 
ENDROOT
BRANCH   5  12
ATOM     12  C   UNL     1      -2.440  -3.086   7.404  0.00  0.00    +0.387 C 
ATOM     13  O   UNL     1      -3.120  -2.271   7.994  0.00  0.00    -0.241 OA
ATOM     14  O   UNL     1      -1.915  -4.132   8.070  0.00  0.00    -0.241 OA
ENDBRANCH   5  12
BRANCH   1  15
ATOM     15  S   UNL     1      -3.479   0.844   1.077  0.00  0.00    -0.075 S 
BRANCH  15  17
ATOM     16  C   UNL     1      -5.456   0.723   2.959  0.00  0.00    +0.029 C 
ATOM     17  C   UNL     1      -4.340   1.641   2.455  0.00  0.00    +0.137 C 
BRANCH  17  18
ATOM     18  C   UNL     1      -4.934   2.945   1.990  0.00  0.00    +0.230 C 
ATOM     19  O   UNL     1      -5.199   3.106   0.817  0.00  0.00    -0.274 OA
ATOM     20  N   UNL     1      -5.170   3.933   2.876  0.00  0.00    -0.285 N 
ATOM     21  H   UNL     1      -5.029   3.778   3.823  0.00  0.00    +0.155 HD
BRANCH  20  22
ATOM     22  C   UNL     1      -5.617   5.181   2.429  0.00  0.00    +0.036 A 
ATOM     23  C   UNL     1      -6.480   5.933   3.216  0.00  0.00    +0.023 A 
ATOM     24  C   UNL     1      -6.920   7.165   2.774  0.00  0.00    +0.005 A 
ATOM     25  C   UNL     1      -6.502   7.652   1.549  0.00  0.00    +0.038 A 
ATOM     26  C   UNL     1      -5.641   6.907   0.762  0.00  0.00    +0.125 A 
ATOM     27  C   UNL     1      -5.194   5.673   1.202  0.00  0.00    +0.061 A 
ATOM     28  F   UNL     1      -5.233   7.386  -0.433  0.00  0.00    -0.205 F 
ENDBRANCH  20  22
ENDBRANCH  17  18
ENDBRANCH  15  17
ENDBRANCH   1  15
BRANCH  11  29
ATOM     29  C   UNL     1      -1.813  -1.198  -0.238  0.00  0.00    +0.201 C 
BRANCH  29  30
ATOM     30  C   UNL     1      -0.580  -0.357  -0.446  0.00  0.00    +0.125 A 
ATOM     31  C   UNL     1       0.672  -0.823  -0.606  0.00  0.00    +0.046 A 
ATOM     32  C   UNL     1       1.511   0.304  -0.768  0.00  0.00    +0.041 A 
ATOM     33  C   UNL     1       0.721   1.391  -0.698  0.00  0.00    +0.195 A 
ATOM     34  O   UNL     1      -0.544   0.984  -0.502  0.00  0.00    -0.466 OA
ENDBRANCH  29  30
ENDBRANCH  11  29
TORSDOF 7
