REMARK  Name = ZINC63182478
REMARK  8 active torsions:
REMARK  status: ('A' for Active; 'I' for Inactive)
REMARK    1  A    between atoms: C_1  and  C_2
REMARK    2  A    between atoms: N_4  and  C_5
REMARK    3  A    between atoms: C_9  and  N_11
REMARK    4  A    between atoms: C_12  and  C_14
REMARK    5  A    between atoms: C_14  and  C_16
REMARK    6  A    between atoms: C_14  and  N_26
REMARK    7  A    between atoms: C_16  and  C_17
REMARK    8  A    between atoms: C_27  and  C_29
REMARK                            x       y       z     vdW  Elec       q    Type
REMARK                         _______ _______ _______ _____ _____    ______ ____
ROOT
ATOM      1  C   UNL     1      -4.517  -7.193   0.306  0.00  0.00    +0.163 C 
ENDROOT
BRANCH   1   3
ATOM      2  N   UNL     1      -3.302  -5.052   0.060  0.00  0.00    -0.284 N 
ATOM      3  C   UNL     1      -3.245  -6.388   0.228  0.00  0.00    +0.238 C 
ATOM      4  O   UNL     1      -2.170  -6.943   0.316  0.00  0.00    -0.273 OA
ATOM      5  H   UNL     1      -4.158  -4.617  -0.077  0.00  0.00    +0.155 HD
BRANCH   2  10
ATOM      6  C   UNL     1      -0.968  -2.267   0.650  0.00  0.00    +0.035 A 
ATOM      7  C   UNL     1       0.206  -2.797   0.128  0.00  0.00    +0.023 A 
ATOM      8  C   UNL     1       0.211  -4.069  -0.412  0.00  0.00    +0.004 A 
ATOM      9  C   UNL     1      -0.950  -4.817  -0.435  0.00  0.00    +0.023 A 
ATOM     10  C   UNL     1      -2.127  -4.293   0.085  0.00  0.00    +0.035 A 
ATOM     11  C   UNL     1      -2.134  -3.019   0.633  0.00  0.00    +0.046 A 
BRANCH   6  15
ATOM     12  C   UNL     1      -1.676   0.652   2.918  0.00  0.00    +0.109 C 
ATOM     13  C   UNL     1      -1.748  -0.704   2.264  0.00  0.00    +0.214 C 
ATOM     14  O   UNL     1      -2.505  -1.546   2.699  0.00  0.00    -0.276 OA
ATOM     15  N   UNL     1      -0.972  -0.980   1.197  0.00  0.00    -0.286 N 
ATOM     16  H   UNL     1      -0.417  -0.285   0.809  0.00  0.00    +0.155 HD
ENDBRANCH   6  15
ENDBRANCH   2  10
ENDBRANCH   1   3
BRANCH   1  17
ATOM     17  N   UNL     1      -4.225  -8.598   0.010  0.00  0.00    -0.299 N 
ATOM     18  C   UNL     1      -3.358  -9.283   0.781  0.00  0.00    +0.251 C 
ATOM     19  O   UNL     1      -2.818  -8.735   1.724  0.00  0.00    -0.270 OA
ATOM     20  H   UNL     1      -4.656  -9.034  -0.742  0.00  0.00    +0.150 HD
BRANCH  18  21
ATOM     21  C   UNL     1      -3.066 -10.689   0.485  0.00  0.00    +0.074 A 
ATOM     22  C   UNL     1      -2.221 -11.565   1.149  0.00  0.00    +0.021 A 
ATOM     23  C   UNL     1      -2.152 -12.836   0.632  0.00  0.00    +0.008 A 
ATOM     24  C   UNL     1      -2.893 -13.143  -0.462  0.00  0.00    +0.046 A 
ATOM     25  S   UNL     1      -3.712 -11.720  -0.818  0.00  0.00    -0.092 S 
ENDBRANCH  18  21
ENDBRANCH   1  17
BRANCH   1  26
ATOM     26  C   UNL     1      -5.106  -7.080   1.713  0.00  0.00    +0.065 C 
BRANCH  26  27
ATOM     27  C   UNL     1      -6.439  -7.782   1.758  0.00  0.00    -0.039 C 
ATOM     28  C   UNL     1      -6.676  -9.052   2.157  0.00  0.00    -0.001 A 
ATOM     29  C   UNL     1      -5.798 -10.120   2.650  0.00  0.00    +0.010 A 
ATOM     30  C   UNL     1      -6.339 -11.315   2.978  0.00  0.00    +0.001 A 
ATOM     31  C   UNL     1      -7.714 -11.559   2.860  0.00  0.00    +0.002 A 
ATOM     32  C   UNL     1      -8.584 -10.628   2.415  0.00  0.00    +0.026 A 
ATOM     33  C   UNL     1      -8.124  -9.335   2.042  0.00  0.00    +0.043 A 
ATOM     34  N   UNL     1      -8.758  -8.281   1.589  0.00  0.00    -0.380 N 
ATOM     35  C   UNL     1      -7.783  -7.207   1.371  0.00  0.00    +0.144 C 
ATOM     36  H   UNL     1      -9.713  -8.220   1.428  0.00  0.00    +0.160 HD
ENDBRANCH  26  27
ENDBRANCH   1  26
TORSDOF 7
