REMARK  Name = ZINC44681596
REMARK  15 active torsions:
REMARK  status: ('A' for Active; 'I' for Inactive)
REMARK    1  A    between atoms: C_1  and  C_2
REMARK    2  A    between atoms: C_2  and  O_40
REMARK    3  A    between atoms: C_5  and  C_27
REMARK    4  A    between atoms: C_9  and  C_25
REMARK    5  A    between atoms: C_9  and  C_26
REMARK    6  A    between atoms: C_11  and  N_13
REMARK    7  A    between atoms: C_14  and  C_16
REMARK    8  A    between atoms: C_19  and  N_22
REMARK    9  A    between atoms: N_22  and  C_23
REMARK   10  A    between atoms: N_22  and  C_24
REMARK   11  A    between atoms: C_27  and  C_28
REMARK   12  A    between atoms: C_28  and  C_29
REMARK   13  A    between atoms: N_31  and  C_32
REMARK   14  A    between atoms: C_32  and  C_33
REMARK   15  A    between atoms: C_33  and  N_34
REMARK                            x       y       z     vdW  Elec       q    Type
REMARK                         _______ _______ _______ _____ _____    ______ ____
ROOT
ATOM      1  C   UNL     1      -0.117   1.497   0.000  0.00  0.00    +0.041 C 
ATOM      2  C   UNL     1      -0.076  -0.032  -0.006  0.00  0.00    +0.064 C 
ATOM      3  C   UNL     1      -1.504  -0.570  -0.044  0.00  0.00    +0.035 C 
ATOM      4  C   UNL     1      -1.532  -2.103   0.065  0.00  0.00    +0.012 C 
ATOM      5  C   UNL     1      -0.834  -2.474   1.361  0.00  0.00    -0.007 C 
ATOM      6  C   UNL     1       0.649  -2.036   1.221  0.00  0.00    +0.005 C 
ATOM      7  C   UNL     1       0.676  -0.520   1.243  0.00  0.00    +0.039 C 
ATOM      8  C   UNL     1       1.336  -2.747   2.382  0.00  0.00    -0.030 C 
ATOM      9  C   UNL     1       0.509  -4.035   2.620  0.00  0.00    +0.029 C 
ATOM     10  C   UNL     1      -0.689  -3.976   1.634  0.00  0.00    +0.080 C 
ATOM     11  C   UNL     1       2.776  -3.103   2.009  0.00  0.00    +0.011 C 
ATOM     12  C   UNL     1       1.313  -1.865   3.632  0.00  0.00    +0.011 C 
ENDROOT
BRANCH  10  13
ATOM     13  N   UNL     1      -0.380  -4.699   0.398  0.00  0.00    -0.308 N 
ATOM     14  C   UNL     1      -0.697  -6.004   0.284  0.00  0.00    +0.244 C 
ATOM     15  O   UNL     1      -1.240  -6.581   1.207  0.00  0.00    -0.270 OA
ATOM     16  H   UNL     1       0.053  -4.239  -0.338  0.00  0.00    +0.149 HD
BRANCH  14  17
ATOM     17  C   UNL     1      -0.385  -6.733  -0.960  0.00  0.00    +0.037 A 
ATOM     18  C   UNL     1       0.244  -6.073  -2.020  0.00  0.00    +0.015 A 
ATOM     19  C   UNL     1       0.533  -6.756  -3.179  0.00  0.00    +0.024 A 
ATOM     20  C   UNL     1       0.200  -8.102  -3.297  0.00  0.00    +0.029 A 
ATOM     21  C   UNL     1      -0.427  -8.762  -2.244  0.00  0.00    +0.024 A 
ATOM     22  C   UNL     1      -0.714  -8.087  -1.080  0.00  0.00    +0.015 A 
BRANCH  20  23
ATOM     23  N   UNL     1       0.493  -8.789  -4.470  0.00  0.00    -0.336 N 
ATOM     24  C   UNL     1       1.250  -8.128  -5.536  0.00  0.00    +0.129 C 
ATOM     25  C   UNL     1       0.046 -10.174  -4.639  0.00  0.00    +0.129 C 
ENDBRANCH  20  23
ENDBRANCH  14  17
ENDBRANCH  10  13
BRANCH   2  26
ATOM     26  O   UNL     1       0.619  -0.476  -1.173  0.00  0.00    -0.389 OA
ATOM     27  H   UNL     1       0.213  -0.194  -2.004  0.00  0.00    +0.210 HD
ENDBRANCH   2  26
BRANCH   5  28
ATOM     28  C   UNL     1      -1.508  -1.780   2.546  0.00  0.00    +0.018 C 
BRANCH  28  29
ATOM     29  C   UNL     1      -3.006  -2.088   2.534  0.00  0.00    +0.096 C 
BRANCH  29  30
ATOM     30  C   UNL     1      -3.669  -1.404   3.701  0.00  0.00    +0.213 C 
ATOM     31  O   UNL     1      -3.008  -0.735   4.468  0.00  0.00    -0.276 OA
ATOM     32  N   UNL     1      -4.997  -1.534   3.894  0.00  0.00    -0.314 N 
ATOM     33  H   UNL     1      -5.525  -2.069   3.281  0.00  0.00    +0.149 HD
BRANCH  32  34
ATOM     34  C   UNL     1      -5.642  -0.869   5.029  0.00  0.00    +0.119 C 
BRANCH  34  35
ATOM     35  C   UNL     1      -7.140  -1.177   5.016  0.00  0.00    +0.103 C 
BRANCH  35  36
ATOM     36  N   UNL     1      -7.787  -0.510   6.154  0.00  0.00    -0.297 NA
ATOM     37  C   UNL     1      -7.330  -1.082   7.429  0.00  0.00    +0.112 C 
ATOM     38  C   UNL     1      -7.981  -0.320   8.587  0.00  0.00    +0.175 C 
ATOM     39  O   UNL     1      -9.403  -0.376   8.447  0.00  0.00    -0.377 OA
ATOM     40  C   UNL     1      -9.883   0.173   7.217  0.00  0.00    +0.175 C 
ATOM     41  C   UNL     1      -9.251  -0.584   6.046  0.00  0.00    +0.112 C 
ENDBRANCH  35  36
ENDBRANCH  34  35
ENDBRANCH  32  34
ENDBRANCH  29  30
ENDBRANCH  28  29
ENDBRANCH   5  28
TORSDOF 10
