REMARK  Name = ZINC04503646
REMARK  6 active torsions:
REMARK  status: ('A' for Active; 'I' for Inactive)
REMARK    1  A    between atoms: C_1  and  C_2
REMARK    2  A    between atoms: C_7  and  S_13
REMARK    3  A    between atoms: S_13  and  C_14
REMARK    4  A    between atoms: C_14  and  C_15
REMARK    5  A    between atoms: N_17  and  C_18
REMARK    6  A    between atoms: C_18  and  C_19
REMARK                            x       y       z     vdW  Elec       q    Type
REMARK                         _______ _______ _______ _____ _____    ______ ____
ROOT
ATOM      1  C   UNL     1       0.112  -6.898   2.988  0.00  0.00    +0.173 C 
ENDROOT
BRANCH   1   2
ATOM      2  C   UNL     1       0.133  -8.396   3.152  0.00  0.00    +0.224 C 
ATOM      3  O   UNL     1       0.138  -9.113   2.174  0.00  0.00    -0.275 OA
ATOM      4  N   UNL     1       0.146  -8.938   4.385  0.00  0.00    -0.311 N 
ATOM      5  H   UNL     1       0.143  -8.365   5.168  0.00  0.00    +0.149 HD
BRANCH   4   6
ATOM      6  C   UNL     1       0.167 -10.395   4.545  0.00  0.00    +0.139 C 
BRANCH   6   7
ATOM      7  C   UNL     1       0.179 -10.739   6.012  0.00  0.00    -0.027 A 
ATOM      8  C   UNL     1       1.383 -10.875   6.678  0.00  0.00    +0.009 A 
ATOM      9  C   UNL     1       1.399 -11.191   8.024  0.00  0.00    +0.050 A 
ATOM     10  C   UNL     1       0.208 -11.373   8.708  0.00  0.00    +0.166 A 
ATOM     11  C   UNL     1      -1.004 -11.236   8.037  0.00  0.00    +0.167 A 
ATOM     12  C   UNL     1      -1.013 -10.914   6.689  0.00  0.00    +0.054 A 
ATOM     13  O   UNL     1      -2.020 -11.461   8.920  0.00  0.00    -0.453 OA
ATOM     14  C   UNL     1      -1.415 -12.137  10.038  0.00  0.00    +0.466 C 
ATOM     15  O   UNL     1      -0.048 -11.684  10.012  0.00  0.00    -0.453 OA
ENDBRANCH   6   7
ENDBRANCH   4   6
ENDBRANCH   1   2
BRANCH   1  16
ATOM     16  S   UNL     1       0.097  -6.483   1.222  0.00  0.00    -0.076 S 
BRANCH  16  23
ATOM     17  C   UNL     1      -0.018   1.503   0.010  0.00  0.00    +0.045 C 
ATOM     18  C   UNL     1       0.002  -0.004   0.002  0.00  0.00    -0.034 A 
ATOM     19  C   UNL     1       0.006  -0.695  -1.218  0.00  0.00    +0.008 A 
ATOM     20  C   UNL     1       0.024  -2.059  -1.218  0.00  0.00    +0.047 A 
ATOM     21  C   UNL     1       0.039  -2.746   0.006  0.00  0.00    +0.144 A 
ATOM     22  N   UNL     1       0.058  -4.079   0.033  0.00  0.00    -0.204 NA
ATOM     23  C   UNL     1       0.073  -4.721   1.198  0.00  0.00    +0.195 A 
ATOM     24  N   UNL     1       0.069  -4.047   2.347  0.00  0.00    -0.167 NA
ATOM     25  C   UNL     1       0.050  -2.716   2.352  0.00  0.00    +0.356 A 
ATOM     26  O   UNL     1       0.047  -2.107   3.408  0.00  0.00    -0.244 OA
ATOM     27  N   UNL     1       0.035  -2.045   1.182  0.00  0.00    -0.252 N 
ATOM     28  C   UNL     1       0.022  -0.684   1.171  0.00  0.00    +0.101 A 
ENDBRANCH  16  23
ENDBRANCH   1  16
TORSDOF 5
