REMARK  Name = ZINC03522108
REMARK  6 active torsions:
REMARK  status: ('A' for Active; 'I' for Inactive)
REMARK    1  A    between atoms: C_1  and  C_2
REMARK    2  A    between atoms: C_2  and  C_4
REMARK    3  A    between atoms: C_2  and  S_10
REMARK    4  A    between atoms: S_10  and  C_11
REMARK    5  A    between atoms: N_25  and  C_26
REMARK    6  A    between atoms: C_26  and  C_27
REMARK                            x       y       z     vdW  Elec       q    Type
REMARK                         _______ _______ _______ _____ _____    ______ ____
ROOT
ATOM      1  C   UNL     1       3.805   3.050  -0.019  0.00  0.00    +0.174 A 
ATOM      2  N   UNL     1       2.490   3.148  -0.005  0.00  0.00    -0.216 NA
ATOM      3  C   UNL     1       1.728   2.061  -0.003  0.00  0.00    +0.117 A 
ATOM      4  C   UNL     1       2.272   0.767  -0.015  0.00  0.00    +0.076 A 
ATOM      5  C   UNL     1       1.308  -0.339  -0.008  0.00  0.00    -0.023 A 
ATOM      6  C   UNL     1       0.002  -0.004   0.002  0.00  0.00    -0.004 A 
ATOM      7  S   UNL     1      -0.022   1.770   0.012  0.00  0.00    -0.073 S 
ATOM      8  C   UNL     1      -1.180  -0.922  -0.008  0.00  0.00    +0.043 C 
ATOM      9  C   UNL     1      -0.994  -2.003   1.065  0.00  0.00    +0.005 C 
ATOM     10  C   UNL     1      -0.261  -3.183   0.436  0.00  0.00    +0.001 C 
ATOM     11  C   UNL     1       0.712  -2.685  -0.631  0.00  0.00    +0.005 C 
ATOM     12  C   UNL     1       1.776  -1.792  -0.006  0.00  0.00    +0.037 C 
ATOM     13  C   UNL     1       3.701   0.690  -0.031  0.00  0.00    +0.263 A 
ATOM     14  O   UNL     1       4.262  -0.392  -0.044  0.00  0.00    -0.267 OA
ATOM     15  N   UNL     1       4.417   1.830  -0.033  0.00  0.00    -0.283 N 
ENDROOT
BRANCH   1  16
ATOM     16  S   UNL     1       4.785   4.514  -0.020  0.00  0.00    -0.075 S 
BRANCH  16  18
ATOM     17  C   UNL     1       2.675   5.689  -1.298  0.00  0.00    +0.029 C 
ATOM     18  C   UNL     1       3.479   5.767   0.002  0.00  0.00    +0.137 C 
BRANCH  18  19
ATOM     19  C   UNL     1       4.098   7.136   0.128  0.00  0.00    +0.233 C 
ATOM     20  O   UNL     1       5.235   7.324  -0.248  0.00  0.00    -0.274 OA
ATOM     21  N   UNL     1       3.387   8.150   0.657  0.00  0.00    -0.239 N 
ATOM     22  C   UNL     1       3.940   9.374   0.770  0.00  0.00    +0.303 C 
ATOM     23  O   UNL     1       5.080   9.563   0.394  0.00  0.00    -0.253 OA
ATOM     24  N   UNL     1       3.229  10.389   1.300  0.00  0.00    -0.313 N 
ATOM     25  H   UNL     1       2.477   8.000   0.958  0.00  0.00    +0.159 HD
ATOM     26  H   UNL     1       2.319  10.239   1.600  0.00  0.00    +0.146 HD
ATOM     27  H   UNL     1       3.627  11.270   1.381  0.00  0.00    +0.146 HD
ENDBRANCH  18  19
ENDBRANCH  16  18
ENDBRANCH   1  16
BRANCH  15  28
ATOM     28  C   UNL     1       5.880   1.760  -0.050  0.00  0.00    +0.154 C 
BRANCH  28  29
ATOM     29  C   UNL     1       6.366   1.744  -1.476  0.00  0.00    -0.013 C 
ATOM     30  C   UNL     1       7.236   2.635  -1.882  0.00  0.00    +0.005 C 
ENDBRANCH  28  29
ENDBRANCH  15  28
TORSDOF 5
