REMARK  Name = ZINC01191159
REMARK  7 active torsions:
REMARK  status: ('A' for Active; 'I' for Inactive)
REMARK    1  A    between atoms: C_1  and  O_2
REMARK    2  A    between atoms: O_2  and  C_3
REMARK    3  A    between atoms: C_6  and  C_9
REMARK    4  A    between atoms: C_12  and  C_13
REMARK    5  A    between atoms: C_16  and  N_19
REMARK    6  A    between atoms: N_24  and  C_25
REMARK    7  A    between atoms: C_28  and  O_31
REMARK                            x       y       z     vdW  Elec       q    Type
REMARK                         _______ _______ _______ _____ _____    ______ ____
ROOT
ATOM      1  C   UNL     1       1.949   0.516  -0.540  0.00  0.00    +0.140 C 
ATOM      2  N   UNL     1       1.184  -0.359   0.058  0.00  0.00    -0.226 NA
ATOM      3  C   UNL     1       0.034   0.250   0.464  0.00  0.00    +0.129 C 
ATOM      4  C   UNL     1      -1.022  -0.331   1.129  0.00  0.00    +0.041 C 
ATOM      5  C   UNL     1       0.151   1.661   0.045  0.00  0.00    +0.275 C 
ATOM      6  O   UNL     1      -0.664   2.549   0.211  0.00  0.00    -0.268 OA
ATOM      7  N   UNL     1       1.352   1.756  -0.566  0.00  0.00    -0.219 N 
ENDROOT
BRANCH   1  11
ATOM      8  C   UNL     1       5.766  -0.354  -2.187  0.00  0.00    +0.120 A 
ATOM      9  C   UNL     1       5.089  -1.323  -1.457  0.00  0.00    +0.046 A 
ATOM     10  C   UNL     1       3.851  -1.045  -0.921  0.00  0.00    +0.015 A 
ATOM     11  C   UNL     1       3.276   0.214  -1.112  0.00  0.00    +0.016 A 
ATOM     12  C   UNL     1       3.958   1.185  -1.851  0.00  0.00    +0.015 A 
ATOM     13  C   UNL     1       5.198   0.900  -2.379  0.00  0.00    +0.046 A 
BRANCH   8  15
ATOM     14  C   UNL     1       7.626   0.410  -3.453  0.00  0.00    +0.277 C 
ATOM     15  O   UNL     1       6.986  -0.632  -2.714  0.00  0.00    -0.495 OA
ENDBRANCH   8  15
ENDBRANCH   1  11
BRANCH   4  16
ATOM     16  C   UNL     1      -2.102   0.505   1.664  0.00  0.00    -0.023 A 
ATOM     17  C   UNL     1      -1.815   1.763   2.208  0.00  0.00    +0.010 A 
ATOM     18  C   UNL     1      -2.837   2.545   2.703  0.00  0.00    +0.033 A 
ATOM     19  C   UNL     1      -4.142   2.084   2.674  0.00  0.00    +0.126 A 
ATOM     20  C   UNL     1      -4.434   0.839   2.144  0.00  0.00    +0.033 A 
ATOM     21  C   UNL     1      -3.425   0.047   1.640  0.00  0.00    +0.010 A 
BRANCH  19  22
ATOM     22  N   UNL     1      -5.232   2.928   3.214  0.00  0.00    +0.056 N 
ATOM     23  O   UNL     1      -6.381   2.526   3.191  0.00  0.00    -0.126 OA
ATOM     24  O   UNL     1      -4.979   4.024   3.681  0.00  0.00    -0.126 OA
ENDBRANCH  19  22
ENDBRANCH   4  16
BRANCH   7  25
ATOM     25  C   UNL     1       1.897   2.919  -1.131  0.00  0.00    +0.043 A 
ATOM     26  C   UNL     1       2.793   3.691  -0.403  0.00  0.00    +0.027 A 
ATOM     27  C   UNL     1       3.334   4.832  -0.961  0.00  0.00    +0.047 A 
ATOM     28  C   UNL     1       2.973   5.215  -2.245  0.00  0.00    +0.117 A 
ATOM     29  C   UNL     1       2.074   4.447  -2.971  0.00  0.00    +0.047 A 
ATOM     30  C   UNL     1       1.537   3.302  -2.416  0.00  0.00    +0.027 A 
BRANCH  28  31
ATOM     31  O   UNL     1       3.501   6.342  -2.792  0.00  0.00    -0.507 OA
ATOM     32  H   UNL     1       2.985   7.141  -2.621  0.00  0.00    +0.292 HD
ENDBRANCH  28  31
ENDBRANCH   7  25
TORSDOF 6
