REMARK  Name = ZINC13117082
REMARK  8 active torsions:
REMARK  status: ('A' for Active; 'I' for Inactive)
REMARK    1  A    between atoms: C_1  and  C_2
REMARK    2  A    between atoms: C_5  and  C_8
REMARK    3  A    between atoms: C_13  and  S_17
REMARK    4  A    between atoms: S_17  and  C_18
REMARK    5  A    between atoms: C_18  and  C_19
REMARK    6  A    between atoms: C_19  and  C_21
REMARK    7  A    between atoms: C_22  and  N_33
REMARK    8  A    between atoms: N_23  and  C_30
REMARK                            x       y       z     vdW  Elec       q    Type
REMARK                         _______ _______ _______ _____ _____    ______ ____
ROOT
ATOM      1  C   UNL     1      -1.249   1.771  -0.794  0.00  0.00    +0.155 C 
ENDROOT
BRANCH   1   2
ATOM      2  C   UNL     1       0.084   1.081  -0.931  0.00  0.00    +0.182 C 
ATOM      3  O   UNL     1       0.141  -0.132  -0.955  0.00  0.00    -0.291 OA
BRANCH   2   4
ATOM      4  C   UNL     1       1.266   1.845  -1.036  0.00  0.00    +0.120 A 
ATOM      5  C   UNL     1       2.530   1.229  -1.045  0.00  0.00    +0.116 A 
ATOM      6  N   UNL     1       3.645   2.010  -1.153  0.00  0.00    -0.278 N 
ATOM      7  C   UNL     1       3.555   3.346  -1.240  0.00  0.00    +0.331 A 
ATOM      8  O   UNL     1       4.577   3.997  -1.330  0.00  0.00    -0.246 OA
ATOM      9  N   UNL     1       2.377   3.990  -1.232  0.00  0.00    -0.274 N 
ATOM     10  H   UNL     1       2.359   4.988  -1.299  0.00  0.00    +0.173 HD
ATOM     11  C   UNL     1       1.216   3.309  -1.133  0.00  0.00    +0.266 A 
ATOM     12  O   UNL     1       0.150   3.897  -1.126  0.00  0.00    -0.267 OA
BRANCH   6  13
ATOM     13  C   UNL     1       4.966   1.377  -1.169  0.00  0.00    +0.094 C 
ATOM     14  C   UNL     1       5.955   1.833  -2.244  0.00  0.00    +0.027 C 
ATOM     15  C   UNL     1       5.294   0.457  -2.347  0.00  0.00    +0.027 C 
ENDBRANCH   6  13
BRANCH   5  16
ATOM     16  N   UNL     1       2.640  -0.124  -0.952  0.00  0.00    -0.344 N 
ATOM     17  H   UNL     1       1.843  -0.677  -0.965  0.00  0.00    +0.144 HD
ATOM     18  H   UNL     1       3.515  -0.535  -0.873  0.00  0.00    +0.144 HD
ENDBRANCH   5  16
ENDBRANCH   2   4
ENDBRANCH   1   2
BRANCH   1  19
ATOM     19  S   UNL     1      -2.562   0.530  -0.690  0.00  0.00    -0.097 S 
BRANCH  19  25
ATOM     20  C   UNL     1      -5.692  -0.367  -0.409  0.00  0.00    +0.001 A 
ATOM     21  C   UNL     1      -7.011  -0.648  -0.290  0.00  0.00    +0.056 A 
ATOM     22  S   UNL     1      -7.772   0.960  -0.193  0.00  0.00    -0.076 S 
ATOM     23  C   UNL     1      -6.318   1.968  -0.313  0.00  0.00    +0.113 A 
ATOM     24  C   UNL     1      -5.271   1.030  -0.432  0.00  0.00    +0.047 A 
ATOM     25  C   UNL     1      -3.967   1.583  -0.540  0.00  0.00    +0.109 A 
ATOM     26  N   UNL     1      -3.820   2.899  -0.533  0.00  0.00    -0.229 NA
ATOM     27  C   UNL     1      -4.848   3.720  -0.423  0.00  0.00    +0.223 A 
ATOM     28  N   UNL     1      -6.082   3.265  -0.315  0.00  0.00    -0.228 NA
BRANCH  20  33
ATOM     29  C   UNL     1      -1.817  -4.604  -0.838  0.00  0.00    +0.044 C 
ATOM     30  C   UNL     1      -2.831  -3.494  -0.726  0.00  0.00    -0.050 A 
ATOM     31  C   UNL     1      -2.736  -2.576   0.304  0.00  0.00    +0.004 A 
ATOM     32  C   UNL     1      -3.661  -1.558   0.412  0.00  0.00    +0.009 A 
ATOM     33  C   UNL     1      -4.694  -1.457  -0.520  0.00  0.00    -0.017 A 
ATOM     34  C   UNL     1      -4.787  -2.389  -1.552  0.00  0.00    +0.009 A 
ATOM     35  C   UNL     1      -3.853  -3.399  -1.653  0.00  0.00    +0.004 A 
ENDBRANCH  20  33
ENDBRANCH  19  25
ENDBRANCH   1  19
TORSDOF 7
