REMARK  Name = ZINC54300197
REMARK  4 active torsions:
REMARK  status: ('A' for Active; 'I' for Inactive)
REMARK    1  A    between atoms: C_1  and  C_2
REMARK    2  A    between atoms: C_17  and  C_19
REMARK    3  A    between atoms: C_19  and  C_20
REMARK    4  A    between atoms: C_25  and  N_26
REMARK                            x       y       z     vdW  Elec       q    Type
REMARK                         _______ _______ _______ _____ _____    ______ ____
ROOT
ATOM      1  C   UNL     1      -0.409   1.506   0.459  0.00  0.00    +0.035 C 
ATOM      2  C   UNL     1      -0.294  -0.015   0.335  0.00  0.00    +0.120 C 
ATOM      3  C   UNL     1      -1.637  -0.655   0.604  0.00  0.00    +0.041 A 
ATOM      4  C   UNL     1      -1.813  -1.690   1.454  0.00  0.00    -0.016 A 
ATOM      5  C   UNL     1      -3.224  -2.018   1.434  0.00  0.00    +0.003 A 
ATOM      6  C   UNL     1      -3.981  -2.987   2.100  0.00  0.00    +0.010 A 
ATOM      7  C   UNL     1      -5.329  -3.011   1.836  0.00  0.00    +0.001 A 
ATOM      8  C   UNL     1      -5.922  -2.124   0.954  0.00  0.00    +0.002 A 
ATOM      9  C   UNL     1      -5.197  -1.156   0.281  0.00  0.00    +0.026 A 
ATOM     10  C   UNL     1      -3.826  -1.107   0.529  0.00  0.00    +0.047 A 
ATOM     11  N   UNL     1      -2.837  -0.299   0.048  0.00  0.00    -0.356 N 
ATOM     12  H   UNL     1      -2.965   0.419  -0.592  0.00  0.00    +0.166 HD
ATOM     13  C   UNL     1      -0.714  -2.342   2.253  0.00  0.00    +0.056 C 
ATOM     14  C   UNL     1       0.640  -1.970   1.636  0.00  0.00    +0.113 C 
ATOM     15  N   UNL     1       0.652  -0.529   1.340  0.00  0.00    -0.293 N 
ATOM     16  C   UNL     1       1.506   0.300   1.973  0.00  0.00    +0.220 C 
ATOM     17  O   UNL     1       1.446   1.496   1.780  0.00  0.00    -0.275 OA
ENDROOT
BRANCH  16  18
ATOM     18  C   UNL     1       2.535  -0.260   2.921  0.00  0.00    +0.133 C 
BRANCH  18  19
ATOM     19  C   UNL     1       3.357   0.867   3.492  0.00  0.00    -0.008 A 
ATOM     20  C   UNL     1       4.593   1.165   2.948  0.00  0.00    +0.006 A 
ATOM     21  C   UNL     1       5.347   2.199   3.472  0.00  0.00    +0.000 A 
ATOM     22  C   UNL     1       4.865   2.935   4.538  0.00  0.00    +0.002 A 
ATOM     23  C   UNL     1       3.629   2.637   5.081  0.00  0.00    +0.033 A 
ATOM     24  C   UNL     1       2.873   1.606   4.555  0.00  0.00    +0.130 A 
BRANCH  24  25
ATOM     25  N   UNL     1       1.548   1.291   5.133  0.00  0.00    +0.057 N 
ATOM     26  O   UNL     1       1.172   1.861   6.130  0.00  0.00    -0.126 OA
ATOM     27  O   UNL     1       0.841   0.463   4.607  0.00  0.00    -0.126 OA
ENDBRANCH  24  25
ENDBRANCH  18  19
ENDBRANCH  16  18
TORSDOF 3
