REMARK  Name = ZINC59879851
REMARK  11 active torsions:
REMARK  status: ('A' for Active; 'I' for Inactive)
REMARK    1  A    between atoms: C_1  and  C_2
REMARK    2  A    between atoms: C_2  and  C_4
REMARK    3  A    between atoms: C_2  and  S_13
REMARK    4  A    between atoms: N_6  and  N_7
REMARK    5  A    between atoms: C_8  and  C_10
REMARK    6  A    between atoms: C_10  and  C_11
REMARK    7  A    between atoms: C_10  and  C_12
REMARK    8  A    between atoms: S_13  and  C_14
REMARK    9  A    between atoms: N_19  and  N_20
REMARK   10  A    between atoms: C_21  and  C_22
REMARK   11  A    between atoms: C_21  and  C_23
REMARK                            x       y       z     vdW  Elec       q    Type
REMARK                         _______ _______ _______ _____ _____    ______ ____
ROOT
ATOM      1  C   UNL     1       2.509  -0.029  -1.285  0.00  0.00    +0.211 A 
ATOM      2  N   UNL     1       3.509  -0.225  -2.152  0.00  0.00    -0.186 NA
ATOM      3  C   UNL     1       4.611   0.325  -1.688  0.00  0.00    +0.232 A 
ATOM      4  N   UNL     1       4.325   0.891  -0.496  0.00  0.00    -0.245 N 
ATOM      5  N   UNL     1       2.961   0.654  -0.260  0.00  0.00    -0.144 NA
ATOM      6  N   UNL     1       5.846   0.323  -2.312  0.00  0.00    -0.205 N 
ATOM      7  H   UNL     1       6.603   0.757  -1.889  0.00  0.00    +0.177 HD
ATOM      8  H   UNL     1       4.940   1.370   0.081  0.00  0.00    +0.192 HD
ENDROOT
BRANCH   6   9
ATOM      9  N   UNL     1       6.002  -0.306  -3.554  0.00  0.00    -0.189 NA
ATOM     10  C   UNL     1       7.144  -0.308  -4.131  0.00  0.00    +0.040 C 
ATOM     11  C   UNL     1       8.321   0.366  -3.475  0.00  0.00    +0.063 C 
BRANCH  10  12
ATOM     12  C   UNL     1       7.312  -0.984  -5.468  0.00  0.00    +0.011 C 
ATOM     13  C   UNL     1       8.356  -2.097  -5.349  0.00  0.00    +0.016 C 
ATOM     14  C   UNL     1       8.526  -2.783  -6.705  0.00  0.00    -0.010 C 
ATOM     15  C   UNL     1       7.189  -3.384  -7.144  0.00  0.00    +0.007 C 
ATOM     16  C   UNL     1       6.145  -2.271  -7.263  0.00  0.00    -0.010 C 
ATOM     17  C   UNL     1       5.975  -1.584  -5.907  0.00  0.00    +0.016 C 
ATOM     18  C   UNL     1       6.609  -1.246  -8.300  0.00  0.00    +0.007 C 
ATOM     19  C   UNL     1       7.946  -0.645  -7.861  0.00  0.00    -0.010 C 
ATOM     20  C   UNL     1       8.990  -1.758  -7.741  0.00  0.00    +0.007 C 
ATOM     21  C   UNL     1       7.776   0.042  -6.504  0.00  0.00    +0.016 C 
ENDBRANCH  10  12
ENDBRANCH   6   9
BRANCH   1  22
ATOM     22  S   UNL     1       0.851  -0.589  -1.490  0.00  0.00    -0.072 S 
BRANCH  22  24
ATOM     23  C   UNL     1      -0.019   1.526   0.010  0.00  0.00    +0.029 C 
ATOM     24  C   UNL     1       0.002  -0.004   0.002  0.00  0.00    +0.138 C 
BRANCH  24  25
ATOM     25  C   UNL     1      -1.412  -0.526   0.013  0.00  0.00    +0.242 C 
ATOM     26  O   UNL     1      -1.927  -0.901  -1.019  0.00  0.00    -0.273 OA
ATOM     27  N   UNL     1      -2.103  -0.575   1.169  0.00  0.00    -0.233 N 
ATOM     28  H   UNL     1      -1.691  -0.275   1.994  0.00  0.00    +0.173 HD
BRANCH  27  29
ATOM     29  N   UNL     1      -3.417  -1.060   1.179  0.00  0.00    -0.234 N 
ATOM     30  C   UNL     1      -4.109  -1.109   2.334  0.00  0.00    +0.232 C 
ATOM     31  O   UNL     1      -3.593  -0.734   3.366  0.00  0.00    -0.274 OA
ATOM     32  H   UNL     1      -3.830  -1.360   0.353  0.00  0.00    +0.173 HD
BRANCH  30  33
ATOM     33  C   UNL     1      -5.523  -1.631   2.345  0.00  0.00    +0.070 C 
ATOM     34  C   UNL     1      -6.074  -1.580   3.771  0.00  0.00    +0.017 C 
ATOM     35  C   UNL     1      -6.392  -0.766   1.431  0.00  0.00    +0.017 C 
ENDBRANCH  30  33
ENDBRANCH  27  29
ENDBRANCH  24  25
ENDBRANCH  22  24
ENDBRANCH   1  22
TORSDOF 7
