REMARK  Name = ZINC17051847
REMARK  9 active torsions:
REMARK  status: ('A' for Active; 'I' for Inactive)
REMARK    1  A    between atoms: C_1  and  C_2
REMARK    2  A    between atoms: C_5  and  C_8
REMARK    3  A    between atoms: C_10  and  C_30
REMARK    4  A    between atoms: C_11  and  C_13
REMARK    5  A    between atoms: C_13  and  C_14
REMARK    6  A    between atoms: C_14  and  N_15
REMARK    7  A    between atoms: C_16  and  C_18
REMARK    8  A    between atoms: N_20  and  C_21
REMARK    9  A    between atoms: C_24  and  N_27
REMARK                            x       y       z     vdW  Elec       q    Type
REMARK                         _______ _______ _______ _____ _____    ______ ____
ROOT
ATOM      1  N   UNL     1       3.599  -4.875  -0.374  0.00  0.00    -0.307 N 
ATOM      2  C   UNL     1       2.426  -4.221  -0.257  0.00  0.00    +0.299 C 
ATOM      3  O   UNL     1       1.383  -4.841  -0.250  0.00  0.00    -0.265 OA
ATOM      4  H   UNL     1       4.432  -4.379  -0.379  0.00  0.00    +0.149 HD
ENDROOT
BRANCH   2   5
ATOM      5  C   UNL     1       2.411  -2.732  -0.137  0.00  0.00    +0.303 C 
ATOM      6  O   UNL     1       3.454  -2.112  -0.144  0.00  0.00    -0.265 OA
ATOM      7  N   UNL     1       1.238  -2.078  -0.021  0.00  0.00    -0.278 N 
ATOM      8  H   UNL     1       0.410  -2.577   0.062  0.00  0.00    +0.155 HD
BRANCH   7   9
ATOM      9  C   UNL     1       1.215  -0.681  -0.019  0.00  0.00    +0.034 A 
ATOM     10  C   UNL     1       2.137   0.032  -0.775  0.00  0.00    +0.025 A 
ATOM     11  C   UNL     1       2.111   1.413  -0.772  0.00  0.00    +0.034 A 
ATOM     12  C   UNL     1       1.168   2.086  -0.017  0.00  0.00    +0.126 A 
ATOM     13  C   UNL     1       0.249   1.380   0.737  0.00  0.00    +0.034 A 
ATOM     14  C   UNL     1       0.269  -0.001   0.738  0.00  0.00    +0.025 A 
BRANCH  12  15
ATOM     15  N   UNL     1       1.143   3.566  -0.016  0.00  0.00    +0.056 N 
ATOM     16  O   UNL     1       1.952   4.189  -0.679  0.00  0.00    -0.126 OA
ATOM     17  O   UNL     1       0.314   4.161   0.649  0.00  0.00    -0.126 OA
ENDBRANCH  12  15
ENDBRANCH   7   9
ENDBRANCH   2   5
BRANCH   1  18
ATOM     18  C   UNL     1       3.614  -6.335  -0.491  0.00  0.00    +0.110 C 
BRANCH  18  19
ATOM     19  C   UNL     1       5.060  -6.822  -0.610  0.00  0.00    +0.063 C 
BRANCH  19  23
ATOM     20  C   UNL     1       5.126 -10.995  -0.535  0.00  0.00    +0.109 A 
ATOM     21  N   UNL     1       5.053 -10.413  -1.724  0.00  0.00    -0.244 NA
ATOM     22  C   UNL     1       5.028  -9.106  -1.842  0.00  0.00    +0.049 A 
ATOM     23  C   UNL     1       5.076  -8.324  -0.731  0.00  0.00    +0.014 A 
ATOM     24  S   UNL     1       5.170  -9.572   0.547  0.00  0.00    -0.072 S 
ATOM     25  C   UNL     1       4.945  -8.473  -3.207  0.00  0.00    +0.066 C 
BRANCH  20  30
ATOM     26  C   UNL     1       5.283 -16.594   0.786  0.00  0.00    +0.044 C 
ATOM     27  C   UNL     1       5.241 -15.128   0.440  0.00  0.00    -0.050 A 
ATOM     28  C   UNL     1       5.164 -14.734  -0.884  0.00  0.00    +0.004 A 
ATOM     29  C   UNL     1       5.126 -13.394  -1.208  0.00  0.00    +0.011 A 
ATOM     30  C   UNL     1       5.166 -12.434  -0.196  0.00  0.00    +0.007 A 
ATOM     31  C   UNL     1       5.249 -12.837   1.138  0.00  0.00    +0.011 A 
ATOM     32  C   UNL     1       5.281 -14.181   1.448  0.00  0.00    +0.004 A 
ENDBRANCH  20  30
ENDBRANCH  19  23
ENDBRANCH  18  19
ENDBRANCH   1  18
TORSDOF 7
