REMARK  Name = ZINC13176912
REMARK  9 active torsions:
REMARK  status: ('A' for Active; 'I' for Inactive)
REMARK    1  A    between atoms: C_1  and  C_2
REMARK    2  A    between atoms: C_2  and  C_4
REMARK    3  A    between atoms: C_2  and  S_16
REMARK    4  A    between atoms: N_6  and  C_7
REMARK    5  A    between atoms: C_12  and  N_13
REMARK    6  A    between atoms: S_16  and  C_17
REMARK    7  A    between atoms: N_27  and  C_28
REMARK    8  A    between atoms: C_28  and  C_29
REMARK    9  A    between atoms: C_29  and  C_30
REMARK                            x       y       z     vdW  Elec       q    Type
REMARK                         _______ _______ _______ _____ _____    ______ ____
ROOT
ATOM      1  C   UNL     1      -1.200   3.339  -0.021  0.00  0.00    +0.173 A 
ATOM      2  N   UNL     1      -1.197   2.029  -0.034  0.00  0.00    -0.223 NA
ATOM      3  C   UNL     1      -0.042   1.324  -0.071  0.00  0.00    +0.080 A 
ATOM      4  C   UNL     1      -0.037  -0.073  -0.090  0.00  0.00    +0.048 A 
ATOM      5  C   UNL     1       1.164  -0.748  -0.122  0.00  0.00    +0.043 A 
ATOM      6  C   UNL     1       2.370  -0.055  -0.136  0.00  0.00    +0.021 A 
ATOM      7  C   UNL     1       2.390   1.312  -0.118  0.00  0.00    +0.017 A 
ATOM      8  C   UNL     1       1.189   2.020  -0.085  0.00  0.00    +0.065 A 
ATOM      9  C   UNL     1       1.155   3.488  -0.065  0.00  0.00    +0.262 A 
ATOM     10  O   UNL     1       2.182   4.143  -0.075  0.00  0.00    -0.267 OA
ATOM     11  N   UNL     1      -0.058   4.087  -0.033  0.00  0.00    -0.287 N 
ATOM     12 CL   UNL     1       1.173  -2.484  -0.147  0.00  0.00    -0.083 Cl
ENDROOT
BRANCH   1  13
ATOM     13  S   UNL     1      -2.751   4.175   0.020  0.00  0.00    -0.075 S 
BRANCH  13  15
ATOM     14  C   UNL     1      -3.737   1.994  -1.298  0.00  0.00    +0.029 C 
ATOM     15  C   UNL     1      -3.873   2.755   0.023  0.00  0.00    +0.137 C 
BRANCH  15  16
ATOM     16  C   UNL     1      -5.293   3.237   0.180  0.00  0.00    +0.230 C 
ATOM     17  O   UNL     1      -5.593   4.360  -0.163  0.00  0.00    -0.274 OA
ATOM     18  N   UNL     1      -6.228   2.419   0.704  0.00  0.00    -0.283 N 
ATOM     19  H   UNL     1      -6.003   1.501   0.919  0.00  0.00    +0.155 HD
BRANCH  18  20
ATOM     20  C   UNL     1      -7.523   2.896   0.936  0.00  0.00    +0.064 A 
ATOM     21  C   UNL     1      -8.091   3.817   0.067  0.00  0.00    +0.025 A 
ATOM     22  C   UNL     1      -9.371   4.282   0.297  0.00  0.00    +0.002 A 
ATOM     23  C   UNL     1     -10.083   3.839   1.397  0.00  0.00    +0.002 A 
ATOM     24  C   UNL     1      -9.517   2.925   2.267  0.00  0.00    +0.034 A 
ATOM     25  C   UNL     1      -8.239   2.452   2.040  0.00  0.00    +0.147 A 
BRANCH  25  26
ATOM     26  N   UNL     1      -7.635   1.475   2.972  0.00  0.00    +0.058 N 
ATOM     27  O   UNL     1      -8.297   1.011   3.882  0.00  0.00    -0.126 OA
ATOM     28  O   UNL     1      -6.474   1.134   2.829  0.00  0.00    -0.126 OA
ENDBRANCH  25  26
ENDBRANCH  18  20
ENDBRANCH  15  16
ENDBRANCH  13  15
ENDBRANCH   1  13
BRANCH  11  29
ATOM     29  C   UNL     1      -0.146   5.549  -0.011  0.00  0.00    +0.138 C 
BRANCH  29  30
ATOM     30  C   UNL     1      -0.204   6.078  -1.446  0.00  0.00    +0.147 C 
BRANCH  30  31
ATOM     31  C   UNL     1      -0.295   7.582  -1.423  0.00  0.00    +0.358 C 
ATOM     32  O   UNL     1      -0.312   8.170  -0.368  0.00  0.00    -0.246 OA
ATOM     33  O   UNL     1      -0.358   8.268  -2.575  0.00  0.00    -0.246 OA
ENDBRANCH  30  31
ENDBRANCH  29  30
ENDBRANCH  11  29
TORSDOF 8
