REMARK  Name = ZINC36597655
REMARK  11 active torsions:
REMARK  status: ('A' for Active; 'I' for Inactive)
REMARK    1  A    between atoms: C_1  and  C_2
REMARK    2  A    between atoms: C_5  and  C_7
REMARK    3  A    between atoms: C_7  and  N_8
REMARK    4  A    between atoms: N_8  and  C_9
REMARK    5  A    between atoms: C_9  and  C_11
REMARK    6  A    between atoms: C_9  and  C_18
REMARK    7  A    between atoms: C_15  and  O_17
REMARK    8  A    between atoms: N_20  and  C_21
REMARK    9  A    between atoms: C_27  and  C_29
REMARK   10  A    between atoms: C_33  and  O_36
REMARK   11  A    between atoms: C_34  and  O_35
REMARK                            x       y       z     vdW  Elec       q    Type
REMARK                         _______ _______ _______ _____ _____    ______ ____
ROOT
ATOM      1  N   UNL     1       2.931  -4.759  -0.808  0.00  0.00    -0.275 N 
ATOM      2  C   UNL     1       1.772  -4.748  -0.121  0.00  0.00    +0.252 C 
ATOM      3  O   UNL     1       0.957  -5.635  -0.289  0.00  0.00    -0.270 OA
ENDROOT
BRANCH   2   4
ATOM      4  C   UNL     1       1.491  -3.660   0.835  0.00  0.00    +0.082 A 
ATOM      5  C   UNL     1       1.571  -2.326   0.425  0.00  0.00    +0.017 A 
ATOM      6  C   UNL     1       1.308  -1.313   1.320  0.00  0.00    +0.005 A 
ATOM      7  C   UNL     1       0.964  -1.608   2.629  0.00  0.00    +0.049 A 
ATOM      8  C   UNL     1       0.881  -2.924   3.051  0.00  0.00    +0.159 A 
ATOM      9  C   UNL     1       1.138  -3.958   2.156  0.00  0.00    +0.171 A 
BRANCH   9  10
ATOM     10  O   UNL     1       1.052  -5.250   2.564  0.00  0.00    -0.503 OA
ATOM     11  H   UNL     1       1.879  -5.608   2.914  0.00  0.00    +0.292 HD
ENDBRANCH   9  10
BRANCH   8  12
ATOM     12  O   UNL     1       0.542  -3.205   4.338  0.00  0.00    -0.503 OA
ATOM     13  H   UNL     1      -0.409  -3.306   4.481  0.00  0.00    +0.292 HD
ENDBRANCH   8  12
ENDBRANCH   2   4
BRANCH   1  14
ATOM     14  C   UNL     1       3.262  -5.898  -1.668  0.00  0.00    +0.183 C 
BRANCH  14  19
ATOM     15  C   UNL     1       4.787  -9.601   1.398  0.00  0.00    +0.086 C 
ATOM     16  C   UNL     1       3.921  -8.774   0.483  0.00  0.00    +0.102 A 
ATOM     17  C   UNL     1       2.659  -9.064   0.118  0.00  0.00    +0.045 A 
ATOM     18  C   UNL     1       2.232  -8.026  -0.741  0.00  0.00    +0.046 A 
ATOM     19  C   UNL     1       3.258  -7.163  -0.850  0.00  0.00    +0.122 A 
ATOM     20  O   UNL     1       4.276  -7.618  -0.102  0.00  0.00    -0.463 OA
ENDBRANCH  14  19
ENDBRANCH   1  14
BRANCH   1  21
ATOM     21  C   UNL     1       3.860  -3.632  -0.695  0.00  0.00    +0.193 C 
BRANCH  21  22
ATOM     22  C   UNL     1       4.081  -3.025  -2.056  0.00  0.00    -0.015 A 
ATOM     23  C   UNL     1       3.193  -3.288  -3.083  0.00  0.00    +0.006 A 
ATOM     24  C   UNL     1       3.393  -2.733  -4.333  0.00  0.00    +0.004 A 
ATOM     25  C   UNL     1       4.481  -1.912  -4.559  0.00  0.00    +0.045 A 
ATOM     26  C   UNL     1       5.374  -1.646  -3.531  0.00  0.00    +0.117 A 
ATOM     27  C   UNL     1       5.168  -2.200  -2.276  0.00  0.00    +0.051 A 
BRANCH  26  28
ATOM     28  O   UNL     1       6.445  -0.839  -3.751  0.00  0.00    -0.507 OA
ATOM     29  H   UNL     1       6.274   0.097  -3.580  0.00  0.00    +0.292 HD
ENDBRANCH  26  28
ENDBRANCH  21  22
BRANCH  21  30
ATOM     30  C   UNL     1       5.175  -4.119  -0.143  0.00  0.00    +0.238 C 
ATOM     31  O   UNL     1       5.502  -5.278  -0.287  0.00  0.00    -0.273 OA
ATOM     32  N   UNL     1       5.988  -3.266   0.512  0.00  0.00    -0.311 N 
ATOM     33  H   UNL     1       5.727  -2.340   0.628  0.00  0.00    +0.149 HD
BRANCH  32  34
ATOM     34  C   UNL     1       7.267  -3.740   1.049  0.00  0.00    +0.073 C 
ATOM     35  C   UNL     1       7.042  -4.356   2.431  0.00  0.00    +0.022 C 
ATOM     36  C   UNL     1       8.377  -4.851   2.992  0.00  0.00    +0.002 C 
ATOM     37  C   UNL     1       9.348  -3.674   3.110  0.00  0.00    +0.000 C 
ATOM     38  C   UNL     1       9.572  -3.057   1.728  0.00  0.00    +0.002 C 
ATOM     39  C   UNL     1       8.237  -2.563   1.167  0.00  0.00    +0.022 C 
ENDBRANCH  32  34
ENDBRANCH  21  30
ENDBRANCH   1  21
TORSDOF 10
