REMARK  Name = ZINC07224517
REMARK  10 active torsions:
REMARK  status: ('A' for Active; 'I' for Inactive)
REMARK    1  A    between atoms: C_1  and  C_2
REMARK    2  A    between atoms: C_2  and  C_4
REMARK    3  A    between atoms: C_2  and  O_13
REMARK    4  A    between atoms: N_6  and  C_7
REMARK    5  A    between atoms: C_7  and  C_8
REMARK    6  A    between atoms: O_13  and  C_14
REMARK    7  A    between atoms: C_14  and  C_16
REMARK    8  A    between atoms: C_19  and  N_25
REMARK    9  A    between atoms: C_20  and  N_22
REMARK   10  A    between atoms: N_25  and  C_26
REMARK                            x       y       z     vdW  Elec       q    Type
REMARK                         _______ _______ _______ _____ _____    ______ ____
ROOT
ATOM      1  C   UNL     1       0.457  -1.173  -3.552  0.00  0.00    +0.061 A 
ATOM      2  C   UNL     1       1.852  -1.135  -3.639  0.00  0.00    +0.017 A 
ATOM      3  C   UNL     1       2.479  -1.569  -4.772  0.00  0.00    +0.026 A 
ATOM      4  C   UNL     1       1.733  -2.052  -5.844  0.00  0.00    +0.062 A 
ATOM      5  C   UNL     1       0.343  -2.094  -5.767  0.00  0.00    +0.148 A 
ATOM      6  C   UNL     1      -0.294  -1.663  -4.626  0.00  0.00    +0.049 A 
ENDROOT
BRANCH   5   7
ATOM      7  N   UNL     1      -0.447  -2.607  -6.908  0.00  0.00    +0.058 N 
ATOM      8  O   UNL     1      -1.655  -2.572  -6.872  0.00  0.00    -0.126 OA
ATOM      9  O   UNL     1       0.116  -3.062  -7.877  0.00  0.00    -0.126 OA
ENDBRANCH   5   7
BRANCH   1  10
ATOM     10  C   UNL     1      -0.221  -0.704  -2.330  0.00  0.00    +0.340 C 
ATOM     11  O   UNL     1      -1.433  -0.743  -2.254  0.00  0.00    -0.245 OA
BRANCH  10  12
ATOM     12  O   UNL     1       0.504  -0.232  -1.297  0.00  0.00    -0.449 OA
BRANCH  12  14
ATOM     13  C   UNL     1      -0.552   1.692  -0.285  0.00  0.00    +0.062 C 
ATOM     14  C   UNL     1      -0.218   0.205  -0.144  0.00  0.00    +0.259 C 
BRANCH  14  15
ATOM     15  C   UNL     1       0.626  -0.005   1.087  0.00  0.00    +0.254 C 
ATOM     16  O   UNL     1       1.769  -0.397   0.979  0.00  0.00    -0.272 OA
ATOM     17  N   UNL     1       0.111   0.243   2.307  0.00  0.00    -0.305 N 
ATOM     18  H   UNL     1      -0.803   0.557   2.394  0.00  0.00    +0.149 HD
BRANCH  17  19
ATOM     19  C   UNL     1       0.931   0.039   3.504  0.00  0.00    +0.178 C 
BRANCH  19  20
ATOM     20  C   UNL     1       0.126   0.385   4.730  0.00  0.00    +0.122 A 
ATOM     21  C   UNL     1      -0.638  -0.468   5.436  0.00  0.00    +0.046 A 
ATOM     22  C   UNL     1      -1.208   0.274   6.496  0.00  0.00    +0.041 A 
ATOM     23  C   UNL     1      -0.757   1.536   6.375  0.00  0.00    +0.195 A 
ATOM     24  O   UNL     1       0.055   1.596   5.307  0.00  0.00    -0.466 OA
ENDBRANCH  19  20
ENDBRANCH  17  19
ENDBRANCH  14  15
ENDBRANCH  12  14
ENDBRANCH  10  12
ENDBRANCH   1  10
BRANCH   4  25
ATOM     25  N   UNL     1       2.378  -2.493  -6.995  0.00  0.00    -0.313 N 
ATOM     26  H   UNL     1       2.801  -3.366  -7.010  0.00  0.00    +0.152 HD
BRANCH  25  27
ATOM     27  C   UNL     1       2.416  -1.679  -8.129  0.00  0.00    +0.031 A 
ATOM     28  C   UNL     1       1.923  -0.381  -8.072  0.00  0.00    +0.023 A 
ATOM     29  C   UNL     1       1.963   0.421  -9.195  0.00  0.00    +0.002 A 
ATOM     30  C   UNL     1       2.492  -0.066 -10.377  0.00  0.00    +0.000 A 
ATOM     31  C   UNL     1       2.983  -1.357 -10.437  0.00  0.00    +0.002 A 
ATOM     32  C   UNL     1       2.952  -2.163  -9.316  0.00  0.00    +0.023 A 
ENDBRANCH  25  27
ENDBRANCH   4  25
TORSDOF 9
