REMARK  Name = ZINC09490733
REMARK  9 active torsions:
REMARK  status: ('A' for Active; 'I' for Inactive)
REMARK    1  A    between atoms: C_1  and  O_2
REMARK    2  A    between atoms: O_2  and  C_3
REMARK    3  A    between atoms: C_5  and  N_11
REMARK    4  A    between atoms: C_7  and  O_9
REMARK    5  A    between atoms: O_9  and  C_10
REMARK    6  A    between atoms: C_12  and  C_14
REMARK    7  A    between atoms: C_14  and  S_15
REMARK    8  A    between atoms: S_15  and  C_16
REMARK    9  A    between atoms: N_24  and  C_25
REMARK                            x       y       z     vdW  Elec       q    Type
REMARK                         _______ _______ _______ _____ _____    ______ ____
ROOT
ATOM      1  C   UNL     1      -5.402  -8.518   0.876  0.00  0.00    +0.179 A 
ATOM      2  N   UNL     1      -4.216  -9.067   0.890  0.00  0.00    -0.201 NA
ATOM      3  C   UNL     1      -4.045 -10.389   0.625  0.00  0.00    +0.189 A 
ATOM      4  N   UNL     1      -3.014 -11.199   0.564  0.00  0.00    -0.154 NA
ATOM      5  N   UNL     1      -3.461 -12.485   0.239  0.00  0.00    -0.282 N 
ATOM      6  C   UNL     1      -4.794 -12.480   0.093  0.00  0.00    +0.120 A 
ATOM      7  C   UNL     1      -5.236 -11.199   0.319  0.00  0.00    +0.103 A 
ATOM      8  C   UNL     1      -6.538 -10.524   0.319  0.00  0.00    +0.270 A 
ATOM      9  N   UNL     1      -6.556  -9.202   0.607  0.00  0.00    -0.255 N 
ATOM     10  O   UNL     1      -7.564 -11.131   0.076  0.00  0.00    -0.266 OA
ATOM     11  H   UNL     1      -2.892 -13.263   0.134  0.00  0.00    +0.188 HD
ENDROOT
BRANCH   9  12
ATOM     12  C   UNL     1      -7.780  -8.519   0.624  0.00  0.00    +0.052 A 
ATOM     13  C   UNL     1      -8.203  -7.822  -0.499  0.00  0.00    +0.028 A 
ATOM     14  C   UNL     1      -9.410  -7.151  -0.480  0.00  0.00    +0.022 A 
ATOM     15  C   UNL     1     -10.197  -7.172   0.658  0.00  0.00    +0.041 A 
ATOM     16  C   UNL     1      -9.778  -7.866   1.779  0.00  0.00    +0.022 A 
ATOM     17  C   UNL     1      -8.574  -8.544   1.763  0.00  0.00    +0.028 A 
ATOM     18 CL   UNL     1     -11.713  -6.326   0.679  0.00  0.00    -0.084 Cl
ENDBRANCH   9  12
BRANCH   1  19
ATOM     19  S   UNL     1      -5.523  -6.796   1.233  0.00  0.00    -0.078 S 
BRANCH  19  20
ATOM     20  C   UNL     1      -3.807  -6.287   1.524  0.00  0.00    +0.173 C 
BRANCH  20  22
ATOM     21  N   UNL     1      -2.588  -4.212   2.099  0.00  0.00    -0.285 N 
ATOM     22  C   UNL     1      -3.767  -4.815   1.845  0.00  0.00    +0.227 C 
ATOM     23  O   UNL     1      -4.795  -4.173   1.874  0.00  0.00    -0.275 OA
ATOM     24  H   UNL     1      -1.760  -4.706   1.998  0.00  0.00    +0.155 HD
BRANCH  21  27
ATOM     25  C   UNL     1      -3.604  -1.016   3.618  0.00  0.00    +0.125 A 
ATOM     26  C   UNL     1      -3.632  -2.341   3.212  0.00  0.00    +0.069 A 
ATOM     27  C   UNL     1      -2.561  -2.875   2.509  0.00  0.00    +0.040 A 
ATOM     28  C   UNL     1      -1.462  -2.080   2.212  0.00  0.00    +0.069 A 
ATOM     29  C   UNL     1      -1.435  -0.755   2.619  0.00  0.00    +0.125 A 
ATOM     30  C   UNL     1      -2.508  -0.222   3.317  0.00  0.00    +0.091 A 
BRANCH  25  32
ATOM     31  C   UNL     1      -4.559   0.880   4.687  0.00  0.00    +0.277 C 
ATOM     32  O   UNL     1      -4.653  -0.494   4.305  0.00  0.00    -0.495 OA
ENDBRANCH  25  32
BRANCH  29  33
ATOM     33  O   UNL     1      -0.358   0.022   2.329  0.00  0.00    -0.495 OA
ATOM     34  C   UNL     1      -0.398   1.378   2.779  0.00  0.00    +0.277 C 
ENDBRANCH  29  33
ENDBRANCH  21  27
ENDBRANCH  20  22
ENDBRANCH  19  20
ENDBRANCH   1  19
TORSDOF 7
