REMARK  Name = ZINC56921254
REMARK  7 active torsions:
REMARK  status: ('A' for Active; 'I' for Inactive)
REMARK    1  A    between atoms: C_1  and  C_2
REMARK    2  A    between atoms: N_4  and  S_5
REMARK    3  A    between atoms: S_5  and  C_8
REMARK    4  A    between atoms: C_11  and  N_14
REMARK    5  A    between atoms: C_15  and  C_17
REMARK    6  A    between atoms: C_17  and  C_20
REMARK    7  A    between atoms: C_22  and  C_25
REMARK                            x       y       z     vdW  Elec       q    Type
REMARK                         _______ _______ _______ _____ _____    ______ ____
ROOT
ATOM      1  N   UNL     1      -7.415  -3.243   0.361  0.00  0.00    -0.285 N 
ATOM      2  C   UNL     1      -7.636  -3.783  -0.854  0.00  0.00    +0.229 C 
ATOM      3  O   UNL     1      -6.843  -3.600  -1.753  0.00  0.00    -0.274 OA
ATOM      4  H   UNL     1      -8.010  -3.448   1.099  0.00  0.00    +0.155 HD
ENDROOT
BRANCH   1   8
ATOM      5  C   UNL     1      -4.173  -0.692   0.947  0.00  0.00    +0.113 A 
ATOM      6  C   UNL     1      -5.363  -0.460   1.613  0.00  0.00    +0.031 A 
ATOM      7  C   UNL     1      -6.439  -1.304   1.421  0.00  0.00    +0.025 A 
ATOM      8  C   UNL     1      -6.326  -2.385   0.557  0.00  0.00    +0.034 A 
ATOM      9  C   UNL     1      -5.130  -2.615  -0.110  0.00  0.00    +0.025 A 
ATOM     10  C   UNL     1      -4.059  -1.765   0.083  0.00  0.00    +0.031 A 
BRANCH   5  11
ATOM     11  S   UNL     1      -2.803   0.388   1.195  0.00  0.00    +0.102 S 
ATOM     12  O   UNL     1      -1.636  -0.357   0.871  0.00  0.00    -0.146 OA
ATOM     13  O   UNL     1      -2.990   0.996   2.465  0.00  0.00    -0.146 OA
BRANCH  11  17
ATOM     14  C   UNL     1      -2.140   3.630  -0.995  0.00  0.00    +0.116 C 
ATOM     15  C   UNL     1      -2.032   2.531   0.030  0.00  0.00    +0.262 C 
ATOM     16  O   UNL     1      -1.007   2.523   0.906  0.00  0.00    -0.270 OA
ATOM     17  N   UNL     1      -2.921   1.596   0.069  0.00  0.00    -0.091 NA
ENDBRANCH  11  17
ENDBRANCH   5  11
ENDBRANCH   1   8
BRANCH   2  18
ATOM     18  C   UNL     1      -8.869  -4.616  -1.094  0.00  0.00    +0.092 C 
ATOM     19  C   UNL     1      -9.954  -4.027  -1.998  0.00  0.00    +0.024 C 
ATOM     20  C   UNL     1      -9.079  -5.176  -2.502  0.00  0.00    +0.024 C 
BRANCH  18  21
ATOM     21  C   UNL     1      -9.316  -5.466   0.067  0.00  0.00    +0.099 A 
ATOM     22  C   UNL     1      -8.587  -5.700   1.242  0.00  0.00    +0.077 A 
ATOM     23  C   UNL     1      -9.329  -6.516   2.041  0.00  0.00    +0.168 A 
ATOM     24  O   UNL     1     -10.479  -6.786   1.395  0.00  0.00    -0.354 OA
ATOM     25  N   UNL     1     -10.449  -6.106   0.153  0.00  0.00    -0.082 NA
BRANCH  23  26
ATOM     26  C   UNL     1      -8.941  -7.015   3.376  0.00  0.00    +0.024 A 
ATOM     27  C   UNL     1      -7.713  -6.649   3.930  0.00  0.00    +0.015 A 
ATOM     28  C   UNL     1      -7.352  -7.117   5.177  0.00  0.00    +0.050 A 
ATOM     29  C   UNL     1      -8.206  -7.951   5.884  0.00  0.00    +0.166 A 
ATOM     30  C   UNL     1      -9.434  -8.320   5.336  0.00  0.00    +0.167 A 
ATOM     31  C   UNL     1      -9.803  -7.850   4.089  0.00  0.00    +0.061 A 
ATOM     32  O   UNL     1     -10.079  -9.136   6.220  0.00  0.00    -0.453 OA
ATOM     33  C   UNL     1      -9.063  -9.591   7.133  0.00  0.00    +0.466 C 
ATOM     34  O   UNL     1      -8.084  -8.536   7.111  0.00  0.00    -0.453 OA
ENDBRANCH  23  26
ENDBRANCH  18  21
ENDBRANCH   2  18
TORSDOF 6
