REMARK  Name = ZINC12340344
REMARK  10 active torsions:
REMARK  status: ('A' for Active; 'I' for Inactive)
REMARK    1  A    between atoms: C_1  and  C_2
REMARK    2  A    between atoms: C_5  and  S_8
REMARK    3  A    between atoms: S_8  and  N_11
REMARK    4  A    between atoms: N_11  and  C_12
REMARK    5  A    between atoms: C_14  and  C_20
REMARK    6  A    between atoms: C_16  and  C_17
REMARK    7  A    between atoms: C_23  and  C_26
REMARK    8  A    between atoms: C_26  and  C_27
REMARK    9  A    between atoms: C_26  and  C_28
REMARK   10  A    between atoms: C_26  and  C_29
REMARK                            x       y       z     vdW  Elec       q    Type
REMARK                         _______ _______ _______ _____ _____    ______ ____
ROOT
ATOM      1  C   UNL     1      -1.191   3.281   2.424  0.00  0.00    +0.068 A 
ATOM      2  C   UNL     1      -0.567   4.396   1.918  0.00  0.00    +0.041 A 
ATOM      3  C   UNL     1       0.196   5.174   2.767  0.00  0.00    +0.022 A 
ATOM      4  S   UNL     1       0.043   4.309   4.321  0.00  0.00    -0.082 S 
ATOM      5  C   UNL     1      -1.017   2.981   3.775  0.00  0.00    +0.097 A 
ENDROOT
BRANCH   3   6
ATOM      6  C   UNL     1       0.953   6.407   2.465  0.00  0.00    -0.011 A 
ATOM      7  C   UNL     1       0.953   6.930   1.170  0.00  0.00    +0.009 A 
ATOM      8  C   UNL     1       1.657   8.084   0.896  0.00  0.00    +0.005 A 
ATOM      9  C   UNL     1       2.371   8.718   1.897  0.00  0.00    -0.042 A 
ATOM     10  C   UNL     1       2.379   8.202   3.181  0.00  0.00    +0.005 A 
ATOM     11  C   UNL     1       1.675   7.051   3.471  0.00  0.00    +0.009 A 
BRANCH   9  12
ATOM     12  C   UNL     1       3.142   9.975   1.589  0.00  0.00    -0.013 C 
ATOM     13  C   UNL     1       4.626   9.750   1.889  0.00  0.00    +0.015 C 
ATOM     14  C   UNL     1       2.969  10.329   0.111  0.00  0.00    +0.015 C 
ATOM     15  C   UNL     1       2.615  11.122   2.454  0.00  0.00    +0.015 C 
ENDBRANCH   9  12
ENDBRANCH   3   6
BRANCH   5  16
ATOM     16  C   UNL     1      -1.544   1.901   4.521  0.00  0.00    +0.250 C 
ATOM     17  O   UNL     1      -2.259   1.077   3.978  0.00  0.00    -0.270 OA
ATOM     18  N   UNL     1      -1.256   1.783   5.832  0.00  0.00    -0.325 N 
ATOM     19  H   UNL     1      -0.687   2.439   6.264  0.00  0.00    +0.145 HD
ATOM     20  H   UNL     1      -1.618   1.042   6.343  0.00  0.00    +0.145 HD
ENDBRANCH   5  16
BRANCH   1  21
ATOM     21  N   UNL     1      -1.974   2.469   1.607  0.00  0.00    -0.215 N 
ATOM     22  H   UNL     1      -2.765   2.038   1.967  0.00  0.00    +0.174 HD
BRANCH  21  23
ATOM     23  S   UNL     1      -1.554   2.238   0.022  0.00  0.00    +0.072 S 
ATOM     24  O   UNL     1      -1.304   3.526  -0.523  0.00  0.00    -0.150 OA
ATOM     25  O   UNL     1      -2.519   1.353  -0.529  0.00  0.00    -0.150 OA
BRANCH  23  30
ATOM     26  C   UNL     1       3.711  -0.707  -0.038  0.00  0.00    +0.044 C 
ATOM     27  C   UNL     1       2.396   0.029  -0.022  0.00  0.00    -0.050 A 
ATOM     28  C   UNL     1       1.208  -0.679  -0.013  0.00  0.00    +0.005 A 
ATOM     29  C   UNL     1       0.002  -0.004   0.002  0.00  0.00    +0.029 A 
ATOM     30  C   UNL     1      -0.017   1.378   0.010  0.00  0.00    +0.109 A 
ATOM     31  C   UNL     1       1.171   2.086   0.002  0.00  0.00    +0.029 A 
ATOM     32  C   UNL     1       2.377   1.411  -0.015  0.00  0.00    +0.005 A 
ENDBRANCH  23  30
ENDBRANCH  21  23
ENDBRANCH   1  21
TORSDOF 6
