REMARK  Name = ZINC29854429
REMARK  11 active torsions:
REMARK  status: ('A' for Active; 'I' for Inactive)
REMARK    1  A    between atoms: C_1  and  C_2
REMARK    2  A    between atoms: C_2  and  C_4
REMARK    3  A    between atoms: C_2  and  N_18
REMARK    4  A    between atoms: N_6  and  C_7
REMARK    5  A    between atoms: C_8  and  C_15
REMARK    6  A    between atoms: N_18  and  C_19
REMARK    7  A    between atoms: N_18  and  C_20
REMARK    8  A    between atoms: C_20  and  C_21
REMARK    9  A    between atoms: C_21  and  C_22
REMARK   10  A    between atoms: C_22  and  O_23
REMARK   11  A    between atoms: O_23  and  C_24
REMARK                            x       y       z     vdW  Elec       q    Type
REMARK                         _______ _______ _______ _____ _____    ______ ____
ROOT
ATOM      1  C   UNL     1      -2.455   2.414  -3.464  0.00  0.00    +0.204 C 
ATOM      2  O   UNL     1      -3.242   3.324  -3.306  0.00  0.00    -0.277 OA
ATOM      3  N   UNL     1      -2.010   1.716  -2.400  0.00  0.00    -0.281 N 
ATOM      4  H   UNL     1      -1.296   0.892  -2.543  0.00  0.00    +0.155 HD
ENDROOT
BRANCH   3   5
ATOM      5  C   UNL     1      -2.451   2.038  -1.126  0.00  0.00    +0.084 A 
ATOM      6  C   UNL     1      -2.112   1.444   0.078  0.00  0.00    +0.068 A 
ATOM      7  C   UNL     1      -2.720   1.982   1.294  0.00  0.00    -0.023 A 
ATOM      8  C   UNL     1      -3.562   3.015   1.103  0.00  0.00    -0.004 A 
ATOM      9  S   UNL     1      -3.562   3.279  -0.653  0.00  0.00    -0.077 S 
ATOM     10  C   UNL     1      -4.142   3.516   2.398  0.00  0.00    +0.043 C 
ATOM     11  C   UNL     1      -3.219   2.932   3.490  0.00  0.00    +0.010 C 
ATOM     12  C   UNL     1      -2.660   1.677   2.791  0.00  0.00    +0.037 C 
BRANCH   6  13
ATOM     13  C   UNL     1      -1.173   0.319   0.132  0.00  0.00    +0.244 C 
ATOM     14  O   UNL     1      -1.586  -0.823   0.052  0.00  0.00    -0.270 OA
ATOM     15  N   UNL     1       0.148   0.550   0.264  0.00  0.00    -0.325 N 
ATOM     16  H   UNL     1       0.853  -0.293   0.304  0.00  0.00    +0.145 HD
ATOM     17  H   UNL     1       0.522   1.583   0.332  0.00  0.00    +0.145 HD
ENDBRANCH   6  13
ENDBRANCH   3   5
BRANCH   1  19
ATOM     18  C   UNL     1      -0.539   2.559  -5.031  0.00  0.00    -0.004 C 
ATOM     19  C   UNL     1      -1.975   2.065  -4.849  0.00  0.00    +0.016 C 
BRANCH  19  20
ATOM     20  N   UNL     1      -2.844   2.707  -5.844  0.00  0.00    +0.385 N 
ATOM     21  C   UNL     1      -2.662   2.102  -7.170  0.00  0.00    -0.095 C 
ATOM     22  H   UNL     1      -3.888   2.543  -5.538  0.00  0.00    -0.081 HD
BRANCH  20  23
ATOM     23  C   UNL     1      -2.610   4.156  -5.891  0.00  0.00    -0.075 C 
BRANCH  23  24
ATOM     24  C   UNL     1      -3.691   4.821  -6.746  0.00  0.00    +0.022 C 
BRANCH  24  25
ATOM     25  C   UNL     1      -3.447   6.330  -6.794  0.00  0.00    +0.227 C 
BRANCH  25  26
ATOM     26  O   UNL     1      -4.456   6.951  -7.593  0.00  0.00    -0.492 OA
BRANCH  26  27
ATOM     27  C   UNL     1      -4.385   8.300  -7.739  0.00  0.00    +0.120 A 
ATOM     28  C   UNL     1      -3.367   9.013  -7.121  0.00  0.00    +0.045 A 
ATOM     29  C   UNL     1      -3.293  10.383  -7.277  0.00  0.00    +0.004 A 
ATOM     30  C   UNL     1      -4.240  11.046  -8.036  0.00  0.00    +0.000 A 
ATOM     31  C   UNL     1      -5.258  10.339  -8.648  0.00  0.00    +0.004 A 
ATOM     32  C   UNL     1      -5.333   8.967  -8.501  0.00  0.00    +0.045 A 
ENDBRANCH  26  27
ENDBRANCH  25  26
ENDBRANCH  24  25
ENDBRANCH  23  24
ENDBRANCH  20  23
ENDBRANCH  19  20
ENDBRANCH   1  19
TORSDOF 9
