REMARK  Name = ZINC36575696
REMARK  8 active torsions:
REMARK  status: ('A' for Active; 'I' for Inactive)
REMARK    1  A    between atoms: C_1  and  C_2
REMARK    2  A    between atoms: C_2  and  C_4
REMARK    3  A    between atoms: C_2  and  N_8
REMARK    4  A    between atoms: C_4  and  O_6
REMARK    5  A    between atoms: O_6  and  C_7
REMARK    6  A    between atoms: C_20  and  C_22
REMARK    7  A    between atoms: C_27  and  O_28
REMARK    8  A    between atoms: O_28  and  C_29
REMARK                            x       y       z     vdW  Elec       q    Type
REMARK                         _______ _______ _______ _____ _____    ______ ____
ROOT
ATOM      1  N   UNL     1       2.381  -0.290   0.340  0.00  0.00    -0.286 N 
ATOM      2  C   UNL     1       1.877  -0.773   1.492  0.00  0.00    +0.304 C 
ATOM      3  O   UNL     1       0.679  -0.727   1.698  0.00  0.00    -0.253 OA
ATOM      4  N   UNL     1       2.699  -1.306   2.417  0.00  0.00    -0.273 N 
ATOM      5  C   UNL     1       2.159  -1.942   3.628  0.00  0.00    +0.116 C 
ATOM      6  C   UNL     1       2.515  -3.434   3.613  0.00  0.00    +0.074 C 
ATOM      7  C   UNL     1       3.961  -3.584   3.216  0.00  0.00    +0.040 A 
ATOM      8  C   UNL     1       4.696  -2.631   2.604  0.00  0.00    +0.062 A 
ATOM      9  N   UNL     1       5.923  -3.117   2.405  0.00  0.00    -0.348 N 
ATOM     10  C   UNL     1       5.981  -4.337   2.874  0.00  0.00    +0.171 A 
ATOM     11  N   UNL     1       4.774  -4.663   3.390  0.00  0.00    -0.349 N 
ATOM     12  H   UNL     1       4.533  -5.506   3.805  0.00  0.00    +0.166 HD
ATOM     13  C   UNL     1       4.162  -1.272   2.236  0.00  0.00    +0.160 C 
ATOM     14  H   UNL     1       3.341  -0.261   0.205  0.00  0.00    +0.151 HD
ATOM     15  H   UNL     1       6.654  -2.642   1.981  0.00  0.00    +0.167 HD
ENDROOT
BRANCH  13  16
ATOM     16  C   UNL     1       4.766  -0.227   3.139  0.00  0.00    +0.021 A 
ATOM     17  C   UNL     1       5.835  -0.551   3.952  0.00  0.00    +0.009 A 
ATOM     18  C   UNL     1       6.389   0.407   4.781  0.00  0.00    +0.001 A 
ATOM     19  C   UNL     1       5.876   1.691   4.798  0.00  0.00    +0.004 A 
ATOM     20  C   UNL     1       4.808   2.020   3.986  0.00  0.00    +0.046 A 
ATOM     21  C   UNL     1       4.253   1.062   3.149  0.00  0.00    +0.135 A 
BRANCH  21  22
ATOM     22  O   UNL     1       3.206   1.384   2.345  0.00  0.00    -0.405 OA
BRANCH  22  23
ATOM     23  C   UNL     1       2.730   2.730   2.409  0.00  0.00    +0.575 C 
ATOM     24  F   UNL     1       3.761   3.606   2.053  0.00  0.00    -0.133 F 
ATOM     25  F   UNL     1       1.657   2.888   1.524  0.00  0.00    -0.133 F 
ATOM     26  F   UNL     1       2.305   3.014   3.711  0.00  0.00    -0.133 F 
ENDBRANCH  22  23
ENDBRANCH  21  22
ENDBRANCH  13  16
BRANCH   1  28
ATOM     27  C   UNL     1       1.027  -0.990  -1.573  0.00  0.00    +0.040 C 
ATOM     28  C   UNL     1       1.480   0.190  -0.711  0.00  0.00    +0.180 C 
BRANCH  28  29
ATOM     29  C   UNL     1       2.201   1.194  -1.572  0.00  0.00    +0.327 C 
ATOM     30  O   UNL     1       3.351   1.479  -1.333  0.00  0.00    -0.249 OA
BRANCH  29  31
ATOM     31  O   UNL     1       1.567   1.772  -2.604  0.00  0.00    -0.467 OA
ATOM     32  C   UNL     1       2.312   2.714  -3.378  0.00  0.00    +0.280 C 
ENDBRANCH  29  31
ENDBRANCH  28  29
ENDBRANCH   1  28
TORSDOF 6
