REMARK  Name = ZINC63270012
REMARK  9 active torsions:
REMARK  status: ('A' for Active; 'I' for Inactive)
REMARK    1  A    between atoms: C_7  and  C_10
REMARK    2  A    between atoms: C_10  and  C_11
REMARK    3  A    between atoms: C_11  and  C_12
REMARK    4  A    between atoms: C_18  and  C_21
REMARK    5  A    between atoms: N_23  and  C_24
REMARK    6  A    between atoms: C_24  and  C_25
REMARK    7  A    between atoms: C_25  and  C_26
REMARK    8  A    between atoms: C_29  and  O_33
REMARK    9  A    between atoms: C_30  and  O_32
REMARK                            x       y       z     vdW  Elec       q    Type
REMARK                         _______ _______ _______ _____ _____    ______ ____
ROOT
ATOM      1  C   UNL     1      -0.484  -4.830  -1.460  0.00  0.00    +0.216 C 
ATOM      2  O   UNL     1      -0.925  -5.254  -0.412  0.00  0.00    -0.276 OA
ATOM      3  N   UNL     1      -0.837  -5.413  -2.623  0.00  0.00    -0.301 N 
ATOM      4  C   UNL     1      -0.307  -4.916  -3.900  0.00  0.00    +0.108 C 
ATOM      5  C   UNL     1      -1.481  -4.624  -4.840  0.00  0.00    +0.020 C 
ATOM      6  C   UNL     1      -2.352  -5.875  -4.966  0.00  0.00    +0.016 C 
ATOM      7  C   UNL     1      -2.915  -6.247  -3.593  0.00  0.00    +0.092 C 
ATOM      8  C   UNL     1      -1.753  -6.561  -2.638  0.00  0.00    +0.120 C 
ENDROOT
BRANCH   7   9
ATOM      9  C   UNL     1      -3.800  -7.460  -3.723  0.00  0.00    +0.218 C 
ATOM     10  O   UNL     1      -3.964  -7.977  -4.808  0.00  0.00    -0.275 OA
ATOM     11  N   UNL     1      -4.408  -7.971  -2.634  0.00  0.00    -0.315 N 
ATOM     12  H   UNL     1      -4.276  -7.558  -1.767  0.00  0.00    +0.149 HD
BRANCH  11  13
ATOM     13  C   UNL     1      -5.268  -9.150  -2.761  0.00  0.00    +0.109 C 
BRANCH  13  14
ATOM     14  C   UNL     1      -5.830  -9.522  -1.388  0.00  0.00    +0.054 C 
BRANCH  14  15
ATOM     15  C   UNL     1      -6.715 -10.735  -1.518  0.00  0.00    -0.042 A 
ATOM     16  C   UNL     1      -8.064 -10.580  -1.778  0.00  0.00    +0.007 A 
ATOM     17  C   UNL     1      -8.879 -11.690  -1.899  0.00  0.00    +0.049 A 
ATOM     18  C   UNL     1      -8.345 -12.961  -1.760  0.00  0.00    +0.158 A 
ATOM     19  C   UNL     1      -6.987 -13.116  -1.498  0.00  0.00    +0.158 A 
ATOM     20  C   UNL     1      -6.174 -12.000  -1.383  0.00  0.00    +0.052 A 
BRANCH  19  21
ATOM     21  O   UNL     1      -6.458 -14.362  -1.360  0.00  0.00    -0.503 OA
ATOM     22  H   UNL     1      -6.141 -14.748  -2.188  0.00  0.00    +0.292 HD
ENDBRANCH  19  21
BRANCH  18  23
ATOM     23  O   UNL     1      -9.146 -14.053  -1.877  0.00  0.00    -0.503 OA
ATOM     24  H   UNL     1      -9.214 -14.396  -2.779  0.00  0.00    +0.292 HD
ENDBRANCH  18  23
ENDBRANCH  14  15
ENDBRANCH  13  14
ENDBRANCH  11  13
ENDBRANCH   7   9
BRANCH   1  25
ATOM     25  C   UNL     1       0.457  -3.653  -1.462  0.00  0.00    +0.100 C 
BRANCH  25  26
ATOM     26  C   UNL     1       0.691  -3.186  -0.024  0.00  0.00    +0.042 C 
BRANCH  26  33
ATOM     27  C   UNL     1      -0.016   1.348   0.009  0.00  0.00    +0.001 A 
ATOM     28  C   UNL     1       1.166   2.101   0.002  0.00  0.00    +0.002 A 
ATOM     29  C   UNL     1       2.391   1.535  -0.013  0.00  0.00    +0.026 A 
ATOM     30  C   UNL     1       2.529   0.120  -0.022  0.00  0.00    +0.043 A 
ATOM     31  N   UNL     1       3.587  -0.654  -0.037  0.00  0.00    -0.380 N 
ATOM     32  C   UNL     1       3.143  -2.053  -0.041  0.00  0.00    +0.144 C 
ATOM     33  C   UNL     1       1.631  -2.008  -0.025  0.00  0.00    -0.041 C 
ATOM     34  C   UNL     1       1.295  -0.698  -0.014  0.00  0.00    -0.001 A 
ATOM     35  C   UNL     1       0.002  -0.004   0.002  0.00  0.00    +0.010 A 
ATOM     36  H   UNL     1       4.509  -0.353  -0.045  0.00  0.00    +0.160 HD
ENDBRANCH  26  33
ENDBRANCH  25  26
ENDBRANCH   1  25
TORSDOF 9
