REMARK  Name = ZINC00850925
REMARK  11 active torsions:
REMARK  status: ('A' for Active; 'I' for Inactive)
REMARK    1  A    between atoms: C_1  and  C_2
REMARK    2  A    between atoms: C_2  and  O_3
REMARK    3  A    between atoms: O_3  and  C_4
REMARK    4  A    between atoms: C_4  and  C_6
REMARK    5  A    between atoms: C_7  and  N_29
REMARK    6  A    between atoms: C_9  and  C_28
REMARK    7  A    between atoms: C_10  and  C_22
REMARK    8  A    between atoms: C_22  and  O_24
REMARK    9  A    between atoms: O_24  and  C_25
REMARK   10  A    between atoms: C_25  and  C_26
REMARK   11  A    between atoms: C_25  and  C_27
REMARK                            x       y       z     vdW  Elec       q    Type
REMARK                         _______ _______ _______ _____ _____    ______ ____
ROOT
ATOM      1  C   UNL     1      -5.307  -2.039  -0.362  0.00  0.00    +0.117 C 
ATOM      2  C   UNL     1      -5.404  -3.230  -1.012  0.00  0.00    +0.195 C 
ATOM      3  O   UNL     1      -4.318  -3.965  -1.302  0.00  0.00    -0.446 OA
ATOM      4  C   UNL     1      -3.107  -3.387  -1.307  0.00  0.00    +0.116 C 
ATOM      5  C   UNL     1      -2.868  -2.226  -0.682  0.00  0.00    +0.098 C 
ATOM      6  C   UNL     1      -3.964  -1.507   0.049  0.00  0.00    +0.145 C 
ATOM      7  C   UNL     1      -3.779  -1.638   1.540  0.00  0.00    -0.001 A 
ATOM      8  C   UNL     1      -3.751  -2.720   2.392  0.00  0.00    +0.022 A 
ATOM      9  C   UNL     1      -3.558  -2.526   3.749  0.00  0.00    +0.018 A 
ATOM     10  C   UNL     1      -3.393  -1.244   4.244  0.00  0.00    +0.017 A 
ATOM     11  C   UNL     1      -3.422  -0.159   3.393  0.00  0.00    +0.025 A 
ATOM     12  C   UNL     1      -3.616  -0.346   2.026  0.00  0.00    +0.038 A 
ATOM     13  N   UNL     1      -3.682   0.575   0.979  0.00  0.00    -0.284 N 
ATOM     14  C   UNL     1      -3.884  -0.021  -0.210  0.00  0.00    +0.237 C 
ATOM     15  O   UNL     1      -3.984   0.530  -1.286  0.00  0.00    -0.274 OA
ATOM     16 BR   UNL     1      -3.519  -4.008   4.923  0.00  0.00    -0.050 Br
ATOM     17  C   UNL     1      -1.978  -4.069  -2.035  0.00  0.00    +0.087 C 
ATOM     18  H   UNL     1      -3.594   1.534   1.095  0.00  0.00    +0.155 HD
ENDROOT
BRANCH   2  19
ATOM     19  N   UNL     1      -6.640  -3.691  -1.379  0.00  0.00    -0.329 N 
ATOM     20  H   UNL     1      -7.425  -3.138  -1.240  0.00  0.00    +0.145 HD
ATOM     21  H   UNL     1      -6.730  -4.571  -1.777  0.00  0.00    +0.145 HD
ENDBRANCH   2  19
BRANCH   1  22
ATOM     22  C   UNL     1      -6.467  -1.304  -0.075  0.00  0.00    +0.342 C 
ATOM     23  O   UNL     1      -6.893  -1.259   1.065  0.00  0.00    -0.245 OA
BRANCH  22  24
ATOM     24  O   UNL     1      -7.111  -0.646  -1.063  0.00  0.00    -0.462 OA
BRANCH  24  26
ATOM     25  C   UNL     1      -8.873   0.756  -1.940  0.00  0.00    +0.048 C 
ATOM     26  C   UNL     1      -8.286   0.082  -0.699  0.00  0.00    +0.229 C 
ENDBRANCH  24  26
ENDBRANCH  22  24
ENDBRANCH   1  22
BRANCH   5  27
ATOM     27  C   UNL     1      -1.566  -1.668  -0.716  0.00  0.00    +0.340 C 
ATOM     28  O   UNL     1      -0.846  -1.745   0.261  0.00  0.00    -0.245 OA
BRANCH  27  29
ATOM     29  O   UNL     1      -1.125  -1.052  -1.833  0.00  0.00    -0.459 OA
BRANCH  29  30
ATOM     30  C   UNL     1       0.198  -0.513  -1.797  0.00  0.00    +0.171 C 
ATOM     31  C   UNL     1       0.801  -0.547  -3.202  0.00  0.00    +0.052 C 
ATOM     32  C   UNL     1       0.145   0.933  -1.299  0.00  0.00    +0.052 C 
ENDBRANCH  29  30
ENDBRANCH  27  29
ENDBRANCH   5  27
TORSDOF 7
