REMARK  Name = ZINC16448788
REMARK  10 active torsions:
REMARK  status: ('A' for Active; 'I' for Inactive)
REMARK    1  A    between atoms: C_1  and  C_2
REMARK    2  A    between atoms: C_2  and  O_3
REMARK    3  A    between atoms: O_3  and  C_4
REMARK    4  A    between atoms: C_4  and  C_6
REMARK    5  A    between atoms: C_7  and  C_30
REMARK    6  A    between atoms: C_8  and  C_28
REMARK    7  A    between atoms: C_9  and  N_11
REMARK    8  A    between atoms: C_12  and  C_14
REMARK    9  A    between atoms: C_17  and  N_23
REMARK   10  A    between atoms: C_18  and  N_20
REMARK                            x       y       z     vdW  Elec       q    Type
REMARK                         _______ _______ _______ _____ _____    ______ ____
ROOT
ATOM      1  N   UNL     1      -3.680   3.153   0.114  0.00  0.00    -0.275 N 
ATOM      2  C   UNL     1      -2.528   3.848   0.027  0.00  0.00    +0.249 C 
ATOM      3  O   UNL     1      -2.554   5.061  -0.047  0.00  0.00    -0.270 OA
ATOM      4  H   UNL     1      -3.660   2.185   0.173  0.00  0.00    +0.156 HD
ENDROOT
BRANCH   1   8
ATOM      5  C   UNL     1      -6.961   5.510   0.098  0.00  0.00    +0.102 A 
ATOM      6  C   UNL     1      -7.248   4.163   0.191  0.00  0.00    -0.010 A 
ATOM      7  C   UNL     1      -6.178   3.284   0.203  0.00  0.00    +0.084 A 
ATOM      8  C   UNL     1      -4.890   3.820   0.120  0.00  0.00    +0.091 A 
ATOM      9  S   UNL     1      -5.180   5.527   0.034  0.00  0.00    -0.065 S 
ATOM     10  C   UNL     1      -8.669   3.668   0.276  0.00  0.00    +0.046 C 
BRANCH   5  11
ATOM     11  C   UNL     1      -7.887   6.641   0.065  0.00  0.00    +0.346 C 
ATOM     12  O   UNL     1      -9.087   6.447   0.124  0.00  0.00    -0.244 OA
BRANCH  11  13
ATOM     13  O   UNL     1      -7.411   7.900  -0.030  0.00  0.00    -0.461 OA
BRANCH  13  15
ATOM     14  C   UNL     1      -7.651  10.301  -0.167  0.00  0.00    +0.048 C 
ATOM     15  C   UNL     1      -8.373   8.957  -0.057  0.00  0.00    +0.229 C 
ENDBRANCH  13  15
ENDBRANCH  11  13
ENDBRANCH   5  11
BRANCH   7  16
ATOM     16  C   UNL     1      -6.385   1.870   0.297  0.00  0.00    +0.102 C 
ATOM     17  N   UNL     1      -6.549   0.748   0.372  0.00  0.00    -0.191 NA
ENDBRANCH   7  16
ENDBRANCH   1   8
BRANCH   2  18
ATOM     18  C   UNL     1      -1.237   3.135   0.021  0.00  0.00    +0.039 A 
ATOM     19  C   UNL     1      -1.206   1.740   0.100  0.00  0.00    +0.015 A 
ATOM     20  C   UNL     1       0.000   1.079   0.100  0.00  0.00    +0.026 A 
ATOM     21  C   UNL     1       1.190   1.797   0.010  0.00  0.00    +0.060 A 
ATOM     22  C   UNL     1       1.162   3.187  -0.075  0.00  0.00    +0.148 A 
ATOM     23  C   UNL     1      -0.041   3.854  -0.070  0.00  0.00    +0.047 A 
BRANCH  21  24
ATOM     24  N   UNL     1       2.407   1.126   0.004  0.00  0.00    -0.328 N 
ATOM     25  C   UNL     1       2.518   0.216   1.173  0.00  0.00    +0.105 C 
ATOM     26  C   UNL     1       3.617  -0.786   0.738  0.00  0.00    +0.020 C 
ATOM     27  C   UNL     1       3.330  -0.983  -0.768  0.00  0.00    +0.020 C 
ATOM     28  C   UNL     1       2.532   0.264  -1.191  0.00  0.00    +0.105 C 
ENDBRANCH  21  24
BRANCH  22  29
ATOM     29  N   UNL     1       2.429   3.946  -0.171  0.00  0.00    +0.058 N 
ATOM     30  O   UNL     1       2.412   5.164  -0.146  0.00  0.00    -0.126 OA
ATOM     31  O   UNL     1       3.488   3.354  -0.274  0.00  0.00    -0.126 OA
ENDBRANCH  22  29
ENDBRANCH   2  18
TORSDOF 8
