REMARK  Name = ZINC09327426
REMARK  6 active torsions:
REMARK  status: ('A' for Active; 'I' for Inactive)
REMARK    1  A    between atoms: C_1  and  N_2
REMARK    2  A    between atoms: N_7  and  C_10
REMARK    3  A    between atoms: N_11  and  C_24
REMARK    4  A    between atoms: N_14  and  N_15
REMARK    5  A    between atoms: C_16  and  C_17
REMARK    6  A    between atoms: C_24  and  C_25
REMARK                            x       y       z     vdW  Elec       q    Type
REMARK                         _______ _______ _______ _____ _____    ______ ____
ROOT
ATOM      1  C   UNL     1      -2.569   4.118   0.047  0.00  0.00    +0.155 C 
ATOM      2  N   UNL     1      -1.265   3.451   0.032  0.00  0.00    -0.280 N 
ATOM      3  C   UNL     1      -0.102   4.205   0.025  0.00  0.00    +0.170 A 
ATOM      4  C   UNL     1       1.123   3.547   0.010  0.00  0.00    +0.153 A 
ATOM      5  C   UNL     1       1.147   2.141   0.003  0.00  0.00    +0.282 A 
ATOM      6  O   UNL     1       2.209   1.543  -0.011  0.00  0.00    -0.265 OA
ATOM      7  N   UNL     1      -0.018   1.461   0.010  0.00  0.00    -0.262 N 
ATOM      8  C   UNL     1      -1.197   2.107   0.019  0.00  0.00    +0.333 A 
ATOM      9  O   UNL     1      -2.227   1.461   0.021  0.00  0.00    -0.246 OA
ATOM     10  C   UNL     1       0.002  -0.004   0.002  0.00  0.00    +0.157 C 
ATOM     11  N   UNL     1       2.098   4.535   0.006  0.00  0.00    -0.301 N 
ATOM     12  C   UNL     1       1.445   5.729   0.018  0.00  0.00    +0.218 A 
ATOM     13  N   UNL     1       0.145   5.516   0.029  0.00  0.00    -0.195 NA
ATOM     14  N   UNL     1       2.049   6.965   0.018  0.00  0.00    -0.206 N 
ATOM     15  H   UNL     1       3.017   7.033   0.009  0.00  0.00    +0.177 HD
ENDROOT
BRANCH  14  16
ATOM     16  N   UNL     1       1.266   8.127   0.031  0.00  0.00    -0.188 NA
ATOM     17  C   UNL     1       1.836   9.294   0.032  0.00  0.00    +0.139 C 
BRANCH  17  18
ATOM     18  C   UNL     1       1.012  10.516   0.045  0.00  0.00    +0.013 A 
ATOM     19  C   UNL     1       1.621  11.773   0.051  0.00  0.00    +0.011 A 
ATOM     20  C   UNL     1       0.845  12.913   0.060  0.00  0.00    +0.001 A 
ATOM     21  C   UNL     1      -0.536  12.814   0.072  0.00  0.00    +0.001 A 
ATOM     22  C   UNL     1      -1.147  11.573   0.072  0.00  0.00    +0.020 A 
ATOM     23  C   UNL     1      -0.383  10.423   0.058  0.00  0.00    +0.050 A 
ATOM     24 CL   UNL     1      -1.151   8.867   0.058  0.00  0.00    -0.083 Cl
ENDBRANCH  17  18
ENDBRANCH  14  16
BRANCH  11  25
ATOM     25  C   UNL     1       3.549   4.332  -0.009  0.00  0.00    +0.160 C 
BRANCH  25  26
ATOM     26  C   UNL     1       4.033   4.269  -1.435  0.00  0.00    -0.028 A 
ATOM     27  C   UNL     1       4.094   3.054  -2.091  0.00  0.00    +0.005 A 
ATOM     28  C   UNL     1       4.534   2.998  -3.400  0.00  0.00    +0.000 A 
ATOM     29  C   UNL     1       4.922   4.154  -4.050  0.00  0.00    +0.000 A 
ATOM     30  C   UNL     1       4.865   5.369  -3.392  0.00  0.00    +0.000 A 
ATOM     31  C   UNL     1       4.421   5.426  -2.084  0.00  0.00    +0.005 A 
ENDBRANCH  25  26
ENDBRANCH  11  25
TORSDOF 4
