REMARK  Name = ZINC09819283
REMARK  6 active torsions:
REMARK  status: ('A' for Active; 'I' for Inactive)
REMARK    1  A    between atoms: C_6  and  C_7
REMARK    2  A    between atoms: C_8  and  C_9
REMARK    3  A    between atoms: C_9  and  O_11
REMARK    4  A    between atoms: O_11  and  C_12
REMARK    5  A    between atoms: C_12  and  C_13
REMARK    6  A    between atoms: N_15  and  C_16
REMARK                            x       y       z     vdW  Elec       q    Type
REMARK                         _______ _______ _______ _____ _____    ______ ____
ROOT
ATOM      1  C   UNL     1      -8.434  -0.959   0.037  0.00  0.00    +0.328 C 
ENDROOT
BRANCH   1   2
ATOM      2  C   UNL     1      -9.638  -0.053   0.059  0.00  0.00    +0.255 C 
ATOM      3  O   UNL     1      -9.491   1.151   0.074  0.00  0.00    -0.272 OA
ATOM      4  N   UNL     1     -10.879  -0.580   0.060  0.00  0.00    -0.283 N 
ATOM      5  H   UNL     1     -10.998  -1.540  -0.020  0.00  0.00    +0.155 HD
BRANCH   4   6
ATOM      6  C   UNL     1     -11.996   0.257   0.178  0.00  0.00    +0.037 A 
ATOM      7  C   UNL     1     -11.984   1.517  -0.406  0.00  0.00    +0.027 A 
ATOM      8  C   UNL     1     -13.085   2.344  -0.291  0.00  0.00    +0.051 A 
ATOM      9  C   UNL     1     -14.204   1.918   0.406  0.00  0.00    +0.173 A 
ATOM     10  C   UNL     1     -14.219   0.655   0.993  0.00  0.00    +0.174 A 
ATOM     11  C   UNL     1     -13.117  -0.175   0.873  0.00  0.00    +0.073 A 
ATOM     12  O   UNL     1     -15.422   0.476   1.613  0.00  0.00    -0.395 OA
ATOM     13  C   UNL     1     -16.295   1.476   1.056  0.00  0.00    +0.589 C 
ATOM     14  O   UNL     1     -15.398   2.531   0.660  0.00  0.00    -0.395 OA
ATOM     15  F   UNL     1     -16.977   0.969  -0.055  0.00  0.00    -0.125 F 
ATOM     16  F   UNL     1     -17.200   1.932   2.020  0.00  0.00    -0.125 F 
ENDBRANCH   4   6
ENDBRANCH   1   2
BRANCH   1  17
ATOM     17  O   UNL     1      -7.244  -0.169   0.040  0.00  0.00    -0.452 OA
BRANCH  17  18
ATOM     18  C   UNL     1      -6.069  -0.832   0.022  0.00  0.00    +0.332 C 
ATOM     19  O   UNL     1      -6.057  -2.048   0.005  0.00  0.00    -0.246 OA
BRANCH  18  21
ATOM     20  C   UNL     1      -3.671  -0.774   0.005  0.00  0.00    +0.015 C 
ATOM     21  C   UNL     1      -4.848  -0.111   0.023  0.00  0.00    +0.092 C 
BRANCH  20  27
ATOM     22  C   UNL     1      -2.417   1.372   0.026  0.00  0.00    +0.012 A 
ATOM     23  C   UNL     1      -1.229   2.069   0.023  0.00  0.00    +0.050 A 
ATOM     24  C   UNL     1      -0.017   1.388   0.007  0.00  0.00    +0.162 A 
ATOM     25  C   UNL     1       0.002  -0.005  -0.011  0.00  0.00    +0.163 A 
ATOM     26  C   UNL     1      -1.185  -0.712  -0.013  0.00  0.00    +0.057 A 
ATOM     27  C   UNL     1      -2.406  -0.027   0.006  0.00  0.00    -0.021 A 
ATOM     28  O   UNL     1       1.181  -0.686  -0.026  0.00  0.00    -0.485 OA
ATOM     29  C   UNL     1       2.347   0.056  -0.402  0.00  0.00    +0.270 C 
ATOM     30  C   UNL     1       2.334   1.388   0.360  0.00  0.00    +0.270 C 
ATOM     31  O   UNL     1       1.143   2.098   0.003  0.00  0.00    -0.485 OA
ENDBRANCH  20  27
ENDBRANCH  18  21
ENDBRANCH  17  18
ENDBRANCH   1  17
TORSDOF 6
