REMARK  Name = ZINC03841111
REMARK  12 active torsions:
REMARK  status: ('A' for Active; 'I' for Inactive)
REMARK    1  A    between atoms: C_1  and  C_2
REMARK    2  A    between atoms: C_2  and  N_3
REMARK    3  A    between atoms: N_3  and  C_4
REMARK    4  A    between atoms: C_4  and  C_5
REMARK    5  A    between atoms: C_6  and  C_8
REMARK    6  A    between atoms: C_8  and  C_9
REMARK    7  A    between atoms: C_17  and  C_19
REMARK    8  A    between atoms: C_27  and  C_37
REMARK    9  A    between atoms: C_30  and  O_36
REMARK   10  A    between atoms: C_32  and  C_33
REMARK   11  A    between atoms: C_32  and  C_34
REMARK   12  A    between atoms: C_34  and  O_35
REMARK                            x       y       z     vdW  Elec       q    Type
REMARK                         _______ _______ _______ _____ _____    ______ ____
ROOT
ATOM      1  C   UNL     1       4.337   1.706   0.007  0.00  0.00    +0.054 C 
ATOM      2  C   UNL     1       2.934   2.280   0.139  0.00  0.00    +0.058 A 
ATOM      3  C   UNL     1       2.750   3.624   0.198  0.00  0.00    +0.015 A 
ATOM      4  S   UNL     1       0.990   3.770   0.347  0.00  0.00    -0.057 S 
ATOM      5  C   UNL     1       0.632   2.070   0.320  0.00  0.00    +0.165 A 
ATOM      6  N   UNL     1       1.831   1.537   0.209  0.00  0.00    -0.229 NA
ATOM      7  N   UNL     1      -0.601   1.435   0.400  0.00  0.00    -0.260 N 
ATOM      8  C   UNL     1      -1.728   2.165   0.511  0.00  0.00    +0.256 C 
ATOM      9  O   UNL     1      -1.665   3.380   0.546  0.00  0.00    -0.269 OA
ATOM     10  C   UNL     1       3.790   4.687   0.146  0.00  0.00    +0.049 C 
ATOM     11  C   UNL     1       5.168   4.051   0.362  0.00  0.00    +0.011 C 
ATOM     12  C   UNL     1       5.289   2.796  -0.504  0.00  0.00    -0.019 C 
ATOM     13  C   UNL     1       6.712   2.232  -0.433  0.00  0.00    +0.010 C 
ATOM     14  C   UNL     1       7.731   3.272  -0.850  0.00  0.00    +0.032 C 
ATOM     15  C   UNL     1       7.626   4.484   0.080  0.00  0.00    +0.123 C 
ATOM     16  C   UNL     1       6.226   5.081  -0.047  0.00  0.00    +0.021 C 
ATOM     17  C   UNL     1       6.115   6.309   0.859  0.00  0.00    +0.016 C 
ATOM     18  C   UNL     1       4.945   3.138  -1.955  0.00  0.00    +0.012 C 
ATOM     19  H   UNL     1      -0.651   0.467   0.372  0.00  0.00    +0.157 HD
ENDROOT
BRANCH   8  20
ATOM     20  C   UNL     1      -3.030   1.497   0.589  0.00  0.00    +0.074 A 
ATOM     21  C   UNL     1      -4.293   2.055   0.705  0.00  0.00    +0.021 A 
ATOM     22  C   UNL     1      -5.357   1.188   0.759  0.00  0.00    +0.008 A 
ATOM     23  C   UNL     1      -5.126  -0.150   0.697  0.00  0.00    +0.046 A 
ATOM     24  S   UNL     1      -3.401  -0.248   0.553  0.00  0.00    -0.092 S 
ENDBRANCH   8  20
BRANCH  15  25
ATOM     25  O   UNL     1       8.599   5.461  -0.294  0.00  0.00    -0.391 OA
ATOM     26  H   UNL     1       9.513   5.149  -0.236  0.00  0.00    +0.210 HD
ENDBRANCH  15  25
BRANCH   1  27
ATOM     27  C   UNL     1       4.319   0.539  -0.983  0.00  0.00    +0.106 C 
BRANCH  27  29
ATOM     28  N   UNL     1       3.389  -1.750  -1.092  0.00  0.00    -0.302 N 
ATOM     29  C   UNL     1       3.538  -0.607  -0.394  0.00  0.00    +0.216 C 
ATOM     30  O   UNL     1       3.044  -0.501   0.709  0.00  0.00    -0.276 OA
BRANCH  28  32
ATOM     31  C   UNL     1       5.402  -2.442  -2.296  0.00  0.00    +0.024 C 
ATOM     32  C   UNL     1       3.986  -1.878  -2.424  0.00  0.00    +0.104 C 
ENDBRANCH  28  32
BRANCH  28  33
ATOM     33  C   UNL     1       2.630  -2.864  -0.519  0.00  0.00    +0.104 C 
ATOM     34  C   UNL     1       1.157  -2.733  -0.911  0.00  0.00    +0.024 C 
ENDBRANCH  28  33
ENDBRANCH  27  29
ENDBRANCH   1  27
BRANCH  16  35
ATOM     35  C   UNL     1       5.986   5.504  -1.498  0.00  0.00    +0.165 C 
BRANCH  35  36
ATOM     36  O   UNL     1       6.866   6.579  -1.832  0.00  0.00    -0.394 OA
ATOM     37  H   UNL     1       6.769   6.899  -2.740  0.00  0.00    +0.209 HD
ENDBRANCH  35  36
ENDBRANCH  16  35
TORSDOF 8
