REMARK  Name = ZINC38936448
REMARK  7 active torsions:
REMARK  status: ('A' for Active; 'I' for Inactive)
REMARK    1  A    between atoms: C_1  and  C_2
REMARK    2  A    between atoms: C_2  and  C_3
REMARK    3  A    between atoms: C_3  and  O_4
REMARK    4  A    between atoms: O_4  and  C_5
REMARK    5  A    between atoms: C_8  and  C_11
REMARK    6  A    between atoms: N_12  and  N_13
REMARK    7  A    between atoms: C_14  and  C_20
REMARK                            x       y       z     vdW  Elec       q    Type
REMARK                         _______ _______ _______ _____ _____    ______ ____
ROOT
ATOM      1  N   UNL     1       4.122  -6.401   6.582  0.00  0.00    -0.172 N 
ATOM      2  C   UNL     1       4.390  -7.843   6.738  0.00  0.00    +0.264 C 
ATOM      3  N   UNL     1       5.197  -7.920   7.965  0.00  0.00    -0.189 NA
ATOM      4  N   UNL     1       5.347  -6.775   8.399  0.00  0.00    -0.219 N 
ATOM      5  C   UNL     1       4.746  -5.825   7.633  0.00  0.00    +0.174 C 
ATOM      6  S   UNL     1       4.774  -4.144   7.956  0.00  0.00    -0.015 S 
ATOM      7  H   UNL     1       5.847  -6.572   9.205  0.00  0.00    +0.176 HD
ENDROOT
BRANCH   2   8
ATOM      8  C   UNL     1       5.165  -8.367   5.557  0.00  0.00    +0.001 A 
ATOM      9  C   UNL     1       5.023  -7.794   4.303  0.00  0.00    +0.025 A 
ATOM     10  C   UNL     1       5.750  -8.302   3.244  0.00  0.00    +0.083 A 
ATOM     11  N   UNL     1       6.571  -9.320   3.416  0.00  0.00    -0.367 N 
ATOM     12  C   UNL     1       6.731  -9.890   4.594  0.00  0.00    +0.083 A 
ATOM     13  C   UNL     1       6.042  -9.432   5.700  0.00  0.00    +0.025 A 
ATOM     14  H   UNL     1       7.070  -9.658   2.655  0.00  0.00    +0.165 HD
ENDBRANCH   2   8
BRANCH   1  16
ATOM     15  C   UNL     1       3.156  -4.493   5.635  0.00  0.00    +0.138 C 
ATOM     16  N   UNL     1       3.390  -5.769   5.569  0.00  0.00    -0.183 NA
BRANCH  15  20
ATOM     17  C   UNL     1       1.206  -2.523   2.420  0.00  0.00    +0.121 A 
ATOM     18  C   UNL     1       1.593  -1.801   3.542  0.00  0.00    +0.046 A 
ATOM     19  C   UNL     1       2.226  -2.437   4.588  0.00  0.00    +0.013 A 
ATOM     20  C   UNL     1       2.478  -3.809   4.519  0.00  0.00    -0.005 A 
ATOM     21  C   UNL     1       2.087  -4.532   3.388  0.00  0.00    +0.013 A 
ATOM     22  C   UNL     1       1.450  -3.889   2.349  0.00  0.00    +0.046 A 
BRANCH  17  23
ATOM     23  O   UNL     1       0.582  -1.893   1.391  0.00  0.00    -0.492 OA
BRANCH  23  24
ATOM     24  C   UNL     1       0.362  -0.487   1.529  0.00  0.00    +0.229 C 
BRANCH  24  26
ATOM     25  C   UNL     1      -0.583   1.547   0.429  0.00  0.00    +0.007 C 
ATOM     26  C   UNL     1      -0.347   0.043   0.281  0.00  0.00    +0.038 C 
ENDBRANCH  24  26
ENDBRANCH  23  24
ENDBRANCH  17  23
ENDBRANCH  15  20
ENDBRANCH   1  16
TORSDOF 6
