REMARK  Name = ZINC16681101
REMARK  12 active torsions:
REMARK  status: ('A' for Active; 'I' for Inactive)
REMARK    1  A    between atoms: C_1  and  C_2
REMARK    2  A    between atoms: C_2  and  C_3
REMARK    3  A    between atoms: C_7  and  C_32
REMARK    4  A    between atoms: C_8  and  N_9
REMARK    5  A    between atoms: C_13  and  S_15
REMARK    6  A    between atoms: S_15  and  C_16
REMARK    7  A    between atoms: C_16  and  C_18
REMARK    8  A    between atoms: C_16  and  C_19
REMARK    9  A    between atoms: C_19  and  C_21
REMARK   10  A    between atoms: C_22  and  N_31
REMARK   11  A    between atoms: N_23  and  C_30
REMARK   12  A    between atoms: N_26  and  C_29
REMARK                            x       y       z     vdW  Elec       q    Type
REMARK                         _______ _______ _______ _____ _____    ______ ____
ROOT
ATOM      1  S   UNL     1      -1.345  -0.175   4.113  0.00  0.00    -0.086 S 
ENDROOT
BRANCH   1   6
ATOM      2  N   UNL     1      -0.474  -3.784  -0.340  0.00  0.00    -0.292 N 
ATOM      3  C   UNL     1      -0.524  -3.062   0.847  0.00  0.00    +0.187 A 
ATOM      4  N   UNL     1       0.114  -3.273   1.981  0.00  0.00    -0.125 NA
ATOM      5  N   UNL     1      -0.083  -2.424   3.046  0.00  0.00    -0.133 NA
ATOM      6  C   UNL     1      -0.910  -1.403   2.927  0.00  0.00    +0.161 A 
ATOM      7  S   UNL     1      -1.475  -1.602   1.244  0.00  0.00    -0.024 S 
ATOM      8  H   UNL     1      -1.065  -3.553  -1.074  0.00  0.00    +0.154 HD
BRANCH   2  14
ATOM      9  C   UNL     1      -0.025  -6.155  -0.411  0.00  0.00    -0.026 A 
ATOM     10  C   UNL     1       0.869  -7.199  -0.550  0.00  0.00    +0.005 A 
ATOM     11  C   UNL     1       2.213  -6.940  -0.744  0.00  0.00    +0.001 A 
ATOM     12  C   UNL     1       2.667  -5.635  -0.804  0.00  0.00    +0.005 A 
ATOM     13  C   UNL     1       1.779  -4.586  -0.670  0.00  0.00    -0.029 A 
ATOM     14  C   UNL     1       0.427  -4.843  -0.476  0.00  0.00    +0.039 A 
ATOM     15  C   UNL     1       2.275  -3.165  -0.737  0.00  0.00    +0.045 C 
BRANCH   9  17
ATOM     16  C   UNL     1      -2.219  -6.409  -1.538  0.00  0.00    +0.009 C 
ATOM     17  C   UNL     1      -1.489  -6.438  -0.194  0.00  0.00    +0.033 C 
ENDBRANCH   9  17
ENDBRANCH   2  14
ENDBRANCH   1   6
BRANCH   1  18
ATOM     18  C   UNL     1      -0.385  -0.625   5.584  0.00  0.00    +0.121 C 
ATOM     19  C   UNL     1      -0.865  -1.978   6.113  0.00  0.00    +0.028 C 
BRANCH  18  20
ATOM     20  C   UNL     1      -0.573   0.426   6.648  0.00  0.00    +0.185 C 
ATOM     21  O   UNL     1      -1.575   1.111   6.654  0.00  0.00    -0.291 OA
BRANCH  20  22
ATOM     22  C   UNL     1       0.416   0.614   7.637  0.00  0.00    +0.121 A 
ATOM     23  C   UNL     1       0.305   1.643   8.588  0.00  0.00    +0.116 A 
ATOM     24  N   UNL     1       1.288   1.785   9.525  0.00  0.00    -0.284 N 
ATOM     25  C   UNL     1       2.349   0.964   9.553  0.00  0.00    +0.333 A 
ATOM     26  O   UNL     1       3.197   1.132  10.408  0.00  0.00    -0.246 OA
ATOM     27  N   UNL     1       2.509  -0.036   8.672  0.00  0.00    -0.263 N 
ATOM     28  C   UNL     1       1.591  -0.264   7.710  0.00  0.00    +0.269 A 
ATOM     29  O   UNL     1       1.736  -1.175   6.916  0.00  0.00    -0.267 OA
ATOM     30  C   UNL     1       3.693  -0.895   8.760  0.00  0.00    +0.157 C 
ATOM     31  C   UNL     1       1.181   2.854  10.521  0.00  0.00    +0.155 C 
BRANCH  23  32
ATOM     32  N   UNL     1      -0.764   2.485   8.573  0.00  0.00    -0.344 N 
ATOM     33  H   UNL     1      -1.011   2.968   9.377  0.00  0.00    +0.144 HD
ATOM     34  H   UNL     1      -1.278   2.602   7.759  0.00  0.00    +0.144 HD
ENDBRANCH  23  32
ENDBRANCH  20  22
ENDBRANCH  18  20
ENDBRANCH   1  18
TORSDOF 7
