REMARK  Name = ZINC20289973
REMARK  11 active torsions:
REMARK  status: ('A' for Active; 'I' for Inactive)
REMARK    1  A    between atoms: C_1  and  C_2
REMARK    2  A    between atoms: C_2  and  O_3
REMARK    3  A    between atoms: O_3  and  C_4
REMARK    4  A    between atoms: C_4  and  C_6
REMARK    5  A    between atoms: C_6  and  C_8
REMARK    6  A    between atoms: C_6  and  N_9
REMARK    7  A    between atoms: C_13  and  C_14
REMARK    8  A    between atoms: C_17  and  O_20
REMARK    9  A    between atoms: O_20  and  C_21
REMARK   10  A    between atoms: C_21  and  C_22
REMARK   11  A    between atoms: C_25  and  C_27
REMARK                            x       y       z     vdW  Elec       q    Type
REMARK                         _______ _______ _______ _____ _____    ______ ____
ROOT
ATOM      1  C   UNL     1       0.458  -8.365   3.692  0.00  0.00    -0.024 A 
ATOM      2  C   UNL     1       1.544  -8.862   2.962  0.00  0.00    +0.011 A 
ATOM      3  C   UNL     1       1.574 -10.189   2.595  0.00  0.00    +0.046 A 
ATOM      4  C   UNL     1       0.528 -11.034   2.948  0.00  0.00    +0.121 A 
ATOM      5  C   UNL     1      -0.553 -10.545   3.672  0.00  0.00    +0.046 A 
ATOM      6  C   UNL     1      -0.590  -9.222   4.050  0.00  0.00    +0.011 A 
ENDROOT
BRANCH   1  11
ATOM      7  N   UNL     1       2.360  -3.997   3.044  0.00  0.00    -0.215 N 
ATOM      8  C   UNL     1       1.493  -4.638   3.810  0.00  0.00    +0.261 C 
ATOM      9  O   UNL     1       0.928  -4.086   4.737  0.00  0.00    -0.269 OA
ATOM     10  C   UNL     1       1.245  -6.057   3.485  0.00  0.00    +0.080 C 
ATOM     11  C   UNL     1       0.421  -6.951   4.087  0.00  0.00    +0.028 C 
ATOM     12  S   UNL     1       2.328  -6.272   2.079  0.00  0.00    -0.026 S 
ATOM     13  C   UNL     1       2.979  -4.611   2.015  0.00  0.00    +0.287 C 
ATOM     14  O   UNL     1       3.787  -4.145   1.234  0.00  0.00    -0.262 OA
BRANCH   7  15
ATOM     15  C   UNL     1       2.649  -2.587   3.315  0.00  0.00    +0.190 C 
ATOM     16  C   UNL     1       4.140  -2.421   3.616  0.00  0.00    +0.040 C 
BRANCH  15  17
ATOM     17  C   UNL     1       2.284  -1.758   2.111  0.00  0.00    +0.328 C 
ATOM     18  O   UNL     1       1.829  -2.291   1.126  0.00  0.00    -0.249 OA
BRANCH  17  19
ATOM     19  O   UNL     1       2.465  -0.428   2.131  0.00  0.00    -0.464 OA
BRANCH  19  21
ATOM     20  C   UNL     1       2.373   1.785   1.164  0.00  0.00    +0.048 C 
ATOM     21  C   UNL     1       2.097   0.294   0.954  0.00  0.00    +0.229 C 
ENDBRANCH  19  21
ENDBRANCH  17  19
ENDBRANCH  15  17
ENDBRANCH   7  15
ENDBRANCH   1  11
BRANCH   4  22
ATOM     22  O   UNL     1       0.562 -12.341   2.582  0.00  0.00    -0.484 OA
BRANCH  22  23
ATOM     23  C   UNL     1      -0.545 -13.154   2.977  0.00  0.00    +0.303 C 
BRANCH  23  24
ATOM     24  C   UNL     1      -0.333 -14.563   2.487  0.00  0.00    +0.143 A 
ATOM     25  C   UNL     1       0.290 -15.548   3.173  0.00  0.00    +0.049 A 
ATOM     26  C   UNL     1       0.272 -16.693   2.364  0.00  0.00    +0.057 A 
ATOM     27  C   UNL     1      -0.376 -16.340   1.200  0.00  0.00    +0.216 A 
ATOM     28  O   UNL     1      -0.737 -15.044   1.305  0.00  0.00    -0.450 OA
BRANCH  27  29
ATOM     29  C   UNL     1      -0.631 -17.215   0.058  0.00  0.00    +0.421 C 
ATOM     30  O   UNL     1      -0.257 -18.381   0.084  0.00  0.00    -0.237 OA
ATOM     31  O   UNL     1      -1.220 -16.783  -0.925  0.00  0.00    -0.237 OA
ENDBRANCH  27  29
ENDBRANCH  23  24
ENDBRANCH  22  23
ENDBRANCH   4  22
TORSDOF 9
