REMARK  Name = ZINC10362650
REMARK  9 active torsions:
REMARK  status: ('A' for Active; 'I' for Inactive)
REMARK    1  A    between atoms: C_1  and  C_2
REMARK    2  A    between atoms: C_2  and  C_4
REMARK    3  A    between atoms: C_2  and  O_17
REMARK    4  A    between atoms: N_6  and  C_7
REMARK    5  A    between atoms: C_9  and  N_14
REMARK    6  A    between atoms: O_17  and  C_18
REMARK    7  A    between atoms: C_18  and  C_20
REMARK    8  A    between atoms: C_20  and  O_21
REMARK    9  A    between atoms: O_21  and  C_22
REMARK                            x       y       z     vdW  Elec       q    Type
REMARK                         _______ _______ _______ _____ _____    ______ ____
ROOT
ATOM      1  C   UNL     1      -0.756   1.574  -1.217  0.00  0.00    +0.062 C 
ATOM      2  C   UNL     1      -0.007   1.072   0.019  0.00  0.00    +0.259 C 
ENDROOT
BRANCH   2   3
ATOM      3  C   UNL     1       1.403   1.603   0.001  0.00  0.00    +0.258 C 
ATOM      4  O   UNL     1       1.771   2.376   0.860  0.00  0.00    -0.271 OA
ATOM      5  N   UNL     1       2.256   1.218  -0.969  0.00  0.00    -0.281 N 
ATOM      6  H   UNL     1       1.983   0.550  -1.618  0.00  0.00    +0.155 HD
BRANCH   5   7
ATOM      7  C   UNL     1       3.535   1.781  -1.041  0.00  0.00    +0.054 A 
ATOM      8  C   UNL     1       4.211   2.123   0.123  0.00  0.00    +0.057 A 
ATOM      9  C   UNL     1       5.474   2.678   0.049  0.00  0.00    +0.128 A 
ATOM     10  C   UNL     1       6.065   2.894  -1.182  0.00  0.00    +0.034 A 
ATOM     11  C   UNL     1       5.396   2.555  -2.343  0.00  0.00    +0.024 A 
ATOM     12  C   UNL     1       4.134   1.994  -2.276  0.00  0.00    +0.062 A 
ATOM     13 CL   UNL     1       3.296   1.563  -3.734  0.00  0.00    -0.082 Cl
BRANCH   9  14
ATOM     14  N   UNL     1       6.195   3.042   1.289  0.00  0.00    +0.056 N 
ATOM     15  O   UNL     1       5.674   2.853   2.374  0.00  0.00    -0.126 OA
ATOM     16  O   UNL     1       7.308   3.532   1.225  0.00  0.00    -0.126 OA
ENDBRANCH   9  14
ENDBRANCH   5   7
ENDBRANCH   2   3
BRANCH   2  17
ATOM     17  O   UNL     1      -0.684   1.537   1.217  0.00  0.00    -0.450 OA
BRANCH  17  18
ATOM     18  C   UNL     1      -1.639   0.742   1.724  0.00  0.00    +0.346 C 
ATOM     19  O   UNL     1      -1.901  -0.307   1.186  0.00  0.00    -0.247 OA
BRANCH  18  20
ATOM     20  C   UNL     1      -2.385   1.159   2.966  0.00  0.00    +0.349 C 
BRANCH  20  21
ATOM     21  O   UNL     1      -3.342   0.154   3.306  0.00  0.00    -0.479 OA
BRANCH  21  22
ATOM     22  C   UNL     1      -4.104   0.376   4.409  0.00  0.00    +0.140 A 
ATOM     23  C   UNL     1      -3.930   1.534   5.152  0.00  0.00    +0.047 A 
ATOM     24  C   UNL     1      -4.710   1.760   6.270  0.00  0.00    +0.004 A 
ATOM     25  C   UNL     1      -5.656   0.829   6.655  0.00  0.00    +0.002 A 
ATOM     26  C   UNL     1      -5.828  -0.330   5.920  0.00  0.00    +0.023 A 
ATOM     27  C   UNL     1      -5.055  -0.558   4.798  0.00  0.00    +0.083 A 
ATOM     28 CL   UNL     1      -5.271  -2.013   3.875  0.00  0.00    -0.080 Cl
ENDBRANCH  21  22
ENDBRANCH  20  21
ENDBRANCH  18  20
ENDBRANCH  17  18
ENDBRANCH   2  17
TORSDOF 8
