REMARK  Name = ZINC16651828
REMARK  13 active torsions:
REMARK  status: ('A' for Active; 'I' for Inactive)
REMARK    1  A    between atoms: C_1  and  C_2
REMARK    2  A    between atoms: C_5  and  N_8
REMARK    3  A    between atoms: N_11  and  C_12
REMARK    4  A    between atoms: N_11  and  C_16
REMARK    5  A    between atoms: C_12  and  C_13
REMARK    6  A    between atoms: C_13  and  O_14
REMARK    7  A    between atoms: O_14  and  C_15
REMARK    8  A    between atoms: C_16  and  C_17
REMARK    9  A    between atoms: N_19  and  C_20
REMARK   10  A    between atoms: N_19  and  C_30
REMARK   11  A    between atoms: C_20  and  C_21
REMARK   12  A    between atoms: C_30  and  C_31
REMARK   13  A    between atoms: C_34  and  C_36
REMARK                            x       y       z     vdW  Elec       q    Type
REMARK                         _______ _______ _______ _____ _____    ______ ____
ROOT
ATOM      1  C   UNL     1      -2.649  -0.145   2.395  0.00  0.00    +0.234 C 
ATOM      2  O   UNL     1      -1.894  -0.816   1.723  0.00  0.00    -0.274 OA
ATOM      3  N   UNL     1      -3.116   1.026   1.918  0.00  0.00    -0.289 N 
ENDROOT
BRANCH   1   4
ATOM      4  C   UNL     1      -3.066  -0.622   3.763  0.00  0.00    +0.205 C 
BRANCH   4   8
ATOM      5  N   UNL     1      -0.636  -3.132   4.909  0.00  0.00    -0.269 N 
ATOM      6  C   UNL     1      -1.223  -1.947   4.648  0.00  0.00    +0.307 C 
ATOM      7  O   UNL     1      -0.665  -0.912   4.955  0.00  0.00    -0.252 OA
ATOM      8  N   UNL     1      -2.428  -1.910   4.046  0.00  0.00    -0.274 N 
ATOM      9  H   UNL     1      -1.114  -3.959   4.735  0.00  0.00    +0.156 HD
BRANCH   5  14
ATOM     10  C   UNL     1       4.625  -3.289   7.026  0.00  0.00    +0.044 C 
ATOM     11  C   UNL     1       3.228  -3.247   6.463  0.00  0.00    -0.050 A 
ATOM     12  C   UNL     1       2.310  -4.218   6.822  0.00  0.00    +0.005 A 
ATOM     13  C   UNL     1       1.029  -4.182   6.309  0.00  0.00    +0.023 A 
ATOM     14  C   UNL     1       0.661  -3.171   5.431  0.00  0.00    +0.035 A 
ATOM     15  C   UNL     1       1.586  -2.200   5.069  0.00  0.00    +0.023 A 
ATOM     16  C   UNL     1       2.865  -2.239   5.590  0.00  0.00    +0.005 A 
ENDBRANCH   5  14
BRANCH   8  17
ATOM     17  C   UNL     1      -3.101  -3.158   3.676  0.00  0.00    +0.138 C 
BRANCH  17  18
ATOM     18  C   UNL     1      -2.690  -3.557   2.257  0.00  0.00    +0.178 C 
BRANCH  18  19
ATOM     19  O   UNL     1      -1.294  -3.858   2.233  0.00  0.00    -0.381 OA
ATOM     20  C   UNL     1      -0.805  -4.245   0.947  0.00  0.00    +0.194 C 
ENDBRANCH  18  19
ENDBRANCH  17  18
ENDBRANCH   8  17
ENDBRANCH   4   8
ENDBRANCH   1   4
BRANCH   3  21
ATOM     21  C   UNL     1      -2.711   1.489   0.589  0.00  0.00    +0.143 C 
BRANCH  21  22
ATOM     22  C   UNL     1      -1.462   2.324   0.707  0.00  0.00    -0.026 A 
ATOM     23  C   UNL     1      -1.560   3.688   0.906  0.00  0.00    +0.009 A 
ATOM     24  C   UNL     1      -0.417   4.459   1.007  0.00  0.00    +0.050 A 
ATOM     25  C   UNL     1       0.831   3.864   0.917  0.00  0.00    +0.166 A 
ATOM     26  C   UNL     1       0.930   2.488   0.724  0.00  0.00    +0.167 A 
ATOM     27  C   UNL     1      -0.220   1.722   0.622  0.00  0.00    +0.054 A 
ATOM     28  O   UNL     1       2.251   2.150   0.669  0.00  0.00    -0.453 OA
ATOM     29  C   UNL     1       2.954   3.382   0.422  0.00  0.00    +0.466 C 
ATOM     30  O   UNL     1       2.090   4.387   0.984  0.00  0.00    -0.453 OA
ENDBRANCH  21  22
ENDBRANCH   3  21
BRANCH   3  31
ATOM     31  C   UNL     1      -4.028   1.835   2.730  0.00  0.00    +0.182 C 
BRANCH  31  32
ATOM     32  C   UNL     1      -5.451   1.437   2.434  0.00  0.00    +0.122 A 
ATOM     33  C   UNL     1      -6.150   0.483   3.075  0.00  0.00    +0.046 A 
ATOM     34  C   UNL     1      -7.431   0.444   2.478  0.00  0.00    +0.045 A 
ATOM     35  C   UNL     1      -7.439   1.376   1.509  0.00  0.00    +0.102 A 
ATOM     36  O   UNL     1      -6.239   1.979   1.491  0.00  0.00    -0.463 OA
ATOM     37  C   UNL     1      -8.599   1.695   0.602  0.00  0.00    +0.086 C 
ENDBRANCH  31  32
ENDBRANCH   3  31
TORSDOF 10
