REMARK  Name = ZINC23158507
REMARK  9 active torsions:
REMARK  status: ('A' for Active; 'I' for Inactive)
REMARK    1  A    between atoms: C_1  and  C_2
REMARK    2  A    between atoms: C_2  and  O_3
REMARK    3  A    between atoms: O_3  and  C_4
REMARK    4  A    between atoms: C_12  and  C_14
REMARK    5  A    between atoms: C_17  and  N_20
REMARK    6  A    between atoms: C_23  and  N_26
REMARK    7  A    between atoms: N_26  and  C_27
REMARK    8  A    between atoms: C_27  and  C_28
REMARK    9  A    between atoms: C_28  and  N_29
REMARK                            x       y       z     vdW  Elec       q    Type
REMARK                         _______ _______ _______ _____ _____    ______ ____
ROOT
ATOM      1  C   UNL     1       4.181  -5.172  -5.079  0.00  0.00    +0.037 A 
ATOM      2  C   UNL     1       4.807  -5.744  -6.190  0.00  0.00    +0.015 A 
ATOM      3  C   UNL     1       4.805  -7.111  -6.351  0.00  0.00    +0.024 A 
ATOM      4  C   UNL     1       4.179  -7.923  -5.409  0.00  0.00    +0.030 A 
ATOM      5  C   UNL     1       3.554  -7.356  -4.302  0.00  0.00    +0.024 A 
ATOM      6  C   UNL     1       3.558  -5.990  -4.133  0.00  0.00    +0.015 A 
ENDROOT
BRANCH   1  15
ATOM      7  C   UNL     1       1.861  -0.740  -8.618  0.00  0.00    +0.403 C 
ATOM      8  O   UNL     1       1.792   0.462  -8.456  0.00  0.00    -0.226 OA
ATOM      9  N   UNL     1       2.165  -1.544  -7.580  0.00  0.00    -0.264 N 
ATOM     10  C   UNL     1       2.258  -2.999  -7.762  0.00  0.00    +0.130 C 
ATOM     11  C   UNL     1       3.635  -3.466  -7.277  0.00  0.00    +0.127 C 
ATOM     12  N   UNL     1       3.879  -2.903  -5.942  0.00  0.00    -0.295 N 
ATOM     13  C   UNL     1       3.786  -1.448  -5.759  0.00  0.00    +0.127 C 
ATOM     14  C   UNL     1       2.414  -0.980  -6.246  0.00  0.00    +0.130 C 
ATOM     15  C   UNL     1       4.183  -3.707  -4.904  0.00  0.00    +0.247 C 
ATOM     16  O   UNL     1       4.457  -3.225  -3.821  0.00  0.00    -0.270 OA
BRANCH   7  17
ATOM     17  O   UNL     1       1.635  -1.269  -9.835  0.00  0.00    -0.451 OA
BRANCH  17  19
ATOM     18  C   UNL     1       1.097  -1.138 -12.188  0.00  0.00    +0.048 C 
ATOM     19  C   UNL     1       1.319  -0.358 -10.890  0.00  0.00    +0.230 C 
ENDBRANCH  17  19
ENDBRANCH   7  17
ENDBRANCH   1  15
BRANCH   4  20
ATOM     20  N   UNL     1       4.177  -9.304  -5.575  0.00  0.00    -0.330 N 
ATOM     21  C   UNL     1       3.410 -10.166  -4.666  0.00  0.00    +0.103 C 
ATOM     22  C   UNL     1       4.346 -11.235  -4.093  0.00  0.00    +0.003 C 
ATOM     23  C   UNL     1       5.026 -11.981  -5.243  0.00  0.00    -0.069 C 
ATOM     24  C   UNL     1       5.862 -10.999  -6.067  0.00  0.00    +0.003 C 
ATOM     25  C   UNL     1       4.938  -9.927  -6.666  0.00  0.00    +0.103 C 
BRANCH  23  26
ATOM     26  N   UNL     1       5.899 -13.029  -4.698  0.00  0.00    +0.382 N 
ATOM     27  H   UNL     1       6.649 -12.604  -4.175  0.00  0.00    -0.085 HD
ATOM     28  H   UNL     1       5.364 -13.630  -4.089  0.00  0.00    -0.085 HD
BRANCH  26  29
ATOM     29  C   UNL     1       6.459 -13.823  -5.800  0.00  0.00    -0.067 C 
BRANCH  29  30
ATOM     30  C   UNL     1       7.368 -14.914  -5.232  0.00  0.00    +0.065 C 
BRANCH  30  31
ATOM     31  N   UNL     1       7.928 -15.708  -6.334  0.00  0.00    -0.304 NA
ATOM     32  C   UNL     1       6.874 -16.453  -7.034  0.00  0.00    +0.084 C 
ATOM     33  C   UNL     1       7.468 -17.150  -8.260  0.00  0.00    +0.015 C 
ATOM     34  C   UNL     1       8.580 -18.102  -7.811  0.00  0.00    +0.002 C 
ATOM     35  C   UNL     1       9.641 -17.309  -7.042  0.00  0.00    +0.015 C 
ATOM     36  C   UNL     1       8.983 -16.608  -5.852  0.00  0.00    +0.084 C 
ENDBRANCH  30  31
ENDBRANCH  29  30
ENDBRANCH  26  29
ENDBRANCH  23  26
ENDBRANCH   4  20
TORSDOF 8
