REMARK  Name = ZINC39915854
REMARK  10 active torsions:
REMARK  status: ('A' for Active; 'I' for Inactive)
REMARK    1  A    between atoms: C_1  and  C_2
REMARK    2  A    between atoms: C_5  and  C_8
REMARK    3  A    between atoms: C_8  and  N_9
REMARK    4  A    between atoms: C_17  and  S_18
REMARK    5  A    between atoms: S_18  and  C_19
REMARK    6  A    between atoms: C_21  and  O_34
REMARK    7  A    between atoms: C_23  and  O_33
REMARK    8  A    between atoms: C_25  and  O_32
REMARK    9  A    between atoms: C_27  and  C_30
REMARK   10  A    between atoms: C_30  and  O_31
REMARK                            x       y       z     vdW  Elec       q    Type
REMARK                         _______ _______ _______ _____ _____    ______ ____
ROOT
ATOM      1  N   UNL     1       1.447  -4.746  -0.032  0.00  0.00    -0.314 N 
ATOM      2  C   UNL     1       2.221  -4.998  -1.153  0.00  0.00    +0.070 A 
ATOM      3  C   UNL     1       1.993  -4.909  -2.518  0.00  0.00    +0.028 A 
ATOM      4  C   UNL     1       2.997  -5.242  -3.404  0.00  0.00    +0.002 A 
ATOM      5  C   UNL     1       4.233  -5.665  -2.939  0.00  0.00    +0.002 A 
ATOM      6  C   UNL     1       4.476  -5.760  -1.587  0.00  0.00    +0.030 A 
ATOM      7  C   UNL     1       3.471  -5.426  -0.676  0.00  0.00    +0.090 A 
ATOM      8  N   UNL     1       3.407  -5.417   0.681  0.00  0.00    -0.222 NA
ATOM      9  C   UNL     1       2.221  -5.011   1.063  0.00  0.00    +0.173 A 
ENDROOT
BRANCH   1  10
ATOM     10  C   UNL     1       0.059  -4.275  -0.021  0.00  0.00    +0.159 C 
BRANCH  10  15
ATOM     11  C   UNL     1      -0.018   1.503   0.010  0.00  0.00    +0.044 C 
ATOM     12  C   UNL     1       0.002  -0.004   0.002  0.00  0.00    -0.050 A 
ATOM     13  C   UNL     1       0.006  -0.689  -1.199  0.00  0.00    +0.004 A 
ATOM     14  C   UNL     1       0.025  -2.071  -1.206  0.00  0.00    +0.005 A 
ATOM     15  C   UNL     1       0.040  -2.768  -0.013  0.00  0.00    -0.028 A 
ATOM     16  C   UNL     1       0.037  -2.084   1.188  0.00  0.00    +0.005 A 
ATOM     17  C   UNL     1       0.023  -0.702   1.195  0.00  0.00    +0.004 A 
ENDBRANCH  10  15
ENDBRANCH   1  10
BRANCH   9  18
ATOM     18  S   UNL     1       1.700  -4.840   2.737  0.00  0.00    -0.054 S 
BRANCH  18  19
ATOM     19  C   UNL     1       3.153  -5.336   3.702  0.00  0.00    +0.214 C 
ATOM     20  C   UNL     1       2.765  -5.473   5.176  0.00  0.00    +0.185 C 
ATOM     21  C   UNL     1       4.010  -5.833   5.993  0.00  0.00    +0.177 C 
ATOM     22  C   UNL     1       5.080  -4.760   5.771  0.00  0.00    +0.176 C 
ATOM     23  C   UNL     1       5.380  -4.651   4.274  0.00  0.00    +0.176 C 
ATOM     24  O   UNL     1       4.174  -4.345   3.569  0.00  0.00    -0.355 OA
BRANCH  22  25
ATOM     25  O   UNL     1       4.605  -3.503   6.257  0.00  0.00    -0.386 OA
ATOM     26  H   UNL     1       4.392  -3.502   7.200  0.00  0.00    +0.210 HD
ENDBRANCH  22  25
BRANCH  21  27
ATOM     27  O   UNL     1       3.671  -5.893   7.380  0.00  0.00    -0.386 OA
ATOM     28  H   UNL     1       2.993  -6.549   7.591  0.00  0.00    +0.210 HD
ENDBRANCH  21  27
BRANCH  20  29
ATOM     29  O   UNL     1       1.785  -6.503   5.319  0.00  0.00    -0.386 OA
ATOM     30  H   UNL     1       0.970  -6.342   4.823  0.00  0.00    +0.210 HD
ENDBRANCH  20  29
BRANCH  23  31
ATOM     31  C   UNL     1       6.404  -3.539   4.038  0.00  0.00    +0.190 C 
BRANCH  31  32
ATOM     32  O   UNL     1       6.771  -3.515   2.657  0.00  0.00    -0.392 OA
ATOM     33  H   UNL     1       7.419  -2.833   2.434  0.00  0.00    +0.210 HD
ENDBRANCH  31  32
ENDBRANCH  23  31
ENDBRANCH  18  19
ENDBRANCH   9  18
TORSDOF 9
