REMARK  Name = ZINC39685752
REMARK  13 active torsions:
REMARK  status: ('A' for Active; 'I' for Inactive)
REMARK    1  A    between atoms: C_1  and  C_2
REMARK    2  A    between atoms: C_2  and  C_3
REMARK    3  A    between atoms: C_2  and  C_4
REMARK    4  A    between atoms: C_4  and  C_6
REMARK    5  A    between atoms: C_4  and  N_13
REMARK    6  A    between atoms: N_8  and  C_9
REMARK    7  A    between atoms: C_9  and  C_10
REMARK    8  A    between atoms: C_9  and  C_11
REMARK    9  A    between atoms: C_9  and  C_12
REMARK   10  A    between atoms: C_14  and  C_16
REMARK   11  A    between atoms: C_27  and  C_29
REMARK   12  A    between atoms: C_32  and  O_35
REMARK   13  A    between atoms: O_35  and  C_36
REMARK                            x       y       z     vdW  Elec       q    Type
REMARK                         _______ _______ _______ _____ _____    ______ ____
ROOT
ATOM      1  C   UNL     1      -1.756  -4.481   1.287  0.00  0.00    +0.100 C 
ATOM      2  C   UNL     1      -2.813  -5.296   0.509  0.00  0.00    +0.121 C 
ATOM      3  N   UNL     1      -2.998  -6.530   1.309  0.00  0.00    -0.296 N 
ATOM      4  C   UNL     1      -2.956  -6.066   2.716  0.00  0.00    +0.115 C 
ATOM      5  C   UNL     1      -1.854  -4.988   2.736  0.00  0.00    -0.004 C 
ATOM      6  C   UNL     1      -2.248  -3.848   3.670  0.00  0.00    -0.010 C 
ATOM      7  C   UNL     1      -2.281  -4.364   5.111  0.00  0.00    -0.082 C 
ATOM      8  N   UNL     1      -0.959  -4.888   5.476  0.00  0.00    +0.379 N 
ATOM      9  C   UNL     1      -0.629  -6.043   4.634  0.00  0.00    -0.082 C 
ATOM     10  C   UNL     1      -0.525  -5.599   3.172  0.00  0.00    -0.010 C 
ATOM     11  C   UNL     1      -3.165  -7.789   0.858  0.00  0.00    +0.247 C 
ATOM     12  O   UNL     1      -3.059  -8.029  -0.329  0.00  0.00    -0.270 OA
ATOM     13  H   UNL     1      -0.265  -4.168   5.345  0.00  0.00    -0.086 HD
ATOM     14  H   UNL     1      -0.967  -5.171   6.445  0.00  0.00    -0.086 HD
ENDROOT
BRANCH  11  15
ATOM     15  C   UNL     1      -3.478  -8.876   1.806  0.00  0.00    +0.037 A 
ATOM     16  C   UNL     1      -4.010  -8.578   3.064  0.00  0.00    +0.016 A 
ATOM     17  C   UNL     1      -4.300  -9.595   3.945  0.00  0.00    +0.047 A 
ATOM     18  C   UNL     1      -4.065 -10.917   3.586  0.00  0.00    +0.130 A 
ATOM     19  C   UNL     1      -3.536 -11.218   2.336  0.00  0.00    +0.047 A 
ATOM     20  C   UNL     1      -3.248 -10.207   1.447  0.00  0.00    +0.016 A 
BRANCH  18  21
ATOM     21  O   UNL     1      -4.352 -11.917   4.457  0.00  0.00    -0.406 OA
BRANCH  21  22
ATOM     22  C   UNL     1      -4.085 -13.252   4.024  0.00  0.00    +0.575 C 
ATOM     23  F   UNL     1      -2.723 -13.386   3.734  0.00  0.00    -0.133 F 
ATOM     24  F   UNL     1      -4.437 -14.151   5.037  0.00  0.00    -0.133 F 
ATOM     25  F   UNL     1      -4.835 -13.528   2.875  0.00  0.00    -0.133 F 
ENDBRANCH  21  22
ENDBRANCH  18  21
ENDBRANCH  11  15
BRANCH   1  27
ATOM     26  N   UNL     1      -3.333  -2.583   1.463  0.00  0.00    -0.303 N 
ATOM     27  C   UNL     1      -2.077  -3.010   1.224  0.00  0.00    +0.219 C 
ATOM     28  O   UNL     1      -1.206  -2.209   0.958  0.00  0.00    -0.275 OA
ATOM     29  H   UNL     1      -4.012  -3.212   1.754  0.00  0.00    +0.149 HD
BRANCH  26  30
ATOM     30  C   UNL     1      -3.674  -1.169   1.285  0.00  0.00    +0.161 C 
BRANCH  30  31
ATOM     31  C   UNL     1      -4.858  -0.825   2.150  0.00  0.00    +0.234 C 
ATOM     32  O   UNL     1      -5.422  -1.694   2.780  0.00  0.00    -0.274 OA
ATOM     33  N   UNL     1      -5.290   0.450   2.225  0.00  0.00    -0.309 N 
ATOM     34  H   UNL     1      -4.796   1.156   1.780  0.00  0.00    +0.149 HD
BRANCH  33  35
ATOM     35  C   UNL     1      -6.505   0.769   2.978  0.00  0.00    +0.026 C 
ATOM     36  C   UNL     1      -6.323   0.354   4.440  0.00  0.00    +0.031 C 
ATOM     37  C   UNL     1      -6.771   2.273   2.904  0.00  0.00    +0.031 C 
ATOM     38  C   UNL     1      -7.691   0.011   2.377  0.00  0.00    +0.031 C 
ENDBRANCH  33  35
ENDBRANCH  30  31
BRANCH  30  40
ATOM     39  C   UNL     1      -2.792  -1.179  -1.053  0.00  0.00    +0.009 C 
ATOM     40  C   UNL     1      -4.021  -0.910  -0.182  0.00  0.00    +0.012 C 
ATOM     41  C   UNL     1      -5.161  -1.838  -0.608  0.00  0.00    +0.009 C 
ENDBRANCH  30  40
ENDBRANCH  26  30
ENDBRANCH   1  27
TORSDOF 8
