REMARK  Name = ZINC15577704
REMARK  5 active torsions:
REMARK  status: ('A' for Active; 'I' for Inactive)
REMARK    1  A    between atoms: C_1  and  C_2
REMARK    2  A    between atoms: C_6  and  N_8
REMARK    3  A    between atoms: C_9  and  C_11
REMARK    4  A    between atoms: C_12  and  C_13
REMARK    5  A    between atoms: C_17  and  N_19
REMARK                            x       y       z     vdW  Elec       q    Type
REMARK                         _______ _______ _______ _____ _____    ______ ____
ROOT
ATOM      1  N   UNL     1       2.355   3.893   0.001  0.00  0.00    -0.280 N 
ATOM      2  C   UNL     1       2.334   5.238  -0.094  0.00  0.00    +0.241 C 
ATOM      3  O   UNL     1       1.272   5.832  -0.082  0.00  0.00    -0.270 OA
ATOM      4  H   UNL     1       3.202   3.424   0.056  0.00  0.00    +0.155 HD
ENDROOT
BRANCH   1  10
ATOM      5  C   UNL     1      -2.369   3.579   1.324  0.00  0.00    +0.044 C 
ATOM      6  C   UNL     1      -1.151   2.998   0.654  0.00  0.00    -0.049 A 
ATOM      7  C   UNL     1      -1.222   1.754   0.052  0.00  0.00    +0.006 A 
ATOM      8  C   UNL     1      -0.105   1.215  -0.560  0.00  0.00    +0.040 A 
ATOM      9  C   UNL     1       1.083   1.922  -0.581  0.00  0.00    +0.145 A 
ATOM     10  C   UNL     1       1.155   3.174   0.019  0.00  0.00    +0.069 A 
ATOM     11  C   UNL     1       0.032   3.710   0.637  0.00  0.00    +0.029 A 
ATOM     12  F   UNL     1       2.172   1.397  -1.183  0.00  0.00    -0.204 F 
ENDBRANCH   1  10
BRANCH   2  13
ATOM     13  C   UNL     1       3.588   5.982  -0.212  0.00  0.00    +0.068 C 
ATOM     14  C   UNL     1       3.567   7.328  -0.307  0.00  0.00    +0.013 C 
BRANCH  14  15
ATOM     15  C   UNL     1       4.828   8.077  -0.425  0.00  0.00    -0.023 A 
ATOM     16  C   UNL     1       6.051   7.397  -0.440  0.00  0.00    +0.009 A 
ATOM     17  C   UNL     1       7.228   8.105  -0.551  0.00  0.00    +0.023 A 
ATOM     18  C   UNL     1       7.203   9.487  -0.648  0.00  0.00    +0.071 A 
ATOM     19  C   UNL     1       5.996  10.167  -0.634  0.00  0.00    +0.145 A 
ATOM     20  C   UNL     1       4.810   9.471  -0.529  0.00  0.00    +0.042 A 
ATOM     21 CL   UNL     1       8.691  10.370  -0.786  0.00  0.00    -0.081 Cl
BRANCH  19  22
ATOM     22  N   UNL     1       5.979  11.643  -0.738  0.00  0.00    +0.058 N 
ATOM     23  O   UNL     1       4.919  12.242  -0.726  0.00  0.00    -0.126 OA
ATOM     24  O   UNL     1       7.026  12.259  -0.835  0.00  0.00    -0.126 OA
ENDBRANCH  19  22
ENDBRANCH  14  15
ENDBRANCH   2  13
TORSDOF 4
