REMARK  Name = ZINC63807421
REMARK  4 active torsions:
REMARK  status: ('A' for Active; 'I' for Inactive)
REMARK    1  A    between atoms: C_5  and  C_7
REMARK    2  A    between atoms: N_12  and  C_14
REMARK    3  A    between atoms: C_14  and  C_15
REMARK    4  A    between atoms: N_17  and  C_18
REMARK                            x       y       z     vdW  Elec       q    Type
REMARK                         _______ _______ _______ _____ _____    ______ ____
ROOT
ATOM      1  C   UNL     1       3.792  -4.715  -0.051  0.00  0.00    +0.243 C 
ENDROOT
BRANCH   1   7
ATOM      2  C   UNL     1       1.246  -2.165  -0.022  0.00  0.00    +0.094 A 
ATOM      3  C   UNL     1       0.032  -2.892  -0.019  0.00  0.00    +0.035 A 
ATOM      4  C   UNL     1       0.095  -4.254  -0.028  0.00  0.00    +0.074 A 
ATOM      5  C   UNL     1       1.372  -4.856  -0.039  0.00  0.00    +0.268 A 
ATOM      6  O   UNL     1       1.478  -6.072  -0.047  0.00  0.00    -0.266 OA
ATOM      7  N   UNL     1       2.472  -4.080  -0.040  0.00  0.00    -0.220 N 
ATOM      8  N   UNL     1       2.395  -2.799  -0.037  0.00  0.00    -0.168 NA
BRANCH   2  13
ATOM      9  C   UNL     1      -0.017   1.376   0.010  0.00  0.00    +0.001 A 
ATOM     10  C   UNL     1       1.170   2.087   0.002  0.00  0.00    +0.003 A 
ATOM     11  C   UNL     1       2.382   1.422  -0.013  0.00  0.00    +0.039 A 
ATOM     12  C   UNL     1       2.414   0.040  -0.021  0.00  0.00    +0.133 A 
ATOM     13  C   UNL     1       1.219  -0.682  -0.013  0.00  0.00    +0.037 A 
ATOM     14  C   UNL     1       0.002  -0.004   0.002  0.00  0.00    +0.013 A 
ATOM     15  F   UNL     1       3.598  -0.610  -0.037  0.00  0.00    -0.205 F 
ENDBRANCH   2  13
ENDBRANCH   1   7
BRANCH   1  16
ATOM     16  C   UNL     1       4.237  -4.924  -1.476  0.00  0.00    +0.237 C 
ATOM     17  O   UNL     1       3.522  -4.577  -2.392  0.00  0.00    -0.274 OA
ATOM     18  N   UNL     1       5.430  -5.496  -1.732  0.00  0.00    -0.277 N 
ATOM     19  H   UNL     1       6.002  -5.774  -1.000  0.00  0.00    +0.152 HD
BRANCH  18  20
ATOM     20  C   UNL     1       5.862  -5.700  -3.117  0.00  0.00    +0.269 C 
ATOM     21  N   UNL     1       6.353  -4.436  -3.682  0.00  0.00    -0.348 N 
ATOM     22  C   UNL     1       7.600  -4.613  -4.011  0.00  0.00    +0.061 A 
ATOM     23  C   UNL     1       8.609  -3.731  -4.613  0.00  0.00    +0.027 A 
ATOM     24  C   UNL     1       9.851  -4.202  -4.844  0.00  0.00    +0.002 A 
ATOM     25  C   UNL     1      10.233  -5.519  -4.531  0.00  0.00    +0.002 A 
ATOM     26  C   UNL     1       9.386  -6.409  -3.978  0.00  0.00    +0.027 A 
ATOM     27  C   UNL     1       8.004  -6.007  -3.680  0.00  0.00    +0.061 A 
ATOM     28  N   UNL     1       6.991  -6.638  -3.160  0.00  0.00    -0.348 N 
ATOM     29  H   UNL     1       5.841  -3.619  -3.791  0.00  0.00    +0.163 HD
ATOM     30  H   UNL     1       6.983  -7.559  -2.856  0.00  0.00    +0.163 HD
ENDBRANCH  18  20
ENDBRANCH   1  16
TORSDOF 4
