REMARK  Name = ZINC24932708
REMARK  8 active torsions:
REMARK  status: ('A' for Active; 'I' for Inactive)
REMARK    1  A    between atoms: C_1  and  C_2
REMARK    2  A    between atoms: C_3  and  C_30
REMARK    3  A    between atoms: N_4  and  C_24
REMARK    4  A    between atoms: C_5  and  S_7
REMARK    5  A    between atoms: S_7  and  C_8
REMARK    6  A    between atoms: C_8  and  C_9
REMARK    7  A    between atoms: C_11  and  O_23
REMARK    8  A    between atoms: C_17  and  C_19
REMARK                            x       y       z     vdW  Elec       q    Type
REMARK                         _______ _______ _______ _____ _____    ______ ____
ROOT
ATOM      1  C   UNL     1       0.182  -2.929   4.851  0.00  0.00    -0.020 A 
ATOM      2  C   UNL     1      -1.056  -3.349   5.295  0.00  0.00    +0.092 A 
ATOM      3  C   UNL     1      -1.145  -4.270   6.328  0.00  0.00    +0.285 A 
ATOM      4  O   UNL     1      -0.050  -4.768   6.913  0.00  0.00    -0.425 OA
ATOM      5  C   UNL     1       1.184  -4.393   6.518  0.00  0.00    +0.141 A 
ATOM      6  C   UNL     1       2.308  -4.917   7.131  0.00  0.00    +0.070 A 
ATOM      7  C   UNL     1       3.577  -4.517   6.708  0.00  0.00    +0.037 A 
ATOM      8  N   UNL     1       4.685  -5.031   7.310  0.00  0.00    -0.286 N 
ATOM      9  C   UNL     1       5.863  -4.918   6.729  0.00  0.00    +0.214 C 
ATOM     10  O   UNL     1       5.945  -4.468   5.600  0.00  0.00    -0.276 OA
ATOM     11  C   UNL     1       7.109  -5.346   7.462  0.00  0.00    +0.109 C 
ATOM     12  C   UNL     1       3.717  -3.586   5.664  0.00  0.00    +0.024 A 
ATOM     13  C   UNL     1       2.619  -3.065   5.055  0.00  0.00    +0.013 A 
ATOM     14  C   UNL     1       1.335  -3.462   5.466  0.00  0.00    +0.022 A 
ATOM     15  H   UNL     1       4.607  -5.480   8.166  0.00  0.00    +0.155 HD
ENDROOT
BRANCH   3  16
ATOM     16  O   UNL     1      -2.359  -4.670   6.752  0.00  0.00    -0.480 OA
ATOM     17  H   UNL     1      -2.331  -5.313   7.474  0.00  0.00    +0.295 HD
ENDBRANCH   3  16
BRANCH   1  18
ATOM     18  C   UNL     1       0.301  -1.930   3.729  0.00  0.00    +0.113 C 
BRANCH  18  19
ATOM     19  S   UNL     1      -0.077  -2.743   2.152  0.00  0.00    -0.085 S 
BRANCH  19  24
ATOM     20  C   UNL     1       0.819   1.937  -0.079  0.00  0.00    +0.065 C 
ATOM     21  C   UNL     1       0.476   0.476   0.060  0.00  0.00    +0.034 A 
ATOM     22  C   UNL     1       0.158  -0.356  -0.946  0.00  0.00    +0.037 A 
ATOM     23  N   UNL     1      -0.081  -1.591  -0.385  0.00  0.00    -0.321 N 
ATOM     24  C   UNL     1       0.103  -1.460   0.958  0.00  0.00    +0.148 A 
ATOM     25  N   UNL     1       0.441  -0.217   1.210  0.00  0.00    -0.338 N 
ATOM     26  C   UNL     1       0.078  -0.005  -2.409  0.00  0.00    +0.065 C 
ATOM     27  H   UNL     1       0.634   0.144   2.090  0.00  0.00    +0.168 HD
BRANCH  23  28
ATOM     28  C   UNL     1      -0.462  -2.813  -1.097  0.00  0.00    +0.089 C 
ATOM     29  C   UNL     1      -1.817  -3.301  -0.583  0.00  0.00    +0.025 C 
ATOM     30  C   UNL     1      -2.215  -4.578  -1.328  0.00  0.00    +0.002 C 
ATOM     31  C   UNL     1      -1.158  -5.658  -1.087  0.00  0.00    +0.000 C 
ATOM     32  C   UNL     1       0.197  -5.170  -1.601  0.00  0.00    +0.002 C 
ATOM     33  C   UNL     1       0.595  -3.893  -0.857  0.00  0.00    +0.025 C 
ENDBRANCH  23  28
ENDBRANCH  19  24
ENDBRANCH  18  19
ENDBRANCH   1  18
TORSDOF 5
