REMARK  Name = ZINC42921076
REMARK  4 active torsions:
REMARK  status: ('A' for Active; 'I' for Inactive)
REMARK    1  A    between atoms: C_1  and  C_2
REMARK    2  A    between atoms: C_4  and  N_15
REMARK    3  A    between atoms: N_15  and  N_16
REMARK    4  A    between atoms: C_17  and  C_18
REMARK                            x       y       z     vdW  Elec       q    Type
REMARK                         _______ _______ _______ _____ _____    ______ ____
ROOT
ATOM      1  C   UNL     1      -0.018   1.503   0.010  0.00  0.00    +0.065 C 
ATOM      2  C   UNL     1       0.002  -0.004   0.002  0.00  0.00    +0.041 A 
ATOM      3  C   UNL     1       0.005  -0.672  -1.215  0.00  0.00    +0.048 A 
ATOM      4  C   UNL     1       0.024  -2.058  -1.237  0.00  0.00    +0.059 A 
ATOM      5  C   UNL     1       0.038  -2.741   0.003  0.00  0.00    +0.027 A 
ATOM      6  C   UNL     1       0.055  -4.141   0.062  0.00  0.00    +0.061 A 
ATOM      7  C   UNL     1       0.068  -4.769   1.275  0.00  0.00    +0.167 A 
ATOM      8  C   UNL     1       0.064  -4.023   2.465  0.00  0.00    +0.168 A 
ATOM      9  C   UNL     1       0.048  -2.658   2.433  0.00  0.00    +0.078 A 
ATOM     10  C   UNL     1       0.034  -1.986   1.200  0.00  0.00    +0.077 A 
ATOM     11  N   UNL     1       0.022  -0.648   1.146  0.00  0.00    -0.252 NA
ATOM     12  O   UNL     1       0.079  -4.893   3.518  0.00  0.00    -0.453 OA
ATOM     13  C   UNL     1      -0.325  -6.163   2.976  0.00  0.00    +0.466 C 
ATOM     14  O   UNL     1       0.084  -6.096   1.597  0.00  0.00    -0.453 OA
ENDROOT
BRANCH   4  15
ATOM     15  N   UNL     1       0.028  -2.754  -2.437  0.00  0.00    -0.237 N 
ATOM     16  H   UNL     1       0.040  -3.724  -2.435  0.00  0.00    +0.174 HD
BRANCH  15  17
ATOM     17  N   UNL     1       0.012  -2.057  -3.651  0.00  0.00    -0.190 NA
ATOM     18  C   UNL     1       0.016  -2.708  -4.775  0.00  0.00    +0.138 C 
BRANCH  18  19
ATOM     19  C   UNL     1       0.000  -1.974  -6.053  0.00  0.00    -0.003 A 
ATOM     20  C   UNL     1      -0.013  -0.573  -6.079  0.00  0.00    +0.029 A 
ATOM     21  C   UNL     1      -0.027   0.072  -7.297  0.00  0.00    +0.111 A 
ATOM     22  N   UNL     1      -0.028  -0.611  -8.426  0.00  0.00    -0.263 NA
ATOM     23  C   UNL     1      -0.016  -1.930  -8.447  0.00  0.00    +0.111 A 
ATOM     24  C   UNL     1       0.004  -2.658  -7.276  0.00  0.00    +0.029 A 
ENDBRANCH  18  19
ENDBRANCH  15  17
ENDBRANCH   4  15
TORSDOF 3
