REMARK  Name = ZINC09695080
REMARK  9 active torsions:
REMARK  status: ('A' for Active; 'I' for Inactive)
REMARK    1  A    between atoms: C_1  and  C_2
REMARK    2  A    between atoms: C_7  and  O_8
REMARK    3  A    between atoms: O_8  and  C_9
REMARK    4  A    between atoms: C_9  and  C_10
REMARK    5  A    between atoms: C_13  and  C_15
REMARK    6  A    between atoms: N_16  and  N_17
REMARK    7  A    between atoms: C_18  and  C_20
REMARK    8  A    between atoms: C_20  and  S_21
REMARK    9  A    between atoms: S_21  and  C_22
REMARK                            x       y       z     vdW  Elec       q    Type
REMARK                         _______ _______ _______ _____ _____    ______ ____
ROOT
ATOM      1  C   UNL     1      -4.591  -3.228   0.028  0.00  0.00    +0.143 A 
ATOM      2  C   UNL     1      -3.946  -4.412   0.015  0.00  0.00    +0.049 A 
ATOM      3  C   UNL     1      -2.567  -4.131  -0.001  0.00  0.00    +0.051 A 
ATOM      4  C   UNL     1      -2.443  -2.772   0.011  0.00  0.00    +0.148 A 
ATOM      5  O   UNL     1      -3.682  -2.240   0.025  0.00  0.00    -0.455 OA
ENDROOT
BRANCH   4   6
ATOM      6  C   UNL     1      -1.184  -2.022   0.003  0.00  0.00    +0.176 C 
ATOM      7  N   UNL     1      -1.202  -0.721   0.010  0.00  0.00    -0.185 NA
BRANCH   7   8
ATOM      8  N   UNL     1       0.002  -0.004   0.002  0.00  0.00    -0.206 N 
ATOM      9  C   UNL     1      -0.016   1.344   0.009  0.00  0.00    +0.242 C 
ATOM     10  O   UNL     1      -1.075   1.936   0.018  0.00  0.00    -0.273 OA
ATOM     11  H   UNL     1       0.849  -0.478  -0.009  0.00  0.00    +0.177 HD
BRANCH   9  12
ATOM     12  C   UNL     1       1.278   2.115   0.001  0.00  0.00    +0.174 C 
BRANCH  12  13
ATOM     13  S   UNL     1       0.924   3.890   0.014  0.00  0.00    -0.077 S 
BRANCH  13  14
ATOM     14  C   UNL     1       2.565   4.530   0.002  0.00  0.00    +0.189 A 
ATOM     15  N   UNL     1       2.923   5.848   0.006  0.00  0.00    -0.323 N 
ATOM     16  H   UNL     1       2.330   6.615   0.015  0.00  0.00    +0.169 HD
ATOM     17  C   UNL     1       4.290   5.861  -0.007  0.00  0.00    +0.222 A 
ATOM     18  N   UNL     1       4.690   4.620  -0.017  0.00  0.00    -0.137 NA
ATOM     19  N   UNL     1       3.676   3.830  -0.007  0.00  0.00    -0.123 NA
ENDBRANCH  13  14
ENDBRANCH  12  13
ENDBRANCH   9  12
ENDBRANCH   7   8
ENDBRANCH   4   6
BRANCH   1  20
ATOM     20  C   UNL     1      -6.087  -3.044   0.042  0.00  0.00    +0.303 C 
BRANCH  20  21
ATOM     21  O   UNL     1      -6.548  -2.993   1.394  0.00  0.00    -0.483 OA
BRANCH  21  28
ATOM     22  C   UNL     1      -8.134  -5.324   1.565  0.00  0.00    +0.047 C 
ATOM     23  C   UNL     1      -8.713  -3.937   1.677  0.00  0.00    -0.007 A 
ATOM     24  C   UNL     1     -10.071  -3.768   1.871  0.00  0.00    +0.007 A 
ATOM     25  C   UNL     1     -10.603  -2.497   1.972  0.00  0.00    +0.002 A 
ATOM     26  C   UNL     1      -9.779  -1.390   1.881  0.00  0.00    +0.024 A 
ATOM     27  C   UNL     1      -8.420  -1.553   1.693  0.00  0.00    +0.083 A 
ATOM     28  C   UNL     1      -7.884  -2.830   1.585  0.00  0.00    +0.142 A 
ATOM     29 CL   UNL     1      -7.384  -0.164   1.586  0.00  0.00    -0.080 Cl
ENDBRANCH  21  28
ENDBRANCH  20  21
ENDBRANCH   1  20
TORSDOF 8
