REMARK  Name = ZINC09865334
REMARK  6 active torsions:
REMARK  status: ('A' for Active; 'I' for Inactive)
REMARK    1  A    between atoms: C_3  and  C_12
REMARK    2  A    between atoms: C_6  and  C_7
REMARK    3  A    between atoms: C_7  and  N_8
REMARK    4  A    between atoms: C_19  and  C_20
REMARK    5  A    between atoms: C_19  and  C_27
REMARK    6  A    between atoms: C_19  and  N_60
REMARK                            x       y       z     vdW  Elec       q    Type
REMARK                         _______ _______ _______ _____ _____    ______ ____
ROOT
ATOM      1  C   UNL     1      -4.797  -3.254   0.346  0.00  0.00    +0.246 C 
ATOM      2  O   UNL     1      -5.218  -3.839   1.325  0.00  0.00    -0.270 OA
ATOM      3  N   UNL     1      -5.500  -3.273  -0.804  0.00  0.00    -0.301 N 
ATOM      4  C   UNL     1      -4.957  -2.667  -2.030  0.00  0.00    +0.089 C 
ATOM      5  C   UNL     1      -5.054  -3.701  -3.162  0.00  0.00    -0.058 C 
ATOM      6  C   UNL     1      -6.856  -4.876  -2.043  0.00  0.00    -0.058 C 
ATOM      7  C   UNL     1      -6.831  -3.895  -0.866  0.00  0.00    +0.089 C 
ATOM      8  N   UNL     1      -6.458  -4.154  -3.271  0.00  0.00    +0.389 N 
ATOM      9  H   UNL     1      -7.064  -3.333  -3.386  0.00  0.00    -0.080 HD
ENDROOT
BRANCH   1  12
ATOM     10  C   UNL     1      -2.127  -0.685  -0.268  0.00  0.00    +0.006 A 
ATOM     11  C   UNL     1      -3.324  -1.366  -0.342  0.00  0.00    +0.013 A 
ATOM     12  C   UNL     1      -3.515  -2.522   0.417  0.00  0.00    +0.037 A 
ATOM     13  C   UNL     1      -2.489  -2.983   1.244  0.00  0.00    +0.013 A 
ATOM     14  C   UNL     1      -1.295  -2.296   1.305  0.00  0.00    +0.006 A 
ATOM     15  C   UNL     1      -1.112  -1.151   0.550  0.00  0.00    -0.030 A 
BRANCH  15  16
ATOM     16  C   UNL     1       0.195  -0.405   0.622  0.00  0.00    +0.141 C 
BRANCH  16  17
ATOM     17  N   UNL     1       1.113  -0.927  -0.393  0.00  0.00    -0.295 N 
ATOM     18  C   UNL     1       2.348  -0.404  -0.518  0.00  0.00    +0.297 C 
ATOM     19  O   UNL     1       2.703   0.499   0.215  0.00  0.00    -0.253 OA
ATOM     20  N   UNL     1       3.190  -0.881  -1.456  0.00  0.00    -0.313 N 
ATOM     21  H   UNL     1       0.830  -1.648  -0.978  0.00  0.00    +0.151 HD
ATOM     22  H   UNL     1       2.907  -1.601  -2.041  0.00  0.00    +0.146 HD
ATOM     23  H   UNL     1       4.080  -0.504  -1.546  0.00  0.00    +0.146 HD
ENDBRANCH  16  17
ENDBRANCH  15  16
ENDBRANCH   1  12
BRANCH   8  24
ATOM     24  C   UNL     1      -6.614  -5.035  -4.446  0.00  0.00    -0.007 C 
BRANCH  24  25
ATOM     25  C   UNL     1      -8.080  -5.324  -4.645  0.00  0.00    -0.057 A 
ATOM     26  C   UNL     1      -9.008  -4.307  -4.513  0.00  0.00    +0.005 A 
ATOM     27  C   UNL     1     -10.352  -4.570  -4.700  0.00  0.00    +0.038 A 
ATOM     28  C   UNL     1     -10.770  -5.853  -5.010  0.00  0.00    +0.123 A 
ATOM     29  C   UNL     1      -9.840  -6.871  -5.136  0.00  0.00    +0.038 A 
ATOM     30  C   UNL     1      -8.496  -6.605  -4.954  0.00  0.00    +0.005 A 
ATOM     31  F   UNL     1     -12.084  -6.111  -5.188  0.00  0.00    -0.205 F 
ENDBRANCH  24  25
BRANCH  24  32
ATOM     32  C   UNL     1      -6.071  -4.332  -5.663  0.00  0.00    -0.057 A 
ATOM     33  C   UNL     1      -6.357  -2.995  -5.874  0.00  0.00    +0.005 A 
ATOM     34  C   UNL     1      -5.855  -2.348  -6.987  0.00  0.00    +0.038 A 
ATOM     35  C   UNL     1      -5.075  -3.040  -7.897  0.00  0.00    +0.123 A 
ATOM     36  C   UNL     1      -4.793  -4.380  -7.688  0.00  0.00    +0.038 A 
ATOM     37  C   UNL     1      -5.292  -5.024  -6.571  0.00  0.00    +0.005 A 
ATOM     38  F   UNL     1      -4.588  -2.409  -8.988  0.00  0.00    -0.205 F 
ENDBRANCH  24  32
ENDBRANCH   8  24
TORSDOF 6
