REMARK  Name = ZINC01105642
REMARK  6 active torsions:
REMARK  status: ('A' for Active; 'I' for Inactive)
REMARK    1  A    between atoms: C_3  and  C_28
REMARK    2  A    between atoms: C_6  and  C_7
REMARK    3  A    between atoms: C_10  and  C_12
REMARK    4  A    between atoms: N_13  and  N_14
REMARK    5  A    between atoms: C_15  and  C_17
REMARK    6  A    between atoms: C_17  and  C_18
REMARK                            x       y       z     vdW  Elec       q    Type
REMARK                         _______ _______ _______ _____ _____    ______ ____
ROOT
ATOM      1  C   UNL     1       6.780  -2.455  -3.324  0.00  0.00    +0.176 C 
ATOM      2  N   UNL     1       5.669  -1.827  -3.068  0.00  0.00    -0.185 NA
ENDROOT
BRANCH   1   6
ATOM      3  C   UNL     1       7.184  -2.686  -6.910  0.00  0.00    +0.136 A 
ATOM      4  C   UNL     1       8.323  -3.329  -6.520  0.00  0.00    +0.050 A 
ATOM      5  C   UNL     1       8.336  -3.329  -5.120  0.00  0.00    +0.051 A 
ATOM      6  C   UNL     1       7.188  -2.686  -4.711  0.00  0.00    +0.148 A 
ATOM      7  O   UNL     1       6.508  -2.303  -5.810  0.00  0.00    -0.454 OA
BRANCH   3  13
ATOM      8  C   UNL     1       7.565  -2.895  -9.360  0.00  0.00    +0.012 A 
ATOM      9  C   UNL     1       7.173  -2.680 -10.650  0.00  0.00    +0.016 A 
ATOM     10  C   UNL     1       5.977  -2.006 -10.915  0.00  0.00    +0.063 A 
ATOM     11  C   UNL     1       5.179  -1.555  -9.858  0.00  0.00    +0.016 A 
ATOM     12  C   UNL     1       5.567  -1.774  -8.568  0.00  0.00    +0.012 A 
ATOM     13  C   UNL     1       6.764  -2.449  -8.303  0.00  0.00    +0.017 A 
BRANCH  10  14
ATOM     14  C   UNL     1       5.557  -1.769 -12.309  0.00  0.00    +0.387 C 
ATOM     15  O   UNL     1       4.518  -1.182 -12.539  0.00  0.00    -0.241 OA
ATOM     16  O   UNL     1       6.326  -2.203 -13.327  0.00  0.00    -0.241 OA
ENDBRANCH  10  14
ENDBRANCH   3  13
ENDBRANCH   1   6
BRANCH   2  17
ATOM     17  N   UNL     1       5.279  -1.606  -1.741  0.00  0.00    -0.207 N 
ATOM     18  C   UNL     1       4.129  -0.956  -1.476  0.00  0.00    +0.237 C 
ATOM     19  O   UNL     1       3.430  -0.562  -2.387  0.00  0.00    -0.274 OA
ATOM     20  H   UNL     1       5.837  -1.920  -1.012  0.00  0.00    +0.177 HD
BRANCH  18  21
ATOM     21  C   UNL     1       3.709  -0.717  -0.048  0.00  0.00    +0.132 C 
BRANCH  21  22
ATOM     22  C   UNL     1       2.397   0.024  -0.027  0.00  0.00    -0.035 A 
ATOM     23  C   UNL     1       1.207  -0.680  -0.016  0.00  0.00    +0.008 A 
ATOM     24  C   UNL     1       0.002  -0.004   0.002  0.00  0.00    +0.050 A 
ATOM     25  C   UNL     1      -0.017   1.383   0.010  0.00  0.00    +0.162 A 
ATOM     26  C   UNL     1       1.179   2.090   0.002  0.00  0.00    +0.162 A 
ATOM     27  C   UNL     1       2.385   1.406  -0.018  0.00  0.00    +0.053 A 
ATOM     28  O   UNL     1       1.184   3.451   0.018  0.00  0.00    -0.485 OA
ATOM     29  C   UNL     1      -0.040   4.103  -0.340  0.00  0.00    +0.270 C 
ATOM     30  C   UNL     1      -1.189   3.413   0.408  0.00  0.00    +0.270 C 
ATOM     31  O   UNL     1      -1.212   2.035   0.019  0.00  0.00    -0.485 OA
ENDBRANCH  21  22
ENDBRANCH  18  21
ENDBRANCH   2  17
TORSDOF 6
