REMARK  Name = ZINC04980148
REMARK  8 active torsions:
REMARK  status: ('A' for Active; 'I' for Inactive)
REMARK    1  A    between atoms: C_1  and  C_2
REMARK    2  A    between atoms: C_2  and  C_25
REMARK    3  A    between atoms: N_3  and  N_4
REMARK    4  A    between atoms: C_7  and  O_24
REMARK    5  A    between atoms: C_8  and  C_11
REMARK    6  A    between atoms: C_11  and  C_12
REMARK    7  A    between atoms: N_14  and  C_15
REMARK    8  A    between atoms: C_20  and  N_21
REMARK                            x       y       z     vdW  Elec       q    Type
REMARK                         _______ _______ _______ _____ _____    ______ ____
ROOT
ATOM      1  N   UNL     1      -4.524   2.748   3.525  0.00  0.00    -0.122 NA
ATOM      2  C   UNL     1      -5.552   3.571   3.435  0.00  0.00    +0.213 C 
ATOM      3  N   UNL     1      -6.305   4.085   4.433  0.00  0.00    -0.189 NA
ATOM      4  C   UNL     1      -7.286   4.885   4.254  0.00  0.00    +0.204 C 
ATOM      5  C   UNL     1      -7.599   5.244   2.807  0.00  0.00    +0.148 C 
ATOM      6  S   UNL     1      -6.289   4.269   1.962  0.00  0.00    -0.071 S 
ENDROOT
BRANCH   1   9
ATOM      7  C   UNL     1      -2.391   1.034   3.804  0.00  0.00    +0.063 C 
ATOM      8  C   UNL     1      -2.860   1.509   2.453  0.00  0.00    +0.041 C 
ATOM      9  N   UNL     1      -3.868   2.317   2.364  0.00  0.00    -0.156 NA
BRANCH   8  10
ATOM     10  C   UNL     1      -2.154   1.045   1.205  0.00  0.00    +0.035 C 
ATOM     11  C   UNL     1      -0.721   1.580   1.200  0.00  0.00    +0.009 C 
ATOM     12  C   UNL     1      -0.005   1.109  -0.067  0.00  0.00    +0.001 C 
ATOM     13  C   UNL     1      -0.748   1.632  -1.298  0.00  0.00    +0.000 C 
ATOM     14  C   UNL     1      -2.182   1.098  -1.293  0.00  0.00    +0.001 C 
ATOM     15  C   UNL     1      -2.898   1.569  -0.026  0.00  0.00    +0.009 C 
ENDBRANCH   8  10
ENDBRANCH   1   9
BRANCH   4  16
ATOM     16  O   UNL     1      -8.003   5.375   5.281  0.00  0.00    -0.495 OA
ATOM     17  H   UNL     1      -7.741   5.099   6.170  0.00  0.00    +0.293 HD
ENDBRANCH   4  16
BRANCH   5  18
ATOM     18  C   UNL     1      -8.996   4.769   2.404  0.00  0.00    +0.120 C 
BRANCH  18  19
ATOM     19  C   UNL     1      -9.228   5.071   0.945  0.00  0.00    +0.219 C 
ATOM     20  O   UNL     1      -8.360   5.612   0.293  0.00  0.00    -0.275 OA
ATOM     21  N   UNL     1     -10.398   4.739   0.366  0.00  0.00    -0.284 N 
ATOM     22  H   UNL     1     -11.067   4.248   0.870  0.00  0.00    +0.155 HD
BRANCH  21  23
ATOM     23  C   UNL     1     -10.649   5.101  -0.962  0.00  0.00    +0.064 A 
ATOM     24  C   UNL     1      -9.615   5.108  -1.889  0.00  0.00    +0.025 A 
ATOM     25  C   UNL     1      -9.867   5.460  -3.200  0.00  0.00    +0.002 A 
ATOM     26  C   UNL     1     -11.146   5.817  -3.588  0.00  0.00    +0.002 A 
ATOM     27  C   UNL     1     -12.177   5.816  -2.667  0.00  0.00    +0.034 A 
ATOM     28  C   UNL     1     -11.932   5.459  -1.355  0.00  0.00    +0.147 A 
BRANCH  28  29
ATOM     29  N   UNL     1     -13.036   5.459  -0.369  0.00  0.00    +0.058 N 
ATOM     30  O   UNL     1     -14.178   5.676  -0.733  0.00  0.00    -0.126 OA
ATOM     31  O   UNL     1     -12.803   5.242   0.807  0.00  0.00    -0.126 OA
ENDBRANCH  28  29
ENDBRANCH  21  23
ENDBRANCH  18  19
ENDBRANCH   5  18
TORSDOF 7
