REMARK  Name = ZINC12530163
REMARK  11 active torsions:
REMARK  status: ('A' for Active; 'I' for Inactive)
REMARK    1  A    between atoms: C_1  and  C_2
REMARK    2  A    between atoms: C_3  and  C_34
REMARK    3  A    between atoms: N_4  and  C_28
REMARK    4  A    between atoms: C_5  and  S_7
REMARK    5  A    between atoms: S_7  and  C_8
REMARK    6  A    between atoms: C_8  and  C_9
REMARK    7  A    between atoms: N_11  and  N_12
REMARK    8  A    between atoms: C_15  and  C_19
REMARK    9  A    between atoms: C_15  and  C_20
REMARK   10  A    between atoms: C_20  and  C_21
REMARK   11  A    between atoms: C_21  and  C_22
REMARK                            x       y       z     vdW  Elec       q    Type
REMARK                         _______ _______ _______ _____ _____    ______ ____
ROOT
ATOM      1  C   UNL     1       1.505   2.784   6.442  0.00  0.00    +0.240 C 
ATOM      2  O   UNL     1       0.717   3.163   7.282  0.00  0.00    -0.273 OA
ATOM      3  N   UNL     1       2.812   2.667   6.748  0.00  0.00    -0.223 N 
ATOM      4  H   UNL     1       3.443   2.364   6.077  0.00  0.00    +0.174 HD
ENDROOT
BRANCH   3   5
ATOM      5  N   UNL     1       3.261   2.985   8.037  0.00  0.00    -0.137 N 
ATOM      6  C   UNL     1       3.610   2.071   8.964  0.00  0.00    +0.263 C 
ATOM      7  O   UNL     1       3.595   0.865   8.844  0.00  0.00    -0.271 OA
ATOM      8  C   UNL     1       4.025   2.865  10.187  0.00  0.00    +0.112 C 
ATOM      9  N   UNL     1       3.844   4.266   9.768  0.00  0.00    -0.284 N 
ATOM     10  C   UNL     1       3.400   4.233   8.498  0.00  0.00    +0.326 C 
ATOM     11  O   UNL     1       3.151   5.227   7.844  0.00  0.00    -0.251 OA
ATOM     12  C   UNL     1       3.118   2.537  11.374  0.00  0.00    +0.041 C 
ATOM     13  H   UNL     1       4.016   5.057  10.302  0.00  0.00    +0.151 HD
BRANCH   8  14
ATOM     14  C   UNL     1       5.488   2.589  10.537  0.00  0.00    +0.040 C 
BRANCH  14  15
ATOM     15  C   UNL     1       5.879   3.402  11.772  0.00  0.00    +0.038 C 
BRANCH  15  16
ATOM     16  C   UNL     1       7.321   3.130  12.117  0.00  0.00    -0.047 A 
ATOM     17  C   UNL     1       7.642   2.102  12.983  0.00  0.00    +0.003 A 
ATOM     18  C   UNL     1       8.965   1.849  13.296  0.00  0.00    +0.000 A 
ATOM     19  C   UNL     1       9.966   2.631  12.750  0.00  0.00    +0.000 A 
ATOM     20  C   UNL     1       9.644   3.663  11.888  0.00  0.00    +0.000 A 
ATOM     21  C   UNL     1       8.322   3.912  11.571  0.00  0.00    +0.003 A 
ENDBRANCH  15  16
ENDBRANCH  14  15
ENDBRANCH   8  14
ENDBRANCH   3   5
BRANCH   1  22
ATOM     22  C   UNL     1       1.022   2.442   5.056  0.00  0.00    +0.174 C 
BRANCH  22  23
ATOM     23  S   UNL     1      -0.766   2.699   4.959  0.00  0.00    -0.078 S 
BRANCH  23  28
ATOM     24  C   UNL     1      -0.013   1.086   0.008  0.00  0.00    +0.067 C 
ATOM     25  C   UNL     1      -0.718   1.572   1.248  0.00  0.00    +0.060 A 
ATOM     26  C   UNL     1      -2.034   1.821   1.358  0.00  0.00    +0.039 A 
ATOM     27  N   UNL     1      -2.257   2.240   2.650  0.00  0.00    -0.320 N 
ATOM     28  C   UNL     1      -1.052   2.239   3.282  0.00  0.00    +0.170 A 
ATOM     29  N   UNL     1      -0.138   1.836   2.430  0.00  0.00    -0.227 NA
ATOM     30  C   UNL     1      -3.070   1.667   0.274  0.00  0.00    +0.065 C 
BRANCH  27  31
ATOM     31  C   UNL     1      -3.546   2.622   3.232  0.00  0.00    +0.089 C 
ATOM     32  C   UNL     1      -3.481   4.074   3.708  0.00  0.00    +0.025 C 
ATOM     33  C   UNL     1      -4.827   4.473   4.316  0.00  0.00    +0.002 C 
ATOM     34  C   UNL     1      -5.140   3.561   5.504  0.00  0.00    +0.000 C 
ATOM     35  C   UNL     1      -5.205   2.108   5.029  0.00  0.00    +0.002 C 
ATOM     36  C   UNL     1      -3.859   1.710   4.420  0.00  0.00    +0.025 C 
ENDBRANCH  27  31
ENDBRANCH  23  28
ENDBRANCH  22  23
ENDBRANCH   1  22
TORSDOF 8
