REMARK  Name = ZINC35743137
REMARK  15 active torsions:
REMARK  status: ('A' for Active; 'I' for Inactive)
REMARK    1  A    between atoms: C_1  and  C_2
REMARK    2  A    between atoms: C_2  and  C_3
REMARK    3  A    between atoms: C_3  and  C_4
REMARK    4  A    between atoms: C_4  and  O_6
REMARK    5  A    between atoms: O_6  and  C_7
REMARK    6  A    between atoms: C_7  and  C_8
REMARK    7  A    between atoms: C_8  and  C_10
REMARK    8  A    between atoms: C_8  and  O_39
REMARK    9  A    between atoms: C_10  and  N_11
REMARK   10  A    between atoms: N_11  and  C_12
REMARK   11  A    between atoms: N_11  and  C_23
REMARK   12  A    between atoms: C_12  and  C_13
REMARK   13  A    between atoms: C_17  and  C_19
REMARK   14  A    between atoms: C_23  and  C_24
REMARK   15  A    between atoms: C_27  and  C_30
REMARK                            x       y       z     vdW  Elec       q    Type
REMARK                         _______ _______ _______ _____ _____    ______ ____
ROOT
ATOM      1  N   UNL     1       3.095  -6.409  -4.946  0.00  0.00    +0.387 N 
ATOM      2  H   UNL     1       3.036  -5.802  -5.750  0.00  0.00    -0.081 HD
ENDROOT
BRANCH   1   3
ATOM      3  C   UNL     1       2.004  -6.095  -4.014  0.00  0.00    -0.043 C 
BRANCH   3   4
ATOM      4  C   UNL     1       1.868  -4.577  -3.882  0.00  0.00    +0.136 C 
BRANCH   4   5
ATOM      5  O   UNL     1       2.990  -4.059  -3.164  0.00  0.00    -0.390 OA
ATOM      6  H   UNL     1       3.058  -4.380  -2.255  0.00  0.00    +0.210 HD
ENDBRANCH   4   5
BRANCH   4   7
ATOM      7  C   UNL     1       0.581  -4.245  -3.124  0.00  0.00    +0.261 C 
BRANCH   7   8
ATOM      8  O   UNL     1       0.394  -2.828  -3.102  0.00  0.00    -0.462 OA
BRANCH   8   9
ATOM      9  C   UNL     1      -0.698  -2.368  -2.470  0.00  0.00    +0.307 C 
ATOM     10  O   UNL     1      -1.469  -3.142  -1.955  0.00  0.00    -0.251 OA
BRANCH   9  11
ATOM     11  C   UNL     1      -0.962  -0.885  -2.406  0.00  0.00    +0.120 C 
BRANCH  11  13
ATOM     12  C   UNL     1      -2.527   0.874  -1.571  0.00  0.00    +0.004 C 
ATOM     13  C   UNL     1      -2.260  -0.631  -1.637  0.00  0.00    +0.008 C 
ENDBRANCH  11  13
ENDBRANCH   9  11
ENDBRANCH   8   9
ENDBRANCH   7   8
ENDBRANCH   4   7
ENDBRANCH   3   4
ENDBRANCH   1   3
BRANCH   1  14
ATOM     14  C   UNL     1       4.386  -6.208  -4.274  0.00  0.00    -0.043 C 
BRANCH  14  15
ATOM     15  C   UNL     1       4.471  -7.108  -3.069  0.00  0.00    -0.063 A 
ATOM     16  C   UNL     1       4.055  -6.648  -1.833  0.00  0.00    +0.002 A 
ATOM     17  C   UNL     1       4.132  -7.474  -0.727  0.00  0.00    +0.001 A 
ATOM     18  C   UNL     1       4.626  -8.759  -0.857  0.00  0.00    +0.012 A 
ATOM     19  C   UNL     1       5.041  -9.218  -2.092  0.00  0.00    +0.055 A 
ATOM     20  C   UNL     1       4.959  -8.394  -3.199  0.00  0.00    +0.014 A 
BRANCH  19  21
ATOM     21  C   UNL     1       5.579 -10.619  -2.234  0.00  0.00    +0.417 C 
ATOM     22  F   UNL     1       5.560 -11.254  -0.987  0.00  0.00    -0.166 F 
ATOM     23  F   UNL     1       4.784 -11.335  -3.134  0.00  0.00    -0.166 F 
ATOM     24  F   UNL     1       6.894 -10.567  -2.711  0.00  0.00    -0.166 F 
ENDBRANCH  19  21
ENDBRANCH  14  15
ENDBRANCH   1  14
BRANCH   1  25
ATOM     25  C   UNL     1       2.982  -7.808  -5.379  0.00  0.00    -0.030 C 
BRANCH  25  26
ATOM     26  C   UNL     1       3.942  -8.061  -6.543  0.00  0.00    +0.194 C 
ATOM     27  C   UNL     1       3.895  -9.543  -6.988  0.00  0.00    +0.104 C 
ATOM     28  C   UNL     1       5.346  -9.833  -7.322  0.00  0.00    +0.091 C 
ATOM     29  N   UNL     1       6.074  -8.896  -6.813  0.00  0.00    -0.089 NA
ATOM     30  O   UNL     1       5.314  -7.925  -6.120  0.00  0.00    -0.392 OA
BRANCH  28  31
ATOM     31  C   UNL     1       5.840 -10.989  -8.095  0.00  0.00    +0.003 A 
ATOM     32  C   UNL     1       4.941 -11.932  -8.596  0.00  0.00    +0.013 A 
ATOM     33  C   UNL     1       5.405 -13.011  -9.318  0.00  0.00    +0.050 A 
ATOM     34  C   UNL     1       6.765 -13.164  -9.549  0.00  0.00    +0.166 A 
ATOM     35  C   UNL     1       7.668 -12.225  -9.051  0.00  0.00    +0.167 A 
ATOM     36  C   UNL     1       7.209 -11.138  -8.332  0.00  0.00    +0.059 A 
ATOM     37  O   UNL     1       8.931 -12.601  -9.412  0.00  0.00    -0.453 OA
ATOM     38  C   UNL     1       8.827 -13.988  -9.782  0.00  0.00    +0.466 C 
ATOM     39  O   UNL     1       7.463 -14.125 -10.221  0.00  0.00    -0.453 OA
ENDBRANCH  28  31
ENDBRANCH  25  26
ENDBRANCH   1  25
TORSDOF 14
