REMARK  Name = ZINC28053275
REMARK  2 active torsions:
REMARK  status: ('A' for Active; 'I' for Inactive)
REMARK    1  A    between atoms: C_4  and  C_7
REMARK    2  A    between atoms: C_18  and  C_20
REMARK                            x       y       z     vdW  Elec       q    Type
REMARK                         _______ _______ _______ _____ _____    ______ ____
ROOT
ATOM      1  C   UNL     1      -3.343  -0.926  -0.244  0.00  0.00    +0.174 C 
ATOM      2  C   UNL     1      -2.127  -0.033  -0.250  0.00  0.00    +0.025 C 
ATOM      3  C   UNL     1      -0.916  -0.473   0.101  0.00  0.00    +0.050 C 
ATOM      4  C   UNL     1       0.217   0.481   0.073  0.00  0.00    +0.038 A 
ATOM      5  C   UNL     1       1.536   0.045   0.089  0.00  0.00    +0.013 A 
ATOM      6  C   UNL     1       2.560   0.972   0.069  0.00  0.00    +0.001 A 
ATOM      7  C   UNL     1       2.277   2.326   0.033  0.00  0.00    +0.004 A 
ATOM      8  C   UNL     1       0.966   2.769   0.015  0.00  0.00    +0.046 A 
ATOM      9  C   UNL     1      -0.069   1.853   0.034  0.00  0.00    +0.131 A 
ATOM     10  O   UNL     1      -1.367   2.246   0.009  0.00  0.00    -0.479 OA
ATOM     11  C   UNL     1      -2.290   1.407  -0.681  0.00  0.00    +0.234 C 
ATOM     12  N   UNL     1      -0.688  -1.796   0.498  0.00  0.00    -0.282 N 
ATOM     13  C   UNL     1      -1.798  -2.569   0.797  0.00  0.00    +0.240 A 
ATOM     14  N   UNL     1      -3.051  -2.167   0.459  0.00  0.00    -0.201 N 
ATOM     15  N   UNL     1      -3.901  -3.172   0.920  0.00  0.00    -0.042 NA
ATOM     16  N   UNL     1      -3.147  -4.069   1.469  0.00  0.00    -0.021 NA
ATOM     17  N   UNL     1      -1.908  -3.719   1.397  0.00  0.00    -0.092 NA
ATOM     18  H   UNL     1       0.340  -2.182   0.563  0.00  0.00    +0.155 HD
ENDROOT
BRANCH  11  19
ATOM     19  C   UNL     1      -2.041   1.513  -2.163  0.00  0.00    -0.002 A 
ATOM     20  C   UNL     1      -0.752   1.426  -2.656  0.00  0.00    +0.007 A 
ATOM     21  C   UNL     1      -0.524   1.519  -4.016  0.00  0.00    +0.002 A 
ATOM     22  C   UNL     1      -1.583   1.709  -4.883  0.00  0.00    +0.020 A 
ATOM     23  C   UNL     1      -2.872   1.801  -4.391  0.00  0.00    +0.041 A 
ATOM     24  C   UNL     1      -3.101   1.703  -3.030  0.00  0.00    +0.027 A 
ATOM     25 CL   UNL     1      -4.203   2.040  -5.480  0.00  0.00    -0.084 Cl
ENDBRANCH  11  19
BRANCH   1  29
ATOM     26  C   UNL     1      -4.469  -1.810  -4.269  0.00  0.00    +0.000 A 
ATOM     27  C   UNL     1      -5.351  -1.151  -3.434  0.00  0.00    +0.000 A 
ATOM     28  C   UNL     1      -4.987  -0.864  -2.131  0.00  0.00    +0.006 A 
ATOM     29  C   UNL     1      -3.740  -1.238  -1.664  0.00  0.00    -0.019 A 
ATOM     30  C   UNL     1      -2.856  -1.893  -2.501  0.00  0.00    +0.006 A 
ATOM     31  C   UNL     1      -3.222  -2.183  -3.802  0.00  0.00    +0.000 A 
ENDBRANCH   1  29
TORSDOF 2
