REMARK  Name = ZINC39669039
REMARK  4 active torsions:
REMARK  status: ('A' for Active; 'I' for Inactive)
REMARK    1  A    between atoms: C_10  and  C_12
REMARK    2  A    between atoms: C_12  and  N_13
REMARK    3  A    between atoms: C_14  and  C_16
REMARK    4  A    between atoms: C_27  and  C_29
REMARK                            x       y       z     vdW  Elec       q    Type
REMARK                         _______ _______ _______ _____ _____    ______ ____
ROOT
ATOM      1  C   UNL     1       7.891  -0.549  -2.171  0.00  0.00    +0.100 C 
ATOM      2  C   UNL     1       7.818  -2.085  -2.331  0.00  0.00    +0.121 C 
ATOM      3  N   UNL     1       8.203  -2.333  -3.740  0.00  0.00    -0.296 N 
ATOM      4  C   UNL     1       9.301  -1.370  -3.998  0.00  0.00    +0.115 C 
ATOM      5  C   UNL     1       8.869  -0.085  -3.264  0.00  0.00    -0.004 C 
ATOM      6  C   UNL     1      10.080   0.597  -2.635  0.00  0.00    -0.010 C 
ATOM      7  C   UNL     1      11.008   1.102  -3.743  0.00  0.00    -0.082 C 
ATOM      8  N   UNL     1      10.281   2.045  -4.601  0.00  0.00    +0.379 N 
ATOM      9  C   UNL     1       9.173   1.357  -5.275  0.00  0.00    -0.082 C 
ATOM     10  C   UNL     1       8.167   0.863  -4.232  0.00  0.00    -0.010 C 
ATOM     11  C   UNL     1       7.676  -3.232  -4.595  0.00  0.00    +0.248 C 
ATOM     12  O   UNL     1       8.166  -3.383  -5.697  0.00  0.00    -0.270 OA
ATOM     13  H   UNL     1       9.915   2.798  -4.037  0.00  0.00    -0.086 HD
ATOM     14  H   UNL     1      10.911   2.423  -5.293  0.00  0.00    -0.086 HD
ENDROOT
BRANCH  11  15
ATOM     15  C   UNL     1       6.501  -4.033  -4.192  0.00  0.00    +0.057 A 
ATOM     16  C   UNL     1       6.363  -4.459  -2.870  0.00  0.00    +0.014 A 
ATOM     17  C   UNL     1       5.264  -5.207  -2.500  0.00  0.00    +0.002 A 
ATOM     18  C   UNL     1       4.299  -5.536  -3.436  0.00  0.00    +0.021 A 
ATOM     19  C   UNL     1       4.428  -5.118  -4.749  0.00  0.00    +0.060 A 
ATOM     20  C   UNL     1       5.521  -4.363  -5.132  0.00  0.00    +0.071 A 
ATOM     21 CL   UNL     1       5.679  -3.832  -6.777  0.00  0.00    -0.081 Cl
ATOM     22 CL   UNL     1       3.213  -5.537  -5.915  0.00  0.00    -0.082 Cl
ENDBRANCH  11  15
BRANCH   1  24
ATOM     23  N   UNL     1       6.221   1.234  -1.790  0.00  0.00    -0.312 N 
ATOM     24  C   UNL     1       6.533   0.066  -2.386  0.00  0.00    +0.218 C 
ATOM     25  O   UNL     1       5.720  -0.489  -3.095  0.00  0.00    -0.275 OA
ATOM     26  H   UNL     1       6.870   1.678  -1.223  0.00  0.00    +0.149 HD
BRANCH  23  27
ATOM     27  C   UNL     1       4.900   1.833  -1.999  0.00  0.00    +0.140 C 
BRANCH  27  37
ATOM     28  C   UNL     1       0.958   4.878  -1.907  0.00  0.00    +0.000 A 
ATOM     29  C   UNL     1       1.678   4.330  -2.952  0.00  0.00    +0.000 A 
ATOM     30  C   UNL     1       2.919   3.772  -2.716  0.00  0.00    +0.006 A 
ATOM     31  C   UNL     1       3.446   3.757  -1.433  0.00  0.00    -0.014 A 
ATOM     32  C   UNL     1       2.725   4.300  -0.390  0.00  0.00    -0.040 A 
ATOM     33  C   UNL     1       1.482   4.863  -0.629  0.00  0.00    +0.004 A 
ATOM     34  C   UNL     1       3.259   4.290   1.020  0.00  0.00    +0.063 C 
ATOM     35  C   UNL     1       4.765   4.023   1.001  0.00  0.00    +0.165 C 
ATOM     36  O   UNL     1       5.014   2.883   0.171  0.00  0.00    -0.370 OA
ATOM     37  C   UNL     1       4.805   3.144  -1.217  0.00  0.00    +0.165 C 
ENDBRANCH  27  37
ENDBRANCH  23  27
ENDBRANCH   1  24
TORSDOF 4
