REMARK  Name = ZINC36624559
REMARK  11 active torsions:
REMARK  status: ('A' for Active; 'I' for Inactive)
REMARK    1  A    between atoms: C_1  and  C_2
REMARK    2  A    between atoms: C_2  and  C_4
REMARK    3  A    between atoms: C_2  and  O_29
REMARK    4  A    between atoms: N_6  and  N_7
REMARK    5  A    between atoms: C_8  and  C_10
REMARK    6  A    between atoms: C_10  and  C_12
REMARK    7  A    between atoms: C_10  and  N_16
REMARK    8  A    between atoms: C_12  and  C_13
REMARK    9  A    between atoms: C_13  and  C_14
REMARK   10  A    between atoms: C_13  and  C_15
REMARK   11  A    between atoms: O_29  and  C_30
REMARK                            x       y       z     vdW  Elec       q    Type
REMARK                         _______ _______ _______ _____ _____    ______ ____
ROOT
ATOM      1  N   UNL     1       2.224  -0.323   2.399  0.00  0.00    -0.233 N 
ATOM      2  C   UNL     1       3.548  -0.074   2.440  0.00  0.00    +0.250 C 
ATOM      3  O   UNL     1       4.070   0.575   1.558  0.00  0.00    -0.272 OA
ATOM      4  H   UNL     1       1.806  -0.842   3.104  0.00  0.00    +0.173 HD
ENDROOT
BRANCH   1   7
ATOM      5  C   UNL     1       0.127  -0.079   1.299  0.00  0.00    +0.270 C 
ATOM      6  O   UNL     1      -0.396  -0.729   2.180  0.00  0.00    -0.270 OA
ATOM      7  N   UNL     1       1.450   0.169   1.339  0.00  0.00    -0.231 N 
ATOM      8  H   UNL     1       1.868   0.688   0.634  0.00  0.00    +0.173 HD
BRANCH   5  10
ATOM      9  C   UNL     1      -0.715   1.979   0.202  0.00  0.00    +0.062 C 
ATOM     10  C   UNL     1      -0.705   0.450   0.159  0.00  0.00    +0.257 C 
BRANCH  10  11
ATOM     11  O   UNL     1      -2.042  -0.039   0.278  0.00  0.00    -0.480 OA
BRANCH  11  12
ATOM     12  C   UNL     1      -2.788  -0.080  -0.858  0.00  0.00    +0.122 A 
ATOM     13  C   UNL     1      -2.205   0.275  -2.078  0.00  0.00    +0.046 A 
ATOM     14  C   UNL     1      -2.925   0.244  -3.232  0.00  0.00    +0.012 A 
ATOM     15  C   UNL     1      -4.274  -0.150  -3.201  0.00  0.00    -0.018 A 
ATOM     16  C   UNL     1      -5.047  -0.194  -4.374  0.00  0.00    +0.008 A 
ATOM     17  C   UNL     1      -6.351  -0.581  -4.308  0.00  0.00    +0.001 A 
ATOM     18  C   UNL     1      -6.933  -0.936  -3.092  0.00  0.00    +0.001 A 
ATOM     19  C   UNL     1      -6.216  -0.906  -1.936  0.00  0.00    +0.008 A 
ATOM     20  C   UNL     1      -4.867  -0.511  -1.965  0.00  0.00    -0.014 A 
ATOM     21  C   UNL     1      -4.094  -0.473  -0.792  0.00  0.00    +0.054 A 
ENDBRANCH  11  12
ENDBRANCH  10  11
ENDBRANCH   5  10
ENDBRANCH   1   7
BRANCH   2  22
ATOM     22  C   UNL     1       4.379  -0.603   3.580  0.00  0.00    +0.171 C 
BRANCH  22  23
ATOM     23  N   UNL     1       5.775  -0.201   3.393  0.00  0.00    -0.230 N 
ATOM     24  C   UNL     1       6.409   0.658   4.216  0.00  0.00    +0.227 C 
ATOM     25  O   UNL     1       6.013   1.046   5.294  0.00  0.00    -0.275 OA
ATOM     26  C   UNL     1       7.728   1.054   3.532  0.00  0.00    +0.091 C 
ATOM     27  C   UNL     1       7.371   2.262   2.663  0.00  0.00    +0.040 C 
ATOM     28  C   UNL     1       8.135   2.318   1.386  0.00  0.00    -0.030 C 
ATOM     29  C   UNL     1       8.767   1.322   0.859  0.00  0.00    -0.030 C 
ATOM     30  C   UNL     1       8.853  -0.027   1.500  0.00  0.00    +0.040 C 
ATOM     31  C   UNL     1       7.947  -0.209   2.683  0.00  0.00    +0.091 C 
ATOM     32  C   UNL     1       6.548  -0.662   2.384  0.00  0.00    +0.227 C 
ATOM     33  O   UNL     1       6.182  -1.310   1.427  0.00  0.00    -0.275 OA
ENDBRANCH  22  23
BRANCH  22  34
ATOM     34  C   UNL     1       4.288  -2.130   3.612  0.00  0.00    +0.035 C 
BRANCH  34  35
ATOM     35  C   UNL     1       4.980  -2.656   4.871  0.00  0.00    -0.015 C 
ATOM     36  C   UNL     1       4.720  -4.157   5.007  0.00  0.00    +0.007 C 
ATOM     37  C   UNL     1       6.486  -2.407   4.768  0.00  0.00    +0.007 C 
ENDBRANCH  34  35
ENDBRANCH  22  34
ENDBRANCH   2  22
TORSDOF 8
