REMARK  Name = ZINC57850672
REMARK  7 active torsions:
REMARK  status: ('A' for Active; 'I' for Inactive)
REMARK    1  A    between atoms: C_1  and  C_2
REMARK    2  A    between atoms: C_7  and  C_8
REMARK    3  A    between atoms: N_9  and  C_21
REMARK    4  A    between atoms: C_10  and  C_12
REMARK    5  A    between atoms: C_15  and  N_18
REMARK    6  A    between atoms: C_21  and  C_22
REMARK    7  A    between atoms: C_22  and  O_23
REMARK                            x       y       z     vdW  Elec       q    Type
REMARK                         _______ _______ _______ _____ _____    ______ ____
ROOT
ATOM      1  C   UNL     1      -0.032   1.418   0.328  0.00  0.00    +0.044 C 
ATOM      2  C   UNL     1       0.003  -0.084   0.217  0.00  0.00    -0.045 A 
ATOM      3  C   UNL     1      -0.021  -0.672  -1.016  0.00  0.00    +0.033 A 
ATOM      4  C   UNL     1       0.011  -2.066  -1.124  0.00  0.00    +0.090 A 
ATOM      5  C   UNL     1       0.068  -2.849   0.043  0.00  0.00    +0.069 A 
ATOM      6  C   UNL     1       0.092  -2.233   1.286  0.00  0.00    +0.031 A 
ATOM      7  C   UNL     1       0.064  -0.856   1.368  0.00  0.00    -0.045 A 
ATOM      8  C   UNL     1       0.097  -0.186   2.718  0.00  0.00    +0.044 C 
ATOM      9  N   UNL     1       0.088  -4.164  -0.376  0.00  0.00    -0.321 N 
ATOM     10  C   UNL     1       0.044  -4.154  -1.744  0.00  0.00    +0.142 A 
ATOM     11  N   UNL     1      -0.001  -2.918  -2.178  0.00  0.00    -0.228 NA
ENDROOT
BRANCH  10  12
ATOM     12  C   UNL     1       0.047  -5.358  -2.604  0.00  0.00    +0.018 A 
ATOM     13  C   UNL     1       0.447  -5.265  -3.938  0.00  0.00    +0.014 A 
ATOM     14  C   UNL     1       0.448  -6.391  -4.735  0.00  0.00    +0.033 A 
ATOM     15  C   UNL     1       0.053  -7.611  -4.214  0.00  0.00    +0.126 A 
ATOM     16  C   UNL     1      -0.345  -7.709  -2.893  0.00  0.00    +0.033 A 
ATOM     17  C   UNL     1      -0.345  -6.591  -2.084  0.00  0.00    +0.014 A 
BRANCH  15  18
ATOM     18  N   UNL     1       0.057  -8.815  -5.075  0.00  0.00    +0.056 N 
ATOM     19  O   UNL     1       0.404  -8.732  -6.230  0.00  0.00    -0.126 OA
ATOM     20  O   UNL     1      -0.288  -9.882  -4.622  0.00  0.00    -0.126 OA
ENDBRANCH  15  18
ENDBRANCH  10  12
BRANCH   9  21
ATOM     21  C   UNL     1       0.146  -5.349   0.483  0.00  0.00    +0.151 C 
BRANCH  21  22
ATOM     22  C   UNL     1      -1.270  -5.733   0.919  0.00  0.00    +0.177 C 
BRANCH  22  23
ATOM     23  O   UNL     1      -1.213  -6.889   1.757  0.00  0.00    -0.393 OA
ATOM     24  H   UNL     1      -2.077  -7.189   2.072  0.00  0.00    +0.209 HD
ENDBRANCH  22  23
ENDBRANCH  21  22
ENDBRANCH   9  21
TORSDOF 5
