REMARK  Name = ZINC09874888
REMARK  8 active torsions:
REMARK  status: ('A' for Active; 'I' for Inactive)
REMARK    1  A    between atoms: C_1  and  C_2
REMARK    2  A    between atoms: C_5  and  S_8
REMARK    3  A    between atoms: S_8  and  N_11
REMARK    4  A    between atoms: N_11  and  C_12
REMARK    5  A    between atoms: N_11  and  C_13
REMARK    6  A    between atoms: C_16  and  C_19
REMARK    7  A    between atoms: N_21  and  C_22
REMARK    8  A    between atoms: C_27  and  C_28
REMARK                            x       y       z     vdW  Elec       q    Type
REMARK                         _______ _______ _______ _____ _____    ______ ____
ROOT
ATOM      1  C   UNL     1       2.565  -0.124   0.265  0.00  0.00    +0.051 A 
ATOM      2  C   UNL     1       1.422  -0.917   0.225  0.00  0.00    +0.025 A 
ATOM      3  C   UNL     1       0.176  -0.333   0.250  0.00  0.00    +0.015 A 
ATOM      4  C   UNL     1       0.059   1.058   0.315  0.00  0.00    +0.037 A 
ATOM      5  C   UNL     1       1.209   1.852   0.355  0.00  0.00    +0.015 A 
ATOM      6  C   UNL     1       2.452   1.262   0.330  0.00  0.00    +0.025 A 
ENDROOT
BRANCH   4   7
ATOM      7  C   UNL     1      -1.275   1.688   0.336  0.00  0.00    +0.248 C 
ATOM      8  O   UNL     1      -2.274   0.996   0.296  0.00  0.00    -0.270 OA
ATOM      9  N   UNL     1      -1.386   3.029   0.399  0.00  0.00    -0.281 N 
ATOM     10  H   UNL     1      -0.592   3.578   0.501  0.00  0.00    +0.155 HD
BRANCH   9  11
ATOM     11  C   UNL     1      -2.641   3.629   0.318  0.00  0.00    +0.052 A 
ATOM     12  C   UNL     1      -3.742   3.018   0.899  0.00  0.00    +0.073 A 
ATOM     13  C   UNL     1      -4.987   3.619   0.819  0.00  0.00    +0.164 A 
ATOM     14  C   UNL     1      -5.143   4.830   0.149  0.00  0.00    +0.163 A 
ATOM     15  C   UNL     1      -4.059   5.447  -0.437  0.00  0.00    +0.066 A 
ATOM     16  C   UNL     1      -2.794   4.850  -0.358  0.00  0.00    +0.088 A 
ATOM     17  O   UNL     1      -6.380   5.405   0.076  0.00  0.00    -0.488 OA
ATOM     18  C   UNL     1      -6.915   5.896   1.306  0.00  0.00    +0.232 C 
ATOM     19  C   UNL     1      -7.603   4.780   2.079  0.00  0.00    +0.082 C 
ATOM     20  C   UNL     1      -6.630   3.699   2.522  0.00  0.00    +0.232 C 
ATOM     21  O   UNL     1      -6.071   3.025   1.393  0.00  0.00    -0.488 OA
BRANCH  16  22
ATOM     22  C   UNL     1      -1.631   5.501  -0.981  0.00  0.00    +0.388 C 
ATOM     23  O   UNL     1      -0.560   4.926  -1.017  0.00  0.00    -0.241 OA
ATOM     24  O   UNL     1      -1.752   6.734  -1.511  0.00  0.00    -0.241 OA
ENDBRANCH  16  22
ENDBRANCH   9  11
ENDBRANCH   4   7
BRANCH   1  25
ATOM     25  N   UNL     1       3.822  -0.717   0.239  0.00  0.00    -0.206 N 
ATOM     26  C   UNL     1       3.999  -2.082   0.741  0.00  0.00    +0.157 C 
BRANCH  25  27
ATOM     27  S   UNL     1       5.121   0.120  -0.358  0.00  0.00    +0.074 S 
ATOM     28  O   UNL     1       6.017  -0.846  -0.889  0.00  0.00    -0.150 OA
ATOM     29  O   UNL     1       4.594   1.182  -1.142  0.00  0.00    -0.150 OA
BRANCH  27  34
ATOM     30  C   UNL     1       7.917   2.669   4.342  0.00  0.00    +0.044 C 
ATOM     31  C   UNL     1       7.219   2.032   3.168  0.00  0.00    -0.050 A 
ATOM     32  C   UNL     1       7.596   0.773   2.738  0.00  0.00    +0.005 A 
ATOM     33  C   UNL     1       6.956   0.190   1.661  0.00  0.00    +0.029 A 
ATOM     34  C   UNL     1       5.937   0.864   1.015  0.00  0.00    +0.109 A 
ATOM     35  C   UNL     1       5.563   2.125   1.441  0.00  0.00    +0.029 A 
ATOM     36  C   UNL     1       6.201   2.707   2.521  0.00  0.00    +0.005 A 
ENDBRANCH  27  34
ENDBRANCH  25  27
ENDBRANCH   1  25
TORSDOF 6
