REMARK  Name = ZINC24986086
REMARK  10 active torsions:
REMARK  status: ('A' for Active; 'I' for Inactive)
REMARK    1  A    between atoms: C_1  and  O_2
REMARK    2  A    between atoms: O_2  and  C_3
REMARK    3  A    between atoms: C_6  and  C_9
REMARK    4  A    between atoms: C_9  and  C_10
REMARK    5  A    between atoms: N_12  and  C_13
REMARK    6  A    between atoms: C_13  and  C_15
REMARK    7  A    between atoms: C_13  and  C_19
REMARK    8  A    between atoms: C_15  and  C_16
REMARK    9  A    between atoms: C_16  and  S_17
REMARK   10  A    between atoms: S_17  and  C_18
REMARK                            x       y       z     vdW  Elec       q    Type
REMARK                         _______ _______ _______ _____ _____    ______ ____
ROOT
ATOM      1  C   UNL     1       1.359  -4.848   8.521  0.00  0.00    +0.236 C 
ATOM      2  O   UNL     1       2.531  -5.064   8.745  0.00  0.00    -0.274 OA
ATOM      3  N   UNL     1       0.412  -5.644   9.057  0.00  0.00    -0.300 N 
ATOM      4  C   UNL     1      -1.003  -5.463   8.709  0.00  0.00    +0.110 C 
ATOM      5  C   UNL     1      -1.812  -5.307  10.000  0.00  0.00    +0.047 C 
ATOM      6  C   UNL     1      -1.537  -6.499  10.917  0.00  0.00    +0.064 C 
ATOM      7  C   UNL     1      -0.052  -6.542  11.278  0.00  0.00    +0.047 C 
ATOM      8  C   UNL     1       0.777  -6.713   9.996  0.00  0.00    +0.110 C 
ATOM      9  C   UNL     1      -2.363  -6.379  12.170  0.00  0.00    +0.057 A 
ATOM     10  C   UNL     1      -3.484  -7.099  12.401  0.00  0.00    +0.039 A 
ATOM     11  N   UNL     1      -3.961  -6.749  13.595  0.00  0.00    -0.349 N 
ATOM     12  C   UNL     1      -3.181  -5.837  14.117  0.00  0.00    +0.171 A 
ATOM     13  N   UNL     1      -2.171  -5.581  13.253  0.00  0.00    -0.348 N 
ATOM     14  H   UNL     1      -1.448  -4.947  13.383  0.00  0.00    +0.166 HD
ATOM     15  C   UNL     1      -4.033  -8.104  11.418  0.00  0.00    +0.070 C 
ATOM     16  C   UNL     1      -3.368  -7.846  10.058  0.00  0.00    +0.088 C 
ATOM     17  N   UNL     1      -1.912  -7.745  10.230  0.00  0.00    -0.305 NA
ATOM     18  H   UNL     1      -1.437  -7.827   9.343  0.00  0.00    +0.123 HD
ATOM     19  H   UNL     1      -4.759  -7.112  14.011  0.00  0.00    +0.166 HD
ENDROOT
BRANCH   1  20
ATOM     20  C   UNL     1       0.961  -3.689   7.644  0.00  0.00    +0.160 C 
BRANCH  20  23
ATOM     21  C   UNL     1       1.835  -2.724   5.584  0.00  0.00    +0.218 C 
ATOM     22  O   UNL     1       0.697  -2.455   5.262  0.00  0.00    -0.275 OA
ATOM     23  N   UNL     1       2.075  -3.343   6.758  0.00  0.00    -0.304 N 
ATOM     24  H   UNL     1       2.985  -3.558   7.015  0.00  0.00    +0.149 HD
BRANCH  21  25
ATOM     25  C   UNL     1       2.981  -2.368   4.673  0.00  0.00    +0.130 C 
BRANCH  25  29
ATOM     26  C   UNL     1       1.469  -0.447   1.168  0.00  0.00    +0.120 A 
ATOM     27  C   UNL     1       1.814   0.308   2.280  0.00  0.00    +0.046 A 
ATOM     28  C   UNL     1       2.302  -0.316   3.412  0.00  0.00    +0.007 A 
ATOM     29  C   UNL     1       2.448  -1.690   3.437  0.00  0.00    -0.038 A 
ATOM     30  C   UNL     1       2.105  -2.445   2.330  0.00  0.00    +0.007 A 
ATOM     31  C   UNL     1       1.610  -1.827   1.198  0.00  0.00    +0.046 A 
BRANCH  26  33
ATOM     32  C   UNL     1       0.869   1.588   0.094  0.00  0.00    +0.277 C 
ATOM     33  O   UNL     1       0.988   0.164   0.053  0.00  0.00    -0.495 OA
ENDBRANCH  26  33
ENDBRANCH  25  29
ENDBRANCH  21  25
ENDBRANCH  20  23
BRANCH  20  34
ATOM     34  C   UNL     1       0.611  -2.484   8.518  0.00  0.00    +0.042 C 
BRANCH  34  35
ATOM     35  C   UNL     1       0.064  -1.358   7.639  0.00  0.00    +0.071 C 
BRANCH  35  36
ATOM     36  S   UNL     1      -0.352   0.071   8.676  0.00  0.00    -0.164 S 
ATOM     37  C   UNL     1      -0.978   1.301   7.498  0.00  0.00    +0.084 C 
ENDBRANCH  35  36
ENDBRANCH  34  35
ENDBRANCH  20  34
ENDBRANCH   1  20
TORSDOF 8
