REMARK  Name = ZINC11865710
REMARK  11 active torsions:
REMARK  status: ('A' for Active; 'I' for Inactive)
REMARK    1  A    between atoms: C_1  and  C_2
REMARK    2  A    between atoms: C_2  and  C_3
REMARK    3  A    between atoms: C_3  and  C_4
REMARK    4  A    between atoms: C_4  and  CA_5
REMARK    5  A    between atoms: CA_5  and  C_7
REMARK    6  A    between atoms: CA_5  and  N_9
REMARK    7  A    between atoms: C_10  and  C_12
REMARK    8  A    between atoms: C_12  and  O_13
REMARK    9  A    between atoms: O_13  and  C_14
REMARK   10  A    between atoms: C_21  and  C_36
REMARK   11  A    between atoms: C_22  and  C_25
REMARK                            x       y       z     vdW  Elec       q    Type
REMARK                         _______ _______ _______ _____ _____    ______ ____
ROOT
ATOM      1  C   UNL     1      -6.978  -1.209  -0.802  0.00  0.00    +0.125 A 
ATOM      2  C   UNL     1      -6.752  -0.443  -1.944  0.00  0.00    +0.046 A 
ATOM      3  C   UNL     1      -5.612   0.299  -2.062  0.00  0.00    +0.019 A 
ATOM      4  C   UNL     1      -4.670   0.289  -1.032  0.00  0.00    +0.065 A 
ATOM      5  C   UNL     1      -4.888  -0.480   0.124  0.00  0.00    +0.142 A 
ATOM      6  C   UNL     1      -6.053  -1.229   0.228  0.00  0.00    +0.092 A 
ATOM      7  O   UNL     1      -3.978  -0.488   1.117  0.00  0.00    -0.459 OA
ATOM      8  C   UNL     1      -2.840   0.211   1.075  0.00  0.00    +0.114 A 
ATOM      9  C   UNL     1      -2.504   0.996   0.019  0.00  0.00    +0.067 A 
ATOM     10  C   UNL     1      -3.431   1.083  -1.122  0.00  0.00    +0.200 A 
ATOM     11  O   UNL     1      -3.184   1.774  -2.095  0.00  0.00    -0.286 OA
ATOM     12  C   UNL     1      -1.895   0.127   2.245  0.00  0.00    +0.087 C 
ENDROOT
BRANCH   9  13
ATOM     13  C   UNL     1      -1.229   1.755   0.017  0.00  0.00    -0.007 A 
ATOM     14  C   UNL     1      -0.013   1.076   0.008  0.00  0.00    +0.012 A 
ATOM     15  C   UNL     1       1.175   1.782   0.000  0.00  0.00    +0.050 A 
ATOM     16  C   UNL     1       1.154   3.167   0.008  0.00  0.00    +0.162 A 
ATOM     17  C   UNL     1      -0.056   3.849   0.023  0.00  0.00    +0.162 A 
ATOM     18  C   UNL     1      -1.248   3.150   0.030  0.00  0.00    +0.058 A 
ATOM     19  O   UNL     1      -0.060   5.214   0.031  0.00  0.00    -0.488 OA
ATOM     20  C   UNL     1       0.402   5.848  -1.163  0.00  0.00    +0.232 C 
ATOM     21  C   UNL     1       1.918   5.965  -1.159  0.00  0.00    +0.082 C 
ATOM     22  C   UNL     1       2.603   4.607  -1.190  0.00  0.00    +0.232 C 
ATOM     23  O   UNL     1       2.324   3.871   0.002  0.00  0.00    -0.488 OA
ENDBRANCH   9  13
BRANCH   1  24
ATOM     24  O   UNL     1      -8.116  -1.942  -0.699  0.00  0.00    -0.483 OA
BRANCH  24  25
ATOM     25  C   UNL     1      -9.031  -1.879  -1.795  0.00  0.00    +0.324 C 
BRANCH  25  27
ATOM     26  N   UNL     1     -11.225  -2.846  -2.402  0.00  0.00    -0.299 N 
ATOM     27  C   UNL     1     -10.225  -2.750  -1.503  0.00  0.00    +0.251 C 
ATOM     28  O   UNL     1     -10.288  -3.364  -0.459  0.00  0.00    -0.272 OA
ATOM     29  H   UNL     1     -11.175  -2.355  -3.237  0.00  0.00    +0.150 HD
BRANCH  26  30
ATOM     30  CA  UNL     1     -12.386  -3.692  -2.118  0.00  0.00    +0.186 C 
BRANCH  30  31
ATOM     31  C   UNL     1     -13.388  -2.914  -1.304  0.00  0.00    +0.376 C 
ATOM     32  O   UNL     1     -13.155  -1.770  -0.993  0.00  0.00    -0.244 OA
ATOM     33  OXT UNL     1     -14.538  -3.493  -0.925  0.00  0.00    -0.244 OA
ENDBRANCH  30  31
BRANCH  30  34
ATOM     34  C   UNL     1     -13.030  -4.133  -3.434  0.00  0.00    +0.034 C 
BRANCH  34  35
ATOM     35  C   UNL     1     -12.057  -5.026  -4.205  0.00  0.00    +0.002 C 
BRANCH  35  37
ATOM     36  C   UNL     1     -11.727  -6.360  -6.292  0.00  0.00    +0.004 C 
ATOM     37  C   UNL     1     -12.701  -5.466  -5.521  0.00  0.00    -0.003 C 
ENDBRANCH  35  37
ENDBRANCH  34  35
ENDBRANCH  30  34
ENDBRANCH  26  30
ENDBRANCH  25  27
ENDBRANCH  24  25
ENDBRANCH   1  24
TORSDOF 9
