REMARK  Name = ZINC55843961
REMARK  6 active torsions:
REMARK  status: ('A' for Active; 'I' for Inactive)
REMARK    1  A    between atoms: C_3  and  N_20
REMARK    2  A    between atoms: C_6  and  N_7
REMARK    3  A    between atoms: N_7  and  C_8
REMARK    4  A    between atoms: C_8  and  C_9
REMARK    5  A    between atoms: N_14  and  C_15
REMARK    6  A    between atoms: C_15  and  C_16
REMARK                            x       y       z     vdW  Elec       q    Type
REMARK                         _______ _______ _______ _____ _____    ______ ____
ROOT
ATOM      1  C   UNL     1      -1.178  -2.184   0.002  0.00  0.00    +0.198 C 
ENDROOT
BRANCH   1   2
ATOM      2  C   UNL     1      -2.592  -2.706   0.013  0.00  0.00    +0.237 C 
ATOM      3  O   UNL     1      -3.524  -1.931   0.027  0.00  0.00    -0.274 OA
ATOM      4  N   UNL     1      -2.820  -4.034   0.008  0.00  0.00    -0.239 N 
ATOM      5  C   UNL     1      -4.084  -4.501   0.018  0.00  0.00    +0.306 C 
ATOM      6  O   UNL     1      -5.019  -3.724   0.032  0.00  0.00    -0.252 OA
ATOM      7  N   UNL     1      -4.312  -5.829   0.014  0.00  0.00    -0.291 N 
ATOM      8  H   UNL     1      -2.074  -4.654  -0.002  0.00  0.00    +0.159 HD
ATOM      9  H   UNL     1      -3.567  -6.449   0.003  0.00  0.00    +0.151 HD
BRANCH   7  10
ATOM     10  C   UNL     1      -5.687  -6.337   0.025  0.00  0.00    +0.219 C 
BRANCH  10  11
ATOM     11  C   UNL     1      -5.666  -7.866   0.016  0.00  0.00    +0.405 C 
ATOM     12  F   UNL     1      -4.989  -8.330   1.149  0.00  0.00    -0.169 F 
ATOM     13  F   UNL     1      -6.978  -8.351   0.027  0.00  0.00    -0.169 F 
ATOM     14  F   UNL     1      -5.011  -8.318  -1.135  0.00  0.00    -0.169 F 
ENDBRANCH  10  11
ENDBRANCH   7  10
ENDBRANCH   1   2
BRANCH   1  15
ATOM     15  N   UNL     1      -1.198  -0.719   0.010  0.00  0.00    -0.335 N 
ATOM     16  H   UNL     1      -2.045  -0.246   0.021  0.00  0.00    +0.147 HD
BRANCH  15  22
ATOM     17  C   UNL     1      -0.017   1.385   0.010  0.00  0.00    +0.025 A 
ATOM     18  C   UNL     1       1.169   2.091   0.002  0.00  0.00    +0.031 A 
ATOM     19  C   UNL     1       2.381   1.413  -0.013  0.00  0.00    +0.086 A 
ATOM     20  C   UNL     1       2.400   0.025  -0.021  0.00  0.00    +0.031 A 
ATOM     21  C   UNL     1       1.215  -0.682  -0.014  0.00  0.00    +0.025 A 
ATOM     22  C   UNL     1       0.002  -0.004   0.002  0.00  0.00    +0.028 A 
BRANCH  19  23
ATOM     23  N   UNL     1       3.586   2.131  -0.022  0.00  0.00    -0.150 N 
ATOM     24  N   UNL     1       3.672   3.414  -0.011  0.00  0.00    -0.156 NA
ATOM     25  C   UNL     1       4.942   3.752  -0.024  0.00  0.00    +0.156 A 
ATOM     26  C   UNL     1       5.657   2.552  -0.044  0.00  0.00    +0.156 A 
ATOM     27  N   UNL     1       4.755   1.596  -0.037  0.00  0.00    -0.156 NA
ENDBRANCH  19  23
ENDBRANCH  15  22
ENDBRANCH   1  15
TORSDOF 6
