REMARK  Name = ZINC18826214
REMARK  9 active torsions:
REMARK  status: ('A' for Active; 'I' for Inactive)
REMARK    1  A    between atoms: C_1  and  C_2
REMARK    2  A    between atoms: C_5  and  C_8
REMARK    3  A    between atoms: N_11  and  C_13
REMARK    4  A    between atoms: C_13  and  C_14
REMARK    5  A    between atoms: C_14  and  O_16
REMARK    6  A    between atoms: O_16  and  C_17
REMARK    7  A    between atoms: C_17  and  C_19
REMARK    8  A    between atoms: C_17  and  C_20
REMARK    9  A    between atoms: N_22  and  C_23
REMARK                            x       y       z     vdW  Elec       q    Type
REMARK                         _______ _______ _______ _____ _____    ______ ____
ROOT
ATOM      1  C   UNL     1       4.018  -5.932   0.255  0.00  0.00    +0.331 C 
ATOM      2  O   UNL     1       3.095  -6.586   0.679  0.00  0.00    -0.249 OA
ENDROOT
BRANCH   1   3
ATOM      3  C   UNL     1       5.417  -6.489   0.296  0.00  0.00    +0.288 C 
BRANCH   3   7
ATOM      4  C   UNL     1       5.447  -9.395   2.297  0.00  0.00    +0.205 A 
ATOM      5  N   UNL     1       5.269  -9.914   1.074  0.00  0.00    -0.108 NA
ATOM      6  N   UNL     1       5.241  -8.929   0.241  0.00  0.00    -0.045 NA
ATOM      7  N   UNL     1       5.393  -7.828   0.891  0.00  0.00    -0.152 N 
ATOM      8  N   UNL     1       5.525  -8.088   2.146  0.00  0.00    -0.130 NA
BRANCH   4  13
ATOM      9  C   UNL     1       5.822 -12.314   7.249  0.00  0.00    +0.044 C 
ATOM     10  C   UNL     1       5.724 -11.551   5.953  0.00  0.00    -0.050 A 
ATOM     11  C   UNL     1       5.538 -12.232   4.764  0.00  0.00    +0.004 A 
ATOM     12  C   UNL     1       5.447 -11.537   3.575  0.00  0.00    +0.012 A 
ATOM     13  C   UNL     1       5.543 -10.148   3.574  0.00  0.00    +0.023 A 
ATOM     14  C   UNL     1       5.736  -9.467   4.774  0.00  0.00    +0.012 A 
ATOM     15  C   UNL     1       5.820 -10.171   5.958  0.00  0.00    +0.004 A 
ENDBRANCH   4  13
ENDBRANCH   3   7
ENDBRANCH   1   3
BRANCH   1  16
ATOM     16  O   UNL     1       3.797  -4.709  -0.253  0.00  0.00    -0.451 OA
BRANCH  16  17
ATOM     17  C   UNL     1       2.424  -4.237  -0.260  0.00  0.00    +0.259 C 
ATOM     18  C   UNL     1       1.750  -4.649  -1.570  0.00  0.00    +0.062 C 
BRANCH  17  19
ATOM     19  C   UNL     1       2.409  -2.735  -0.138  0.00  0.00    +0.258 C 
ATOM     20  O   UNL     1       3.451  -2.116  -0.144  0.00  0.00    -0.271 OA
ATOM     21  N   UNL     1       1.237  -2.080  -0.021  0.00  0.00    -0.282 N 
ATOM     22  H   UNL     1       0.409  -2.579   0.061  0.00  0.00    +0.155 HD
BRANCH  21  23
ATOM     23  C   UNL     1       1.214  -0.681  -0.019  0.00  0.00    +0.034 A 
ATOM     24  C   UNL     1       2.138   0.031  -0.773  0.00  0.00    +0.024 A 
ATOM     25  C   UNL     1       2.113   1.412  -0.769  0.00  0.00    +0.017 A 
ATOM     26  C   UNL     1       1.170   2.086  -0.014  0.00  0.00    +0.018 A 
ATOM     27  C   UNL     1       0.249   1.379   0.739  0.00  0.00    +0.017 A 
ATOM     28  C   UNL     1       0.269  -0.001   0.738  0.00  0.00    +0.024 A 
ATOM     29 BR   UNL     1       1.140   3.977  -0.010  0.00  0.00    -0.050 Br
ENDBRANCH  21  23
ENDBRANCH  17  19
ENDBRANCH  16  17
ENDBRANCH   1  16
TORSDOF 7
