REMARK  Name = ZINC03626002
REMARK  5 active torsions:
REMARK  status: ('A' for Active; 'I' for Inactive)
REMARK    1  A    between atoms: C_4  and  N_7
REMARK    2  A    between atoms: N_7  and  C_17
REMARK    3  A    between atoms: C_8  and  C_10
REMARK    4  A    between atoms: C_17  and  C_23
REMARK    5  A    between atoms: N_25  and  C_26
REMARK                            x       y       z     vdW  Elec       q    Type
REMARK                         _______ _______ _______ _____ _____    ______ ____
ROOT
ATOM      1  N   UNL     1      -3.514   2.806   2.583  0.00  0.00    -0.255 N 
ATOM      2  C   UNL     1      -4.026   1.562   2.501  0.00  0.00    +0.241 C 
ATOM      3  O   UNL     1      -5.154   1.343   2.891  0.00  0.00    -0.273 OA
ENDROOT
BRANCH   2   4
ATOM      4  C   UNL     1      -3.197   0.443   1.926  0.00  0.00    +0.160 C 
ATOM      5  C   UNL     1      -3.357   0.395   0.387  0.00  0.00    +0.041 C 
ATOM      6  C   UNL     1      -3.302  -1.126   0.115  0.00  0.00    +0.098 C 
ATOM      7  C   UNL     1      -3.750  -1.755   1.416  0.00  0.00    +0.214 C 
ATOM      8  O   UNL     1      -4.114  -2.905   1.542  0.00  0.00    -0.276 OA
ATOM      9  N   UNL     1      -3.686  -0.853   2.411  0.00  0.00    -0.304 N 
ATOM     10  H   UNL     1      -3.932  -1.036   3.331  0.00  0.00    +0.149 HD
ENDBRANCH   2   4
BRANCH   1  14
ATOM     11  C   UNL     1       0.240   3.624   0.975  0.00  0.00    +0.000 A 
ATOM     12  C   UNL     1       0.117   2.716   2.010  0.00  0.00    +0.002 A 
ATOM     13  C   UNL     1      -1.127   2.442   2.545  0.00  0.00    +0.023 A 
ATOM     14  C   UNL     1      -2.253   3.081   2.043  0.00  0.00    +0.037 A 
ATOM     15  C   UNL     1      -2.126   3.988   1.000  0.00  0.00    +0.023 A 
ATOM     16  C   UNL     1      -0.879   4.262   0.473  0.00  0.00    +0.002 A 
ENDBRANCH   1  14
BRANCH   1  17
ATOM     17  C   UNL     1      -4.279   3.870   3.238  0.00  0.00    +0.118 C 
ATOM     18  C   UNL     1      -3.395   5.109   3.396  0.00  0.00    +0.036 C 
ATOM     19  C   UNL     1      -2.174   4.760   4.249  0.00  0.00    +0.003 C 
ATOM     20  C   UNL     1      -2.635   4.282   5.628  0.00  0.00    +0.000 C 
ATOM     21  C   UNL     1      -3.518   3.043   5.470  0.00  0.00    +0.003 C 
ATOM     22  C   UNL     1      -4.739   3.393   4.617  0.00  0.00    +0.036 C 
BRANCH  17  23
ATOM     23  C   UNL     1      -5.481   4.215   2.398  0.00  0.00    +0.237 C 
ATOM     24  O   UNL     1      -6.515   4.558   2.931  0.00  0.00    -0.273 OA
ATOM     25  N   UNL     1      -5.408   4.142   1.054  0.00  0.00    -0.311 N 
ATOM     26  H   UNL     1      -4.607   3.797   0.630  0.00  0.00    +0.149 HD
BRANCH  25  27
ATOM     27  C   UNL     1      -6.539   4.583   0.234  0.00  0.00    +0.073 C 
ATOM     28  C   UNL     1      -7.528   3.418   0.026  0.00  0.00    +0.022 C 
ATOM     29  C   UNL     1      -8.028   3.599  -1.429  0.00  0.00    +0.002 C 
ATOM     30  C   UNL     1      -6.753   4.068  -2.173  0.00  0.00    +0.002 C 
ATOM     31  C   UNL     1      -6.046   4.997  -1.164  0.00  0.00    +0.022 C 
ENDBRANCH  25  27
ENDBRANCH  17  23
ENDBRANCH   1  17
TORSDOF 5
