REMARK  Name = ZINC46791333
REMARK  5 active torsions:
REMARK  status: ('A' for Active; 'I' for Inactive)
REMARK    1  A    between atoms: C_1  and  C_2
REMARK    2  A    between atoms: C_7  and  C_10
REMARK    3  A    between atoms: C_14  and  C_17
REMARK    4  A    between atoms: C_17  and  N_18
REMARK    5  A    between atoms: C_19  and  C_21
REMARK                            x       y       z     vdW  Elec       q    Type
REMARK                         _______ _______ _______ _____ _____    ______ ____
ROOT
ATOM      1  C   UNL     1       0.024   1.508  -0.007  0.00  0.00    +0.039 C 
ATOM      2  C   UNL     1       0.027  -0.022  -0.001  0.00  0.00    +0.133 C 
ATOM      3  C   UNL     1      -1.417  -0.537   0.001  0.00  0.00    +0.137 C 
ATOM      4  N   UNL     1      -1.389  -1.995   0.196  0.00  0.00    -0.312 N 
ATOM      5  C   UNL     1      -0.598  -2.529   1.316  0.00  0.00    +0.137 C 
ATOM      6  C   UNL     1       0.806  -1.917   1.250  0.00  0.00    +0.133 C 
ATOM      7  O   UNL     1       0.698  -0.493   1.171  0.00  0.00    -0.371 OA
ATOM      8  C   UNL     1       1.591  -2.301   2.506  0.00  0.00    +0.039 C 
ATOM      9  C   UNL     1      -2.091  -2.844  -0.652  0.00  0.00    +0.099 A 
ATOM     10  C   UNL     1      -2.927  -2.308  -1.627  0.00  0.00    +0.042 A 
ATOM     11  C   UNL     1      -3.619  -3.164  -2.464  0.00  0.00    +0.010 A 
ATOM     12  C   UNL     1      -3.451  -4.533  -2.299  0.00  0.00    -0.014 A 
ATOM     13  C   UNL     1      -2.604  -4.995  -1.311  0.00  0.00    +0.089 A 
ATOM     14  N   UNL     1      -1.953  -4.155  -0.530  0.00  0.00    -0.349 N 
ATOM     15  H   UNL     1      -1.361  -4.507   0.154  0.00  0.00    +0.167 HD
ENDROOT
BRANCH  12  16
ATOM     16  C   UNL     1      -4.185  -5.503  -3.188  0.00  0.00    +0.141 C 
BRANCH  16  17
ATOM     17  N   UNL     1      -3.369  -5.796  -4.369  0.00  0.00    -0.307 N 
ATOM     18  C   UNL     1      -3.827  -6.645  -5.310  0.00  0.00    +0.251 C 
ATOM     19  O   UNL     1      -4.918  -7.168  -5.179  0.00  0.00    -0.270 OA
ATOM     20  H   UNL     1      -2.500  -5.378  -4.474  0.00  0.00    +0.149 HD
BRANCH  18  21
ATOM     21  C   UNL     1      -3.012  -6.938  -6.492  0.00  0.00    +0.076 A 
ATOM     22  C   UNL     1      -3.296  -7.767  -7.566  0.00  0.00    +0.037 A 
ATOM     23  C   UNL     1      -2.326  -7.842  -8.536  0.00  0.00    +0.040 A 
ATOM     24  C   UNL     1      -1.185  -7.121  -8.384  0.00  0.00    +0.070 A 
ATOM     25  S   UNL     1      -1.399  -6.314  -6.926  0.00  0.00    -0.076 S 
ATOM     26 BR   UNL     1       0.301  -7.037  -9.551  0.00  0.00    -0.041 Br
ATOM     27 BR   UNL     1      -2.574  -8.934 -10.060  0.00  0.00    -0.049 Br
ENDBRANCH  18  21
ENDBRANCH  16  17
ENDBRANCH  12  16
TORSDOF 3
