REMARK  Name = ZINC06120022
REMARK  8 active torsions:
REMARK  status: ('A' for Active; 'I' for Inactive)
REMARK    1  A    between atoms: C_1  and  C_2
REMARK    2  A    between atoms: C_5  and  C_8
REMARK    3  A    between atoms: C_11  and  C_14
REMARK    4  A    between atoms: C_19  and  C_21
REMARK    5  A    between atoms: C_21  and  O_22
REMARK    6  A    between atoms: O_22  and  C_23
REMARK    7  A    between atoms: C_23  and  C_25
REMARK    8  A    between atoms: C_29  and  O_31
REMARK                            x       y       z     vdW  Elec       q    Type
REMARK                         _______ _______ _______ _____ _____    ______ ____
ROOT
ATOM      1  C   UNL     1       2.475   3.713  -0.001  0.00  0.00    +0.069 C 
ATOM      2  N   UNL     1       1.260   3.287   0.008  0.00  0.00    -0.181 NA
ATOM      3  N   UNL     1       1.143   1.899   0.001  0.00  0.00    -0.179 N 
ATOM      4  C   UNL     1       2.491   1.308  -0.009  0.00  0.00    +0.173 C 
ATOM      5  C   UNL     1       3.424   2.536  -0.016  0.00  0.00    +0.090 C 
ATOM      6  C   UNL     1      -0.014   1.209   0.009  0.00  0.00    +0.273 C 
ATOM      7  O   UNL     1       0.002  -0.004   0.002  0.00  0.00    -0.270 OA
ENDROOT
BRANCH   1  12
ATOM      8  C   UNL     1       4.052   9.245   0.019  0.00  0.00    +0.044 C 
ATOM      9  C   UNL     1       3.639   7.795   0.014  0.00  0.00    -0.050 A 
ATOM     10  C   UNL     1       2.296   7.462   0.024  0.00  0.00    +0.004 A 
ATOM     11  C   UNL     1       1.911   6.138   0.019  0.00  0.00    +0.010 A 
ATOM     12  C   UNL     1       2.880   5.132   0.004  0.00  0.00    -0.002 A 
ATOM     13  C   UNL     1       4.234   5.476   0.000  0.00  0.00    +0.010 A 
ATOM     14  C   UNL     1       4.604   6.804  -0.001  0.00  0.00    +0.004 A 
ENDBRANCH   1  12
BRANCH   4  15
ATOM     15  C   UNL     1       2.715   0.476   1.228  0.00  0.00    +0.128 A 
ATOM     16  C   UNL     1       3.378  -0.693   1.280  0.00  0.00    +0.046 A 
ATOM     17  C   UNL     1       3.347  -1.122   2.627  0.00  0.00    +0.041 A 
ATOM     18  C   UNL     1       2.668  -0.189   3.317  0.00  0.00    +0.195 A 
ATOM     19  O   UNL     1       2.292   0.780   2.466  0.00  0.00    -0.466 OA
ENDBRANCH   4  15
BRANCH   6  20
ATOM     20  C   UNL     1      -1.330   1.944   0.019  0.00  0.00    +0.330 C 
BRANCH  20  21
ATOM     21  O   UNL     1      -2.420   0.986   0.019  0.00  0.00    -0.452 OA
BRANCH  21  22
ATOM     22  C   UNL     1      -3.672   1.484   0.028  0.00  0.00    +0.340 C 
ATOM     23  O   UNL     1      -3.847   2.686   0.035  0.00  0.00    -0.245 OA
BRANCH  22  24
ATOM     24  C   UNL     1      -4.831   0.568   0.028  0.00  0.00    +0.062 A 
ATOM     25  C   UNL     1      -4.633  -0.814   0.020  0.00  0.00    +0.015 A 
ATOM     26  C   UNL     1      -5.717  -1.666   0.020  0.00  0.00    +0.004 A 
ATOM     27  C   UNL     1      -7.003  -1.156   0.029  0.00  0.00    +0.045 A 
ATOM     28  C   UNL     1      -7.210   0.216   0.038  0.00  0.00    +0.118 A 
ATOM     29  C   UNL     1      -6.129   1.081   0.043  0.00  0.00    +0.060 A 
BRANCH  28  30
ATOM     30  O   UNL     1      -8.476   0.712   0.048  0.00  0.00    -0.507 OA
ATOM     31  H   UNL     1      -8.838   0.850   0.934  0.00  0.00    +0.292 HD
ENDBRANCH  28  30
ENDBRANCH  22  24
ENDBRANCH  21  22
ENDBRANCH  20  21
ENDBRANCH   6  20
TORSDOF 7
