REMARK  Name = ZINC33687655
REMARK  14 active torsions:
REMARK  status: ('A' for Active; 'I' for Inactive)
REMARK    1  A    between atoms: C_1  and  C_2
REMARK    2  A    between atoms: C_2  and  O_3
REMARK    3  A    between atoms: O_3  and  C_4
REMARK    4  A    between atoms: C_6  and  C_14
REMARK    5  A    between atoms: C_8  and  N_11
REMARK    6  A    between atoms: C_19  and  C_29
REMARK    7  A    between atoms: C_21  and  C_25
REMARK    8  A    between atoms: C_25  and  O_27
REMARK    9  A    between atoms: O_27  and  C_28
REMARK   10  A    between atoms: C_31  and  C_38
REMARK   11  A    between atoms: C_32  and  C_33
REMARK   12  A    between atoms: C_33  and  O_35
REMARK   13  A    between atoms: O_35  and  C_36
REMARK   14  A    between atoms: C_36  and  C_37
REMARK                            x       y       z     vdW  Elec       q    Type
REMARK                         _______ _______ _______ _____ _____    ______ ____
ROOT
ATOM      1  C   UNL     1       0.153  -2.831   0.033  0.00  0.00    +0.092 C 
ATOM      2  C   UNL     1      -0.113  -4.254  -0.389  0.00  0.00    +0.025 C 
ATOM      3  C   UNL     1       0.428  -4.749  -1.523  0.00  0.00    +0.016 C 
ATOM      4  C   UNL     1       0.177  -6.175  -1.945  0.00  0.00    +0.055 C 
ATOM      5  C   UNL     1      -1.206  -6.618  -1.462  0.00  0.00    +0.013 C 
ATOM      6  C   UNL     1      -1.258  -6.471   0.063  0.00  0.00    +0.171 C 
ATOM      7  C   UNL     1      -0.937  -5.047   0.428  0.00  0.00    +0.176 C 
ATOM      8  O   UNL     1      -1.400  -4.574   1.447  0.00  0.00    -0.291 OA
ATOM      9  C   UNL     1      -1.445  -8.080  -1.845  0.00  0.00    +0.009 C 
ATOM     10  N   UNL     1       1.216  -3.961  -2.318  0.00  0.00    -0.321 N 
ATOM     11  C   UNL     1       1.161  -2.599  -2.221  0.00  0.00    +0.016 C 
ATOM     12  C   UNL     1       0.664  -2.014  -1.118  0.00  0.00    +0.065 C 
ATOM     13  C   UNL     1       1.666  -1.747  -3.357  0.00  0.00    +0.061 C 
ATOM     14  H   UNL     1       1.903  -4.424  -3.043  0.00  0.00    +0.152 HD
ENDROOT
BRANCH   1  17
ATOM     15  C   UNL     1       1.793  -2.316   3.397  0.00  0.00    +0.170 A 
ATOM     16  C   UNL     1       0.852  -2.317   2.380  0.00  0.00    +0.054 A 
ATOM     17  C   UNL     1       1.179  -2.826   1.137  0.00  0.00    -0.029 A 
ATOM     18  C   UNL     1       2.447  -3.325   0.903  0.00  0.00    +0.041 A 
ATOM     19  C   UNL     1       3.392  -3.321   1.912  0.00  0.00    +0.177 A 
ATOM     20  C   UNL     1       3.069  -2.818   3.161  0.00  0.00    +0.250 A 
ATOM     21  O   UNL     1       3.998  -2.814   4.155  0.00  0.00    -0.282 OA
BRANCH  19  22
ATOM     22  N   UNL     1       4.749  -3.856   1.657  0.00  0.00    +0.060 N 
ATOM     23  O   UNL     1       5.033  -4.298   0.558  0.00  0.00    -0.126 OA
ATOM     24  O   UNL     1       5.581  -3.853   2.546  0.00  0.00    -0.126 OA
ENDBRANCH  19  22
BRANCH  15  25
ATOM     25  O   UNL     1       1.471  -1.820   4.622  0.00  0.00    -0.488 OA
BRANCH  25  27
ATOM     26  C   UNL     1      -0.031  -0.810   6.224  0.00  0.00    +0.048 C 
ATOM     27  C   UNL     1       0.143  -1.322   4.792  0.00  0.00    +0.226 C 
ENDBRANCH  25  27
ENDBRANCH  15  25
ENDBRANCH   1  17
BRANCH   6  28
ATOM     28  C   UNL     1      -2.639  -6.819   0.556  0.00  0.00    +0.318 C 
ATOM     29  O   UNL     1      -3.492  -7.161  -0.228  0.00  0.00    -0.250 OA
BRANCH  28  30
ATOM     30  O   UNL     1      -2.920  -6.751   1.867  0.00  0.00    -0.467 OA
ATOM     31  C   UNL     1      -4.270  -7.101   2.271  0.00  0.00    +0.280 C 
ENDBRANCH  28  30
ENDBRANCH   6  28
BRANCH  12  32
ATOM     32  C   UNL     1       0.615  -0.603  -1.042  0.00  0.00    +0.338 C 
ATOM     33  O   UNL     1       1.117   0.071  -1.922  0.00  0.00    -0.245 OA
BRANCH  32  34
ATOM     34  O   UNL     1       0.011  -0.003   0.005  0.00  0.00    -0.462 OA
BRANCH  34  35
ATOM     35  C   UNL     1      -0.001   1.425   0.017  0.00  0.00    +0.229 C 
ATOM     36  C   UNL     1      -0.723   1.920   1.272  0.00  0.00    +0.048 C 
ENDBRANCH  34  35
ENDBRANCH  32  34
ENDBRANCH  12  32
TORSDOF 9
