REMARK  Name = ZINC05760311
REMARK  6 active torsions:
REMARK  status: ('A' for Active; 'I' for Inactive)
REMARK    1  A    between atoms: C_1  and  C_2
REMARK    2  A    between atoms: C_2  and  O_3
REMARK    3  A    between atoms: O_3  and  C_4
REMARK    4  A    between atoms: C_4  and  C_6
REMARK    5  A    between atoms: C_7  and  C_20
REMARK    6  A    between atoms: C_21  and  N_22
REMARK                            x       y       z     vdW  Elec       q    Type
REMARK                         _______ _______ _______ _____ _____    ______ ____
ROOT
ATOM      1  C   UNL     1       0.241   7.454  -0.143  0.00  0.00    +0.133 A 
ATOM      2  C   UNL     1       0.971   6.291   0.073  0.00  0.00    +0.017 A 
ATOM      3  C   UNL     1      -0.005   5.242   0.363  0.00  0.00    +0.015 A 
ATOM      4  C   UNL     1       0.097   3.819   0.674  0.00  0.00    -0.008 A 
ATOM      5  C   UNL     1       1.332   3.168   0.745  0.00  0.00    +0.009 A 
ATOM      6  C   UNL     1       1.378   1.837   1.038  0.00  0.00    +0.001 A 
ATOM      7  C   UNL     1       0.211   1.116   1.267  0.00  0.00    +0.001 A 
ATOM      8  C   UNL     1      -1.010   1.719   1.200  0.00  0.00    +0.008 A 
ATOM      9  C   UNL     1      -1.093   3.089   0.906  0.00  0.00    -0.017 A 
ATOM     10  C   UNL     1      -2.338   3.747   0.834  0.00  0.00    +0.010 A 
ATOM     11  C   UNL     1      -2.417   5.067   0.544  0.00  0.00    +0.027 A 
ATOM     12  C   UNL     1      -1.271   5.840   0.305  0.00  0.00    +0.048 A 
ATOM     13  N   UNL     1      -1.099   7.168  -0.000  0.00  0.00    -0.349 N 
ATOM     14  H   UNL     1      -1.818   7.811  -0.101  0.00  0.00    +0.166 HD
ENDROOT
BRANCH   1  15
ATOM     15  C   UNL     1       0.803   8.765  -0.468  0.00  0.00    +0.356 C 
ATOM     16  O   UNL     1       2.008   8.903  -0.569  0.00  0.00    -0.243 OA
BRANCH  15  17
ATOM     17  O   UNL     1      -0.015   9.822  -0.655  0.00  0.00    -0.460 OA
BRANCH  17  19
ATOM     18  C   UNL     1      -0.476  12.143  -1.144  0.00  0.00    +0.048 C 
ATOM     19  C   UNL     1       0.602  11.072  -0.969  0.00  0.00    +0.229 C 
ENDBRANCH  17  19
ENDBRANCH  15  17
ENDBRANCH   1  15
BRANCH   2  20
ATOM     20  C   UNL     1       2.436   6.144   0.020  0.00  0.00    +0.035 C 
ATOM     21  C   UNL     1       2.991   5.337  -0.879  0.00  0.00    +0.179 C 
BRANCH  21  22
ATOM     22  N   UNL     1       2.155   4.709  -1.926  0.00  0.00    +0.049 N 
ATOM     23  O   UNL     1       0.979   5.010  -2.029  0.00  0.00    -0.127 OA
ATOM     24  O   UNL     1       2.642   3.890  -2.685  0.00  0.00    -0.127 OA
ENDBRANCH  21  22
ENDBRANCH   2  20
TORSDOF 5
