REMARK  Name = ZINC35314649
REMARK  5 active torsions:
REMARK  status: ('A' for Active; 'I' for Inactive)
REMARK    1  A    between atoms: N_7  and  C_18
REMARK    2  A    between atoms: C_10  and  S_13
REMARK    3  A    between atoms: S_13  and  C_14
REMARK    4  A    between atoms: C_14  and  C_15
REMARK    5  A    between atoms: C_18  and  C_19
REMARK                            x       y       z     vdW  Elec       q    Type
REMARK                         _______ _______ _______ _____ _____    ______ ____
ROOT
ATOM      1  C   UNL     1      -0.017   1.376   0.010  0.00  0.00    +0.002 A 
ATOM      2  C   UNL     1       1.169   2.090   0.002  0.00  0.00    +0.002 A 
ATOM      3  C   UNL     1       2.381   1.427  -0.013  0.00  0.00    +0.028 A 
ATOM      4  C   UNL     1       2.410   0.040  -0.021  0.00  0.00    +0.075 A 
ATOM      5  C   UNL     1       1.215  -0.680  -0.013  0.00  0.00    +0.069 A 
ATOM      6  C   UNL     1       0.002  -0.004   0.002  0.00  0.00    +0.028 A 
ATOM      7  N   UNL     1       1.542  -2.032  -0.024  0.00  0.00    -0.304 N 
ATOM      8  C   UNL     1       2.922  -2.140  -0.039  0.00  0.00    +0.238 A 
ATOM      9  N   UNL     1       3.458  -0.883  -0.037  0.00  0.00    -0.254 N 
ATOM     10  C   UNL     1       4.822  -1.005  -0.051  0.00  0.00    +0.198 A 
ATOM     11  N   UNL     1       5.114  -2.283  -0.062  0.00  0.00    -0.120 NA
ATOM     12  N   UNL     1       3.913  -3.003  -0.053  0.00  0.00    -0.109 NA
ENDROOT
BRANCH  10  13
ATOM     13  S   UNL     1       5.980   0.323  -0.056  0.00  0.00    -0.076 S 
BRANCH  13  14
ATOM     14  C   UNL     1       7.595  -0.503  -0.077  0.00  0.00    +0.172 C 
BRANCH  14  15
ATOM     15  C   UNL     1       8.689   0.533  -0.082  0.00  0.00    +0.221 C 
ATOM     16  O   UNL     1       8.408   1.712  -0.073  0.00  0.00    -0.275 OA
ATOM     17  N   UNL     1       9.981   0.148  -0.098  0.00  0.00    -0.329 N 
ATOM     18  H   UNL     1      10.206  -0.795  -0.105  0.00  0.00    +0.145 HD
ATOM     19  H   UNL     1      10.685   0.815  -0.101  0.00  0.00    +0.145 HD
ENDBRANCH  14  15
ENDBRANCH  13  14
ENDBRANCH  10  13
BRANCH   7  20
ATOM     20  C   UNL     1       0.592  -3.147  -0.021  0.00  0.00    +0.165 C 
BRANCH  20  21
ATOM     21  C   UNL     1       0.252  -3.521  -1.440  0.00  0.00    +0.026 A 
ATOM     22  C   UNL     1      -0.814  -2.912  -2.081  0.00  0.00    +0.130 A 
ATOM     23  C   UNL     1      -1.126  -3.256  -3.385  0.00  0.00    +0.039 A 
ATOM     24  C   UNL     1      -0.373  -4.208  -4.047  0.00  0.00    +0.004 A 
ATOM     25  C   UNL     1       0.690  -4.817  -3.408  0.00  0.00    +0.020 A 
ATOM     26  C   UNL     1       1.006  -4.470  -2.106  0.00  0.00    +0.049 A 
ATOM     27 CL   UNL     1       2.347  -5.230  -1.306  0.00  0.00    -0.083 Cl
ATOM     28  F   UNL     1      -1.549  -1.981  -1.434  0.00  0.00    -0.205 F 
ENDBRANCH  20  21
ENDBRANCH   7  20
TORSDOF 5
