REMARK  Name = ZINC66248958
REMARK  8 active torsions:
REMARK  status: ('A' for Active; 'I' for Inactive)
REMARK    1  A    between atoms: C_1  and  C_2
REMARK    2  A    between atoms: C_2  and  C_3
REMARK    3  A    between atoms: C_3  and  C_5
REMARK    4  A    between atoms: C_3  and  N_6
REMARK    5  A    between atoms: C_7  and  N_11
REMARK    6  A    between atoms: N_11  and  S_12
REMARK    7  A    between atoms: S_12  and  C_15
REMARK    8  A    between atoms: C_19  and  N_21
REMARK                            x       y       z     vdW  Elec       q    Type
REMARK                         _______ _______ _______ _____ _____    ______ ____
ROOT
ATOM      1  S   UNL     1       4.603  -3.118  -1.159  0.00  0.00    +0.074 S 
ATOM      2  O   UNL     1       5.859  -2.465  -1.038  0.00  0.00    -0.150 OA
ATOM      3  O   UNL     1       4.088  -3.974  -0.147  0.00  0.00    -0.150 OA
ENDROOT
BRANCH   1   4
ATOM      4  C   UNL     1       4.671  -4.072  -2.639  0.00  0.00    +0.111 A 
ATOM      5  C   UNL     1       3.929  -5.233  -2.748  0.00  0.00    +0.030 A 
ATOM      6  C   UNL     1       3.982  -5.981  -3.908  0.00  0.00    +0.024 A 
ATOM      7  C   UNL     1       4.779  -5.568  -4.961  0.00  0.00    +0.071 A 
ATOM      8  C   UNL     1       5.522  -4.406  -4.852  0.00  0.00    +0.146 A 
ATOM      9  C   UNL     1       5.464  -3.656  -3.692  0.00  0.00    +0.063 A 
ATOM     10 CL   UNL     1       4.846  -6.508  -6.419  0.00  0.00    -0.081 Cl
BRANCH   8  11
ATOM     11  N   UNL     1       6.374  -3.964  -5.978  0.00  0.00    +0.058 N 
ATOM     12  O   UNL     1       7.024  -2.949  -5.882  0.00  0.00    -0.126 OA
ATOM     13  O   UNL     1       6.422  -4.618  -6.993  0.00  0.00    -0.126 OA
ENDBRANCH   8  11
ENDBRANCH   1   4
BRANCH   1  14
ATOM     14  N   UNL     1       3.473  -1.930  -1.393  0.00  0.00    -0.200 N 
ATOM     15  H   UNL     1       3.739  -0.998  -1.381  0.00  0.00    +0.175 HD
BRANCH  14  17
ATOM     16  N   UNL     1       1.139  -1.418  -1.927  0.00  0.00    -0.247 N 
ATOM     17  C   UNL     1       2.140  -2.270  -1.609  0.00  0.00    +0.136 A 
ATOM     18  C   UNL     1       1.607  -3.522  -1.538  0.00  0.00    +0.066 A 
ATOM     19  C   UNL     1       0.242  -3.422  -1.823  0.00  0.00    +0.136 A 
ATOM     20  N   UNL     1      -0.040  -2.165  -2.049  0.00  0.00    -0.178 NA
BRANCH  16  21
ATOM     21  C   UNL     1       1.264   0.030  -2.106  0.00  0.00    +0.106 C 
ATOM     22  C   UNL     1       0.837   0.408  -3.526  0.00  0.00    +0.032 C 
BRANCH  21  24
ATOM     23  C   UNL     1       0.592   2.259  -1.198  0.00  0.00    +0.006 C 
ATOM     24  C   UNL     1       0.368   0.749  -1.095  0.00  0.00    +0.023 C 
ENDBRANCH  21  24
ENDBRANCH  16  21
ENDBRANCH  14  17
ENDBRANCH   1  14
TORSDOF 6
