REMARK  Name = ZINC46772558
REMARK  8 active torsions:
REMARK  status: ('A' for Active; 'I' for Inactive)
REMARK    1  A    between atoms: C_1  and  C_2
REMARK    2  A    between atoms: C_7  and  N_8
REMARK    3  A    between atoms: N_8  and  C_9
REMARK    4  A    between atoms: C_9  and  N_11
REMARK    5  A    between atoms: N_11  and  N_12
REMARK    6  A    between atoms: C_13  and  C_15
REMARK    7  A    between atoms: N_20  and  S_22
REMARK    8  A    between atoms: S_22  and  C_25
REMARK                            x       y       z     vdW  Elec       q    Type
REMARK                         _______ _______ _______ _____ _____    ______ ____
ROOT
ATOM      1  N   UNL     1      -0.175   1.374   4.750  0.00  0.00    -0.235 N 
ATOM      2  C   UNL     1      -0.274   2.042   5.916  0.00  0.00    +0.233 C 
ATOM      3  O   UNL     1      -0.348   1.430   6.961  0.00  0.00    -0.274 OA
ATOM      4  H   UNL     1      -0.116   1.863   3.914  0.00  0.00    +0.173 HD
ENDROOT
BRANCH   2   5
ATOM      5  C   UNL     1      -0.295   3.549   5.922  0.00  0.00    +0.092 C 
ATOM      6  C   UNL     1      -1.492   4.047   5.110  0.00  0.00    +0.015 C 
ATOM      7  C   UNL     1      -1.495   5.577   5.088  0.00  0.00    +0.018 C 
ATOM      8  C   UNL     1      -1.630   6.104   6.520  0.00  0.00    +0.109 C 
ATOM      9  N   UNL     1      -0.565   5.514   7.343  0.00  0.00    -0.176 NA
ATOM     10  C   UNL     1      -0.415   4.053   7.364  0.00  0.00    +0.122 C 
BRANCH   9  11
ATOM     11  S   UNL     1       0.447   6.478   8.230  0.00  0.00    +0.061 S 
ATOM     12  O   UNL     1       1.640   5.734   8.437  0.00  0.00    -0.153 OA
ATOM     13  O   UNL     1       0.445   7.754   7.605  0.00  0.00    -0.153 OA
BRANCH  11  14
ATOM     14  C   UNL     1      -0.293   6.692   9.815  0.00  0.00    +0.106 A 
ATOM     15  C   UNL     1      -1.162   7.744  10.035  0.00  0.00    +0.030 A 
ATOM     16  C   UNL     1      -1.743   7.912  11.278  0.00  0.00    +0.022 A 
ATOM     17  C   UNL     1      -1.455   7.028  12.302  0.00  0.00    +0.041 A 
ATOM     18  C   UNL     1      -0.584   5.975  12.081  0.00  0.00    +0.022 A 
ATOM     19  C   UNL     1      -0.008   5.805  10.836  0.00  0.00    +0.030 A 
ATOM     20 CL   UNL     1      -2.184   7.239  13.863  0.00  0.00    -0.084 Cl
ENDBRANCH  11  14
ENDBRANCH   9  11
ENDBRANCH   2   5
BRANCH   1  21
ATOM     21  N   UNL     1      -0.156  -0.027   4.744  0.00  0.00    -0.246 N 
ATOM     22  H   UNL     1      -0.215  -0.516   5.580  0.00  0.00    +0.172 HD
BRANCH  21  23
ATOM     23  C   UNL     1      -0.056  -0.695   3.578  0.00  0.00    +0.151 C 
ATOM     24  S   UNL     1      -0.033  -2.406   3.571  0.00  0.00    -0.017 S 
BRANCH  23  25
ATOM     25  N   UNL     1       0.025  -0.015   2.417  0.00  0.00    -0.296 N 
ATOM     26  H   UNL     1       0.075   0.954   2.425  0.00  0.00    +0.154 HD
BRANCH  25  33
ATOM     27  C   UNL     1      -1.705   0.882   0.344  0.00  0.00    +0.045 C 
ATOM     28  C   UNL     1      -0.792  -0.302   0.162  0.00  0.00    -0.029 A 
ATOM     29  C   UNL     1      -0.773  -0.984  -1.039  0.00  0.00    +0.005 A 
ATOM     30  C   UNL     1       0.064  -2.071  -1.206  0.00  0.00    +0.000 A 
ATOM     31  C   UNL     1       0.886  -2.480  -0.172  0.00  0.00    +0.002 A 
ATOM     32  C   UNL     1       0.873  -1.803   1.032  0.00  0.00    +0.023 A 
ATOM     33  C   UNL     1       0.037  -0.706   1.201  0.00  0.00    +0.036 A 
ENDBRANCH  25  33
ENDBRANCH  23  25
ENDBRANCH  21  23
ENDBRANCH   1  21
TORSDOF 7
