REMARK  Name = ZINC39584552
REMARK  7 active torsions:
REMARK  status: ('A' for Active; 'I' for Inactive)
REMARK    1  A    between atoms: C_1  and  C_2
REMARK    2  A    between atoms: C_5  and  C_9
REMARK    3  A    between atoms: C_7  and  C_8
REMARK    4  A    between atoms: C_11  and  C_15
REMARK    5  A    between atoms: N_17  and  N_18
REMARK    6  A    between atoms: C_19  and  C_20
REMARK    7  A    between atoms: C_22  and  N_27
REMARK                            x       y       z     vdW  Elec       q    Type
REMARK                         _______ _______ _______ _____ _____    ______ ____
ROOT
ATOM      1  C   UNL     1      -1.138  -7.191  -1.041  0.00  0.00    +0.263 C 
ATOM      2  O   UNL     1      -2.073  -7.329  -0.281  0.00  0.00    -0.271 OA
ATOM      3  N   UNL     1      -1.197  -7.711  -2.283  0.00  0.00    -0.205 N 
ATOM      4  H   UNL     1      -0.450  -7.601  -2.892  0.00  0.00    +0.177 HD
ENDROOT
BRANCH   1   7
ATOM      5  C   UNL     1       0.061  -4.256  -0.021  0.00  0.00    +0.092 C 
ATOM      6  C   UNL     1       0.071  -5.018  -1.132  0.00  0.00    +0.041 C 
ATOM      7  C   UNL     1       0.090  -6.439  -0.597  0.00  0.00    +0.240 C 
ATOM      8  N   UNL     1       0.088  -6.249   0.863  0.00  0.00    -0.170 NA
ATOM      9  N   UNL     1       0.077  -5.037   1.090  0.00  0.00    -0.153 NA
BRANCH   5  14
ATOM     10  C   UNL     1      -0.018   1.503   0.010  0.00  0.00    +0.044 C 
ATOM     11  C   UNL     1       0.002  -0.004   0.002  0.00  0.00    -0.047 A 
ATOM     12  C   UNL     1       0.006  -0.687  -1.201  0.00  0.00    +0.004 A 
ATOM     13  C   UNL     1       0.025  -2.066  -1.215  0.00  0.00    +0.010 A 
ATOM     14  C   UNL     1       0.041  -2.772  -0.013  0.00  0.00    +0.002 A 
ATOM     15  C   UNL     1       0.037  -2.080   1.196  0.00  0.00    +0.013 A 
ATOM     16  C   UNL     1       0.023  -0.699   1.197  0.00  0.00    -0.047 A 
ATOM     17  C   UNL     1       0.025   0.051   2.504  0.00  0.00    +0.044 C 
ENDBRANCH   5  14
ENDBRANCH   1   7
BRANCH   3  18
ATOM     18  N   UNL     1      -2.339  -8.411  -2.696  0.00  0.00    -0.188 NA
ATOM     19  C   UNL     1      -2.396  -8.911  -3.892  0.00  0.00    +0.139 C 
BRANCH  19  20
ATOM     20  C   UNL     1      -3.598  -9.647  -4.327  0.00  0.00    +0.015 A 
ATOM     21  C   UNL     1      -3.661 -10.192  -5.611  0.00  0.00    +0.043 A 
ATOM     22  C   UNL     1      -4.788 -10.880  -6.011  0.00  0.00    +0.127 A 
ATOM     23  C   UNL     1      -5.855 -11.031  -5.143  0.00  0.00    +0.034 A 
ATOM     24  C   UNL     1      -5.801 -10.494  -3.869  0.00  0.00    +0.023 A 
ATOM     25  C   UNL     1      -4.677  -9.808  -3.453  0.00  0.00    +0.050 A 
ATOM     26 CL   UNL     1      -4.608  -9.141  -1.851  0.00  0.00    -0.083 Cl
BRANCH  22  27
ATOM     27  N   UNL     1      -4.856 -11.457  -7.372  0.00  0.00    +0.056 N 
ATOM     28  O   UNL     1      -3.925 -11.326  -8.132  0.00  0.00    -0.126 OA
ATOM     29  O   UNL     1      -5.843 -12.060  -7.724  0.00  0.00    -0.126 OA
ENDBRANCH  22  27
ENDBRANCH  19  20
ENDBRANCH   3  18
TORSDOF 5
