REMARK  Name = ZINC09076242
REMARK  11 active torsions:
REMARK  status: ('A' for Active; 'I' for Inactive)
REMARK    1  A    between atoms: C_1  and  C_2
REMARK    2  A    between atoms: C_2  and  O_3
REMARK    3  A    between atoms: O_3  and  C_4
REMARK    4  A    between atoms: C_6  and  C_11
REMARK    5  A    between atoms: C_9  and  O_10
REMARK    6  A    between atoms: N_15  and  C_30
REMARK    7  A    between atoms: N_17  and  C_18
REMARK    8  A    between atoms: C_21  and  C_24
REMARK    9  A    between atoms: C_24  and  O_26
REMARK   10  A    between atoms: O_26  and  C_27
REMARK   11  A    between atoms: C_27  and  C_28
REMARK                            x       y       z     vdW  Elec       q    Type
REMARK                         _______ _______ _______ _____ _____    ______ ____
ROOT
ATOM      1  C   UNL     1       2.845   3.707  -0.957  0.00  0.00    +0.028 C 
ATOM      2  C   UNL     1       3.898   2.967  -0.523  0.00  0.00    +0.078 C 
ATOM      3  C   UNL     1       5.324   3.332  -0.432  0.00  0.00    +0.259 C 
ATOM      4  O   UNL     1       5.723   4.431  -0.769  0.00  0.00    -0.269 OA
ATOM      5  N   UNL     1       6.149   2.411   0.037  0.00  0.00    -0.249 N 
ATOM      6  C   UNL     1       5.681   1.171   0.406  0.00  0.00    +0.168 C 
ATOM      7  N   UNL     1       6.360   0.147   0.882  0.00  0.00    -0.226 NA
ATOM      8  S   UNL     1       3.929   1.287   0.084  0.00  0.00    -0.049 S 
ATOM      9  C   UNL     1       7.578   2.712   0.159  0.00  0.00    +0.140 C 
ENDROOT
BRANCH   1  12
ATOM     10  C   UNL     1      -0.883   3.401  -1.215  0.00  0.00    +0.162 A 
ATOM     11  C   UNL     1       0.403   3.872  -1.389  0.00  0.00    +0.057 A 
ATOM     12  C   UNL     1       1.475   3.211  -0.777  0.00  0.00    -0.020 A 
ATOM     13  C   UNL     1       1.237   2.076   0.007  0.00  0.00    +0.012 A 
ATOM     14  C   UNL     1      -0.050   1.613   0.174  0.00  0.00    +0.050 A 
ATOM     15  C   UNL     1      -1.112   2.266  -0.438  0.00  0.00    +0.158 A 
BRANCH  15  16
ATOM     16  O   UNL     1      -2.378   1.801  -0.274  0.00  0.00    -0.503 OA
ATOM     17  H   UNL     1      -2.840   2.179   0.487  0.00  0.00    +0.292 HD
ENDBRANCH  15  16
BRANCH  10  18
ATOM     18  O   UNL     1      -1.927   4.040  -1.808  0.00  0.00    -0.489 OA
BRANCH  18  20
ATOM     19  C   UNL     1      -2.911   5.771  -3.178  0.00  0.00    +0.048 C 
ATOM     20  C   UNL     1      -1.620   5.192  -2.596  0.00  0.00    +0.226 C 
ENDBRANCH  18  20
ENDBRANCH  10  18
ENDBRANCH   1  12
BRANCH   7  21
ATOM     21  C   UNL     1       7.672   0.297   1.216  0.00  0.00    +0.067 A 
ATOM     22  C   UNL     1       8.657  -0.417   0.521  0.00  0.00    +0.028 A 
ATOM     23  C   UNL     1       9.971  -0.264   0.853  0.00  0.00    +0.017 A 
ATOM     24  C   UNL     1      10.335   0.599   1.894  0.00  0.00    +0.059 A 
ATOM     25  C   UNL     1       9.350   1.309   2.592  0.00  0.00    +0.017 A 
ATOM     26  C   UNL     1       8.036   1.160   2.257  0.00  0.00    +0.028 A 
BRANCH  24  27
ATOM     27  C   UNL     1      11.753   0.760   2.255  0.00  0.00    +0.339 C 
ATOM     28  O   UNL     1      12.069   1.509   3.159  0.00  0.00    -0.245 OA
BRANCH  27  29
ATOM     29  O   UNL     1      12.701   0.077   1.583  0.00  0.00    -0.461 OA
BRANCH  29  30
ATOM     30  C   UNL     1      14.079   0.285   1.993  0.00  0.00    +0.229 C 
ATOM     31  C   UNL     1      15.004  -0.568   1.123  0.00  0.00    +0.048 C 
ENDBRANCH  29  30
ENDBRANCH  27  29
ENDBRANCH  24  27
ENDBRANCH   7  21
TORSDOF 8
