REMARK  Name = ZINC09916604
REMARK  8 active torsions:
REMARK  status: ('A' for Active; 'I' for Inactive)
REMARK    1  A    between atoms: C_4  and  N_28
REMARK    2  A    between atoms: C_5  and  N_7
REMARK    3  A    between atoms: N_7  and  C_8
REMARK    4  A    between atoms: C_8  and  C_9
REMARK    5  A    between atoms: C_9  and  N_10
REMARK    6  A    between atoms: C_11  and  C_13
REMARK    7  A    between atoms: C_16  and  S_19
REMARK    8  A    between atoms: S_19  and  N_22
REMARK                            x       y       z     vdW  Elec       q    Type
REMARK                         _______ _______ _______ _____ _____    ______ ____
ROOT
ATOM      1  N   UNL     1      -2.797   4.201   5.554  0.00  0.00    -0.310 N 
ATOM      2  C   UNL     1      -3.029   3.006   4.977  0.00  0.00    +0.244 C 
ATOM      3  O   UNL     1      -3.971   2.329   5.339  0.00  0.00    -0.270 OA
ATOM      4  H   UNL     1      -2.045   4.742   5.265  0.00  0.00    +0.149 HD
ENDROOT
BRANCH   2   5
ATOM      5  C   UNL     1      -2.139   2.518   3.902  0.00  0.00    +0.037 A 
ATOM      6  C   UNL     1      -2.376   1.281   3.302  0.00  0.00    +0.015 A 
ATOM      7  C   UNL     1      -1.541   0.832   2.300  0.00  0.00    +0.029 A 
ATOM      8  C   UNL     1      -0.470   1.606   1.889  0.00  0.00    +0.106 A 
ATOM      9  C   UNL     1      -0.226   2.831   2.484  0.00  0.00    +0.029 A 
ATOM     10  C   UNL     1      -1.056   3.294   3.484  0.00  0.00    +0.015 A 
BRANCH   8  11
ATOM     11  S   UNL     1       0.592   1.025   0.609  0.00  0.00    +0.061 S 
ATOM     12  O   UNL     1       0.476  -0.392   0.597  0.00  0.00    -0.153 OA
ATOM     13  O   UNL     1       1.837   1.686   0.783  0.00  0.00    -0.153 OA
BRANCH  11  14
ATOM     14  N   UNL     1      -0.033   1.563  -0.827  0.00  0.00    -0.172 NA
ATOM     15  C   UNL     1      -1.004   0.755  -1.582  0.00  0.00    +0.137 C 
ATOM     16  C   UNL     1      -2.207   1.648  -1.925  0.00  0.00    +0.177 C 
ATOM     17  O   UNL     1      -1.740   2.838  -2.564  0.00  0.00    -0.377 OA
ATOM     18  C   UNL     1      -0.895   3.650  -1.745  0.00  0.00    +0.177 C 
ATOM     19  C   UNL     1       0.371   2.862  -1.389  0.00  0.00    +0.137 C 
ENDBRANCH  11  14
ENDBRANCH   8  11
ENDBRANCH   2   5
BRANCH   1  20
ATOM     20  C   UNL     1      -3.680   4.684   6.619  0.00  0.00    +0.123 C 
BRANCH  20  21
ATOM     21  C   UNL     1      -3.198   6.055   7.098  0.00  0.00    +0.120 C 
BRANCH  21  22
ATOM     22  N   UNL     1      -4.081   6.538   8.163  0.00  0.00    -0.341 N 
ATOM     23  H   UNL     1      -4.833   5.998   8.452  0.00  0.00    +0.146 HD
BRANCH  22  28
ATOM     24  C   UNL     1      -2.610   9.833   8.858  0.00  0.00    +0.002 A 
ATOM     25  C   UNL     1      -3.364  10.232   9.947  0.00  0.00    +0.002 A 
ATOM     26  C   UNL     1      -4.355   9.406  10.444  0.00  0.00    +0.034 A 
ATOM     27  C   UNL     1      -4.596   8.181   9.855  0.00  0.00    +0.147 A 
ATOM     28  C   UNL     1      -3.841   7.777   8.761  0.00  0.00    +0.058 A 
ATOM     29  C   UNL     1      -2.841   8.607   8.268  0.00  0.00    +0.025 A 
BRANCH  27  30
ATOM     30  N   UNL     1      -5.657   7.298  10.388  0.00  0.00    +0.058 N 
ATOM     31  O   UNL     1      -6.698   7.777  10.802  0.00  0.00    -0.126 OA
ATOM     32  O   UNL     1      -5.490   6.091  10.413  0.00  0.00    -0.126 OA
ENDBRANCH  27  30
ENDBRANCH  22  28
ENDBRANCH  21  22
ENDBRANCH  20  21
ENDBRANCH   1  20
TORSDOF 8
