REMARK  Name = ZINC09670602
REMARK  10 active torsions:
REMARK  status: ('A' for Active; 'I' for Inactive)
REMARK    1  A    between atoms: C_1  and  C_2
REMARK    2  A    between atoms: C_2  and  C_3
REMARK    3  A    between atoms: C_2  and  C_4
REMARK    4  A    between atoms: C_2  and  C_5
REMARK    5  A    between atoms: C_7  and  N_10
REMARK    6  A    between atoms: C_11  and  C_13
REMARK    7  A    between atoms: C_13  and  S_14
REMARK    8  A    between atoms: S_14  and  C_15
REMARK    9  A    between atoms: C_18  and  C_26
REMARK   10  A    between atoms: N_19  and  C_20
REMARK                            x       y       z     vdW  Elec       q    Type
REMARK                         _______ _______ _______ _____ _____    ______ ____
ROOT
ATOM      1  C   UNL     1      -5.218   0.872   0.032  0.00  0.00    +0.197 A 
ATOM      2  N   UNL     1      -5.130  -0.440   0.024  0.00  0.00    -0.122 NA
ATOM      3  N   UNL     1      -6.303  -0.964   0.027  0.00  0.00    -0.125 NA
ATOM      4  C   UNL     1      -7.218  -0.019   0.036  0.00  0.00    +0.205 A 
ATOM      5  N   UNL     1      -6.551   1.188   0.045  0.00  0.00    -0.268 N 
ENDROOT
BRANCH   5   6
ATOM      6  C   UNL     1      -7.117   2.470   0.062  0.00  0.00    +0.051 A 
ATOM      7  C   UNL     1      -7.858   2.889   1.159  0.00  0.00    +0.026 A 
ATOM      8  C   UNL     1      -8.411   4.154   1.175  0.00  0.00    +0.002 A 
ATOM      9  C   UNL     1      -8.235   5.000   0.095  0.00  0.00    +0.000 A 
ATOM     10  C   UNL     1      -7.502   4.585  -1.001  0.00  0.00    +0.002 A 
ATOM     11  C   UNL     1      -6.943   3.322  -1.021  0.00  0.00    +0.026 A 
ENDBRANCH   5   6
BRANCH   4  12
ATOM     12  C   UNL     1      -8.676  -0.213   0.041  0.00  0.00    +0.172 A 
ATOM     13  C   UNL     1      -9.327  -1.378   0.318  0.00  0.00    +0.053 A 
ATOM     14  C   UNL     1     -10.705  -1.107   0.211  0.00  0.00    +0.042 A 
ATOM     15  C   UNL     1     -10.828   0.191  -0.130  0.00  0.00    +0.196 A 
ATOM     16  O   UNL     1      -9.601   0.728  -0.232  0.00  0.00    -0.460 OA
ENDBRANCH   4  12
BRANCH   1  17
ATOM     17  S   UNL     1      -3.874   2.010   0.031  0.00  0.00    -0.076 S 
BRANCH  17  18
ATOM     18  C   UNL     1      -2.482   0.853   0.018  0.00  0.00    +0.173 C 
BRANCH  18  20
ATOM     19  N   UNL     1      -0.011   0.966   0.007  0.00  0.00    -0.254 N 
ATOM     20  C   UNL     1      -1.187   1.624   0.017  0.00  0.00    +0.230 C 
ATOM     21  O   UNL     1      -1.204   2.836   0.023  0.00  0.00    -0.274 OA
ATOM     22  H   UNL     1       0.002  -0.004   0.002  0.00  0.00    +0.158 HD
BRANCH  19  25
ATOM     23  C   UNL     1       3.277   2.293  -0.017  0.00  0.00    +0.091 A 
ATOM     24  C   UNL     1       2.443   1.157  -0.015  0.00  0.00    +0.092 A 
ATOM     25  C   UNL     1       1.181   1.676  -0.000  0.00  0.00    +0.224 A 
ATOM     26  O   UNL     1       1.323   3.011  -0.000  0.00  0.00    -0.339 OA
ATOM     27  N   UNL     1       2.489   3.331  -0.004  0.00  0.00    -0.081 NA
BRANCH  23  29
ATOM     28  C   UNL     1       5.283   1.944  -1.432  0.00  0.00    +0.017 C 
ATOM     29  C   UNL     1       4.784   2.306  -0.032  0.00  0.00    +0.008 C 
ATOM     30  C   UNL     1       5.286   3.701   0.345  0.00  0.00    +0.017 C 
ATOM     31  C   UNL     1       5.312   1.284   0.978  0.00  0.00    +0.017 C 
ENDBRANCH  23  29
ENDBRANCH  19  25
ENDBRANCH  18  20
ENDBRANCH  17  18
ENDBRANCH   1  17
TORSDOF 7
