REMARK  Name = ZINC00194724
REMARK  2 active torsions:
REMARK  status: ('A' for Active; 'I' for Inactive)
REMARK    1  A    between atoms: C_4  and  N_7
REMARK    2  A    between atoms: C_11  and  C_13
REMARK                            x       y       z     vdW  Elec       q    Type
REMARK                         _______ _______ _______ _____ _____    ______ ____
ROOT
ATOM      1  N   UNL     1       2.511   3.163  -0.006  0.00  0.00    -0.292 N 
ATOM      2  C   UNL     1       1.755   2.002   0.000  0.00  0.00    +0.186 A 
ATOM      3  N   UNL     1       2.142   0.732  -0.020  0.00  0.00    -0.125 NA
ATOM      4  N   UNL     1       1.312  -0.218  -0.011  0.00  0.00    -0.139 NA
ATOM      5  C   UNL     1       0.001  -0.004   0.018  0.00  0.00    +0.141 A 
ATOM      6  S   UNL     1      -0.022   1.787   0.035  0.00  0.00    -0.030 S 
ATOM      7  H   UNL     1       2.074   4.027  -0.073  0.00  0.00    +0.154 HD
ENDROOT
BRANCH   5   8
ATOM      8  C   UNL     1      -1.116  -0.966   0.032  0.00  0.00    +0.094 A 
ATOM      9  C   UNL     1      -0.873  -2.326   0.009  0.00  0.00    +0.029 A 
ATOM     10  C   UNL     1      -2.022  -3.233   0.028  0.00  0.00    +0.018 A 
ATOM     11  C   UNL     1      -1.832  -4.621   0.011  0.00  0.00    +0.011 A 
ATOM     12  C   UNL     1      -2.914  -5.454   0.025  0.00  0.00    +0.001 A 
ATOM     13  C   UNL     1      -4.201  -4.935   0.058  0.00  0.00    +0.004 A 
ATOM     14  C   UNL     1      -4.409  -3.572   0.075  0.00  0.00    +0.047 A 
ATOM     15  C   UNL     1      -3.324  -2.703   0.061  0.00  0.00    +0.139 A 
ATOM     16  O   UNL     1      -3.525  -1.369   0.078  0.00  0.00    -0.422 OA
ATOM     17  C   UNL     1      -2.506  -0.497   0.065  0.00  0.00    +0.347 A 
ATOM     18  O   UNL     1      -2.737   0.698   0.082  0.00  0.00    -0.244 OA
ENDBRANCH   5   8
BRANCH   1  22
ATOM     19  C   UNL     1       6.661   2.947   0.269  0.00  0.00    +0.000 A 
ATOM     20  C   UNL     1       6.065   4.045  -0.325  0.00  0.00    +0.002 A 
ATOM     21  C   UNL     1       4.689   4.120  -0.417  0.00  0.00    +0.023 A 
ATOM     22  C   UNL     1       3.904   3.091   0.086  0.00  0.00    +0.033 A 
ATOM     23  C   UNL     1       4.505   1.992   0.687  0.00  0.00    +0.023 A 
ATOM     24  C   UNL     1       5.882   1.921   0.771  0.00  0.00    +0.002 A 
ENDBRANCH   1  22
TORSDOF 2
