REMARK  Name = ZINC39558233
REMARK  10 active torsions:
REMARK  status: ('A' for Active; 'I' for Inactive)
REMARK    1  A    between atoms: C_1  and  C_2
REMARK    2  A    between atoms: C_2  and  C_3
REMARK    3  A    between atoms: C_2  and  C_4
REMARK    4  A    between atoms: C_7  and  S_10
REMARK    5  A    between atoms: S_10  and  N_13
REMARK    6  A    between atoms: C_16  and  C_19
REMARK    7  A    between atoms: N_21  and  C_22
REMARK    8  A    between atoms: C_26  and  N_28
REMARK    9  A    between atoms: N_28  and  S_29
REMARK   10  A    between atoms: S_29  and  N_32
REMARK                            x       y       z     vdW  Elec       q    Type
REMARK                         _______ _______ _______ _____ _____    ______ ____
ROOT
ATOM      1  N   UNL     1       3.955  -0.790  -5.355  0.00  0.00    -0.177 NA
ATOM      2  C   UNL     1       3.609   0.315  -6.259  0.00  0.00    +0.110 C 
ATOM      3  C   UNL     1       4.617   0.343  -7.412  0.00  0.00    +0.030 C 
ATOM      4  C   UNL     1       6.035   0.417  -6.843  0.00  0.00    +0.078 C 
ATOM      5  C   UNL     1       6.310  -0.825  -5.991  0.00  0.00    +0.030 C 
ATOM      6  C   UNL     1       5.320  -0.862  -4.817  0.00  0.00    +0.110 C 
ENDROOT
BRANCH   4   7
ATOM      7  C   UNL     1       7.028   0.479  -7.975  0.00  0.00    +0.220 C 
ATOM      8  O   UNL     1       6.639   0.465  -9.124  0.00  0.00    -0.275 OA
ATOM      9  N   UNL     1       8.348   0.549  -7.711  0.00  0.00    -0.285 N 
ATOM     10  H   UNL     1       8.656   0.627  -6.794  0.00  0.00    +0.155 HD
BRANCH   9  11
ATOM     11  C   UNL     1       9.274   0.509  -8.759  0.00  0.00    +0.035 A 
ATOM     12  C   UNL     1      10.496  -0.130  -8.583  0.00  0.00    +0.023 A 
ATOM     13  C   UNL     1      11.411  -0.170  -9.617  0.00  0.00    +0.004 A 
ATOM     14  C   UNL     1      11.115   0.424 -10.829  0.00  0.00    +0.024 A 
ATOM     15  C   UNL     1       9.896   1.064 -11.011  0.00  0.00    +0.051 A 
ATOM     16  C   UNL     1       8.972   1.101  -9.976  0.00  0.00    +0.047 A 
BRANCH  15  17
ATOM     17  N   UNL     1       9.597   1.664 -12.237  0.00  0.00    -0.207 N 
ATOM     18  H   UNL     1       9.203   2.550 -12.259  0.00  0.00    +0.175 HD
BRANCH  17  19
ATOM     19  S   UNL     1       9.916   0.864 -13.650  0.00  0.00    +0.107 S 
ATOM     20  O   UNL     1       9.483   1.712 -14.705  0.00  0.00    -0.138 OA
ATOM     21  O   UNL     1      11.252   0.389 -13.556  0.00  0.00    -0.138 OA
BRANCH  19  22
ATOM     22  N   UNL     1       8.940  -0.473 -13.687  0.00  0.00    -0.191 NA
ATOM     23  H   UNL     1       8.635  -0.828 -14.537  0.00  0.00    +0.146 HD
ATOM     24  H   UNL     1       8.673  -0.902 -12.859  0.00  0.00    +0.146 HD
ENDBRANCH  19  22
ENDBRANCH  17  19
ENDBRANCH  15  17
ENDBRANCH   9  11
ENDBRANCH   4   7
BRANCH   1  25
ATOM     25  S   UNL     1       2.825  -1.930  -4.945  0.00  0.00    +0.061 S 
ATOM     26  O   UNL     1       3.543  -3.095  -4.563  0.00  0.00    -0.153 OA
ATOM     27  O   UNL     1       1.860  -1.938  -5.988  0.00  0.00    -0.153 OA
BRANCH  25  31
ATOM     28  C   UNL     1       0.706  -0.441  -1.232  0.00  0.00    -0.045 A 
ATOM     29  C   UNL     1       0.220  -0.112  -2.484  0.00  0.00    +0.006 A 
ATOM     30  C   UNL     1       0.868  -0.566  -3.618  0.00  0.00    +0.029 A 
ATOM     31  C   UNL     1       2.001  -1.350  -3.500  0.00  0.00    +0.105 A 
ATOM     32  C   UNL     1       2.486  -1.679  -2.248  0.00  0.00    +0.029 A 
ATOM     33  C   UNL     1       1.841  -1.221  -1.115  0.00  0.00    +0.006 A 
BRANCH  28  35
ATOM     34  C   UNL     1      -0.021   1.584   0.001  0.00  0.00    +0.012 C 
ATOM     35  C   UNL     1      -0.000   0.054   0.004  0.00  0.00    +0.013 C 
ATOM     36  C   UNL     1      -1.435  -0.476   0.018  0.00  0.00    +0.012 C 
ENDBRANCH  28  35
ENDBRANCH  25  31
ENDBRANCH   1  25
TORSDOF 8
