REMARK  Name = ZINC39495171
REMARK  12 active torsions:
REMARK  status: ('A' for Active; 'I' for Inactive)
REMARK    1  A    between atoms: C_1  and  C_2
REMARK    2  A    between atoms: C_2  and  C_3
REMARK    3  A    between atoms: C_2  and  S_4
REMARK    4  A    between atoms: S_4  and  C_7
REMARK    5  A    between atoms: N_9  and  C_10
REMARK    6  A    between atoms: C_10  and  C_12
REMARK    7  A    between atoms: C_10  and  C_18
REMARK    8  A    between atoms: C_18  and  C_20
REMARK    9  A    between atoms: C_18  and  S_29
REMARK   10  A    between atoms: C_20  and  C_22
REMARK   11  A    between atoms: C_27  and  O_28
REMARK   12  A    between atoms: S_29  and  C_32
REMARK                            x       y       z     vdW  Elec       q    Type
REMARK                         _______ _______ _______ _____ _____    ______ ____
ROOT
ATOM      1  C   UNL     1       0.305   2.791   5.208  0.00  0.00    +0.231 C 
ENDROOT
BRANCH   1   2
ATOM      2  S   UNL     1       0.692   4.381   4.425  0.00  0.00    +0.009 S 
ATOM      3  O   UNL     1       1.604   4.190   3.353  0.00  0.00    -0.169 OA
ATOM      4  O   UNL     1      -0.497   5.137   4.239  0.00  0.00    -0.169 OA
BRANCH   2   5
ATOM      5  C   UNL     1       1.606   5.273   5.639  0.00  0.00    +0.089 A 
ATOM      6  C   UNL     1       0.946   6.078   6.549  0.00  0.00    +0.027 A 
ATOM      7  C   UNL     1       1.664   6.777   7.501  0.00  0.00    +0.002 A 
ATOM      8  C   UNL     1       3.041   6.672   7.544  0.00  0.00    +0.000 A 
ATOM      9  C   UNL     1       3.701   5.866   6.635  0.00  0.00    +0.002 A 
ATOM     10  C   UNL     1       2.983   5.163   5.685  0.00  0.00    +0.027 A 
ENDBRANCH   2   5
ENDBRANCH   1   2
BRANCH   1  11
ATOM     11  C   UNL     1       1.577   2.152   5.702  0.00  0.00    +0.193 C 
ATOM     12  O   UNL     1       2.631   2.392   5.151  0.00  0.00    -0.290 OA
BRANCH  11  13
ATOM     13  C   UNL     1       1.542   1.238   6.850  0.00  0.00    +0.061 A 
ATOM     14  C   UNL     1       0.317   0.870   7.421  0.00  0.00    +0.015 A 
ATOM     15  C   UNL     1       0.292   0.013   8.497  0.00  0.00    +0.001 A 
ATOM     16  C   UNL     1       1.473  -0.489   9.021  0.00  0.00    +0.004 A 
ATOM     17  C   UNL     1       2.689  -0.136   8.469  0.00  0.00    +0.046 A 
ATOM     18  C   UNL     1       2.735   0.722   7.381  0.00  0.00    +0.127 A 
BRANCH  18  19
ATOM     19  O   UNL     1       3.928   1.066   6.835  0.00  0.00    -0.506 OA
ATOM     20  H   UNL     1       4.327   1.855   7.226  0.00  0.00    +0.292 HD
ENDBRANCH  18  19
ENDBRANCH  11  13
ENDBRANCH   1  11
BRANCH   1  21
ATOM     21  C   UNL     1      -0.366   1.870   4.188  0.00  0.00    +0.137 C 
BRANCH  21  22
ATOM     22  C   UNL     1      -1.640   2.507   3.697  0.00  0.00    -0.025 A 
ATOM     23  C   UNL     1      -1.593   3.486   2.722  0.00  0.00    +0.005 A 
ATOM     24  C   UNL     1      -2.761   4.071   2.272  0.00  0.00    +0.000 A 
ATOM     25  C   UNL     1      -3.978   3.676   2.796  0.00  0.00    +0.000 A 
ATOM     26  C   UNL     1      -4.026   2.696   3.770  0.00  0.00    +0.000 A 
ATOM     27  C   UNL     1      -2.857   2.109   4.217  0.00  0.00    +0.005 A 
ENDBRANCH  21  22
BRANCH  21  30
ATOM     28  C   UNL     1       0.471   0.509   2.347  0.00  0.00    +0.352 C 
ATOM     29  O   UNL     1      -0.340  -0.341   2.646  0.00  0.00    -0.249 OA
ATOM     30  N   UNL     1       0.539   1.654   3.056  0.00  0.00    -0.288 N 
ATOM     31  H   UNL     1       1.188   2.334   2.817  0.00  0.00    +0.151 HD
BRANCH  28  32
ATOM     32  S   UNL     1       1.559   0.249   0.986  0.00  0.00    +0.050 S 
ATOM     33  O   UNL     1       1.579  -1.160   0.802  0.00  0.00    -0.165 OA
ATOM     34  O   UNL     1       2.745   0.952   1.331  0.00  0.00    -0.165 OA
BRANCH  32  36
ATOM     35  C   UNL     1       0.558   2.540  -0.123  0.00  0.00    +0.032 C 
ATOM     36  C   UNL     1       0.745   1.052  -0.422  0.00  0.00    +0.135 C 
ATOM     37  C   UNL     1       1.610   0.887  -1.673  0.00  0.00    +0.032 C 
ENDBRANCH  32  36
ENDBRANCH  28  32
ENDBRANCH  21  30
ENDBRANCH   1  21
TORSDOF 10
