REMARK  Name = ZINC13623411
REMARK  8 active torsions:
REMARK  status: ('A' for Active; 'I' for Inactive)
REMARK    1  A    between atoms: C_4  and  C_7
REMARK    2  A    between atoms: C_7  and  N_8
REMARK    3  A    between atoms: C_10  and  C_15
REMARK    4  A    between atoms: N_17  and  N_18
REMARK    5  A    between atoms: N_18  and  C_19
REMARK    6  A    between atoms: C_19  and  N_21
REMARK    7  A    between atoms: C_22  and  C_24
REMARK    8  A    between atoms: C_24  and  C_25
REMARK                            x       y       z     vdW  Elec       q    Type
REMARK                         _______ _______ _______ _____ _____    ______ ____
ROOT
ATOM      1  N   UNL     1      -1.197   2.366   0.021  0.00  0.00    -0.246 N 
ATOM      2  H   UNL     1      -2.031   1.869   0.022  0.00  0.00    +0.172 HD
ENDROOT
BRANCH   1   5
ATOM      3  C   UNL     1      -2.393   4.425   0.037  0.00  0.00    +0.234 C 
ATOM      4  O   UNL     1      -3.435   3.804   0.039  0.00  0.00    -0.274 OA
ATOM      5  N   UNL     1      -1.216   3.767   0.028  0.00  0.00    -0.235 N 
ATOM      6  H   UNL     1      -0.383   4.263   0.027  0.00  0.00    +0.173 HD
BRANCH   3   9
ATOM      7  N   UNL     1      -3.834   7.663   0.903  0.00  0.00    -0.296 N 
ATOM      8  C   UNL     1      -3.863   6.465   0.056  0.00  0.00    +0.121 C 
ATOM      9  C   UNL     1      -2.413   5.931   0.046  0.00  0.00    +0.102 C 
ATOM     10  C   UNL     1      -1.865   6.485   1.381  0.00  0.00    +0.110 C 
ATOM     11  C   UNL     1      -2.725   7.697   1.662  0.00  0.00    +0.217 C 
ATOM     12  O   UNL     1      -2.454   8.572   2.456  0.00  0.00    -0.276 OA
BRANCH   7  13
ATOM     13  C   UNL     1      -4.878   8.690   0.918  0.00  0.00    +0.142 C 
BRANCH  13  17
ATOM     14  C   UNL     1      -7.825   7.679   3.841  0.00  0.00    +0.000 A 
ATOM     15  C   UNL     1      -6.736   8.453   4.197  0.00  0.00    +0.000 A 
ATOM     16  C   UNL     1      -5.782   8.780   3.251  0.00  0.00    +0.005 A 
ATOM     17  C   UNL     1      -5.918   8.333   1.950  0.00  0.00    -0.030 A 
ATOM     18  C   UNL     1      -7.010   7.564   1.593  0.00  0.00    +0.005 A 
ATOM     19  C   UNL     1      -7.961   7.233   2.540  0.00  0.00    +0.000 A 
ENDBRANCH  13  17
ENDBRANCH   7  13
ENDBRANCH   3   9
ENDBRANCH   1   5
BRANCH   1  20
ATOM     20  C   UNL     1      -0.021   1.708   0.011  0.00  0.00    +0.153 C 
ATOM     21  S   UNL     1       0.002  -0.004   0.002  0.00  0.00    -0.017 S 
BRANCH  20  22
ATOM     22  N   UNL     1       1.137   2.397   0.004  0.00  0.00    -0.266 N 
ATOM     23  C   UNL     1       2.313   1.740  -0.011  0.00  0.00    +0.223 C 
ATOM     24  O   UNL     1       2.329   0.527  -0.017  0.00  0.00    -0.275 OA
ATOM     25  H   UNL     1       1.124   3.367   0.009  0.00  0.00    +0.157 HD
BRANCH  23  26
ATOM     26  C   UNL     1       3.608   2.511  -0.019  0.00  0.00    +0.131 C 
BRANCH  26  27
ATOM     27  C   UNL     1       4.766   1.547  -0.035  0.00  0.00    -0.031 A 
ATOM     28  C   UNL     1       5.369   1.182   1.130  0.00  0.00    +0.005 A 
ATOM     29  C   UNL     1       6.441   0.292   1.134  0.00  0.00    +0.001 A 
ATOM     30  C   UNL     1       6.917  -0.239  -0.025  0.00  0.00    +0.008 A 
ATOM     31  C   UNL     1       6.320   0.115  -1.248  0.00  0.00    -0.018 A 
ATOM     32  C   UNL     1       5.226   1.016  -1.252  0.00  0.00    -0.014 A 
ATOM     33  C   UNL     1       4.633   1.374  -2.475  0.00  0.00    +0.009 A 
ATOM     34  C   UNL     1       5.109   0.844  -3.635  0.00  0.00    +0.001 A 
ATOM     35  C   UNL     1       6.182  -0.046  -3.630  0.00  0.00    +0.001 A 
ATOM     36  C   UNL     1       6.784  -0.412  -2.465  0.00  0.00    +0.008 A 
ENDBRANCH  26  27
ENDBRANCH  23  26
ENDBRANCH  20  22
ENDBRANCH   1  20
TORSDOF 8
