REMARK  Name = ZINC16687399
REMARK  11 active torsions:
REMARK  status: ('A' for Active; 'I' for Inactive)
REMARK    1  A    between atoms: C_1  and  C_2
REMARK    2  A    between atoms: C_6  and  N_9
REMARK    3  A    between atoms: C_7  and  C_8
REMARK    4  A    between atoms: C_13  and  C_15
REMARK    5  A    between atoms: C_15  and  O_16
REMARK    6  A    between atoms: O_16  and  C_17
REMARK    7  A    between atoms: C_17  and  C_19
REMARK    8  A    between atoms: C_23  and  S_25
REMARK    9  A    between atoms: S_25  and  N_28
REMARK   10  A    between atoms: N_28  and  C_29
REMARK   11  A    between atoms: C_29  and  C_30
REMARK                            x       y       z     vdW  Elec       q    Type
REMARK                         _______ _______ _______ _____ _____    ______ ____
ROOT
ATOM      1  C   UNL     1      -0.071   5.323   0.077  0.00  0.00    +0.340 C 
ATOM      2  O   UNL     1      -1.131   5.916   0.100  0.00  0.00    -0.245 OA
ENDROOT
BRANCH   1   3
ATOM      3  C   UNL     1      -0.051   3.846   0.072  0.00  0.00    +0.061 A 
ATOM      4  C   UNL     1       1.165   3.161   0.047  0.00  0.00    +0.015 A 
ATOM      5  C   UNL     1       1.176   1.781   0.043  0.00  0.00    +0.003 A 
ATOM      6  C   UNL     1      -0.014   1.077   0.063  0.00  0.00    +0.028 A 
ATOM      7  C   UNL     1      -1.223   1.749   0.082  0.00  0.00    +0.106 A 
ATOM      8  C   UNL     1      -1.249   3.128   0.093  0.00  0.00    +0.043 A 
BRANCH   7   9
ATOM      9  S   UNL     1      -2.734   0.842   0.100  0.00  0.00    +0.059 S 
ATOM     10  O   UNL     1      -3.731   1.702  -0.433  0.00  0.00    -0.153 OA
ATOM     11  O   UNL     1      -2.449  -0.433  -0.459  0.00  0.00    -0.153 OA
BRANCH   9  12
ATOM     12  N   UNL     1      -3.131   0.584   1.687  0.00  0.00    -0.183 NA
ATOM     13  H   UNL     1      -3.147  -0.319   2.042  0.00  0.00    +0.148 HD
BRANCH  12  14
ATOM     14  C   UNL     1      -3.457   1.718   2.554  0.00  0.00    +0.180 C 
BRANCH  14  15
ATOM     15  C   UNL     1      -4.127   1.216   3.808  0.00  0.00    +0.120 A 
ATOM     16  C   UNL     1      -3.503   0.864   4.946  0.00  0.00    +0.046 A 
ATOM     17  C   UNL     1      -4.507   0.457   5.854  0.00  0.00    +0.041 A 
ATOM     18  C   UNL     1      -5.684   0.584   5.217  0.00  0.00    +0.195 A 
ATOM     19  O   UNL     1      -5.449   1.050   3.979  0.00  0.00    -0.466 OA
ENDBRANCH  14  15
ENDBRANCH  12  14
ENDBRANCH   9  12
ENDBRANCH   7   9
ENDBRANCH   1   3
BRANCH   1  20
ATOM     20  O   UNL     1       1.086   6.012   0.058  0.00  0.00    -0.452 OA
BRANCH  20  21
ATOM     21  C   UNL     1       0.991   7.461   0.065  0.00  0.00    +0.328 C 
BRANCH  21  26
ATOM     22  N   UNL     1       3.931  11.264   0.022  0.00  0.00    -0.269 N 
ATOM     23  C   UNL     1       3.773   9.925   0.021  0.00  0.00    +0.310 C 
ATOM     24  O   UNL     1       4.746   9.198  -0.000  0.00  0.00    -0.252 OA
ATOM     25  N   UNL     1       2.534   9.394   0.042  0.00  0.00    -0.237 N 
ATOM     26  C   UNL     1       2.376   8.055   0.041  0.00  0.00    +0.258 C 
ATOM     27  O   UNL     1       3.347   7.330   0.020  0.00  0.00    -0.272 OA
ATOM     28  H   UNL     1       3.157  11.844  -0.044  0.00  0.00    +0.156 HD
ATOM     29  H   UNL     1       1.757   9.974   0.059  0.00  0.00    +0.159 HD
BRANCH  22  35
ATOM     30  C   UNL     1       6.999  15.012  -0.822  0.00  0.00    +0.044 C 
ATOM     31  C   UNL     1       6.728  13.631  -0.282  0.00  0.00    -0.046 A 
ATOM     32  C   UNL     1       7.748  12.909   0.309  0.00  0.00    +0.004 A 
ATOM     33  C   UNL     1       7.504  11.641   0.805  0.00  0.00    +0.002 A 
ATOM     34  C   UNL     1       6.240  11.093   0.711  0.00  0.00    +0.023 A 
ATOM     35  C   UNL     1       5.213  11.816   0.118  0.00  0.00    +0.038 A 
ATOM     36  C   UNL     1       5.463  13.087  -0.384  0.00  0.00    -0.026 A 
ATOM     37  C   UNL     1       4.354  13.873  -1.034  0.00  0.00    +0.046 C 
ENDBRANCH  22  35
ENDBRANCH  21  26
ENDBRANCH  20  21
ENDBRANCH   1  20
TORSDOF 9
