REMARK  Name = ZINC01786188
REMARK  6 active torsions:
REMARK  status: ('A' for Active; 'I' for Inactive)
REMARK    1  A    between atoms: C_6  and  C_7
REMARK    2  A    between atoms: C_7  and  N_8
REMARK    3  A    between atoms: C_11  and  N_16
REMARK    4  A    between atoms: N_16  and  C_17
REMARK    5  A    between atoms: C_20  and  S_23
REMARK    6  A    between atoms: S_23  and  N_26
REMARK                            x       y       z     vdW  Elec       q    Type
REMARK                         _______ _______ _______ _____ _____    ______ ____
ROOT
ATOM      1  N   UNL     1      -1.465   2.433   0.430  0.00  0.00    -0.228 N 
ATOM      2  C   UNL     1      -0.920   3.659   0.331  0.00  0.00    +0.269 C 
ATOM      3  O   UNL     1      -1.523   4.712   0.373  0.00  0.00    -0.268 OA
ATOM      4  C   UNL     1       0.547   3.500   0.156  0.00  0.00    +0.118 C 
ATOM      5  C   UNL     1       0.792   2.164   0.167  0.00  0.00    +0.129 C 
ATOM      6  C   UNL     1      -0.503   1.498   0.346  0.00  0.00    +0.267 C 
ATOM      7  O   UNL     1      -0.678   0.296   0.404  0.00  0.00    -0.269 OA
ATOM      8 CL   UNL     1       2.338   1.394   0.000  0.00  0.00    -0.076 Cl
ENDROOT
BRANCH   4   9
ATOM      9  N   UNL     1       1.476   4.510   0.012  0.00  0.00    -0.309 N 
ATOM     10  H   UNL     1       2.218   4.579   0.634  0.00  0.00    +0.152 HD
BRANCH   9  11
ATOM     11  C   UNL     1       1.350   5.431  -1.029  0.00  0.00    +0.032 A 
ATOM     12  C   UNL     1       0.387   5.242  -2.013  0.00  0.00    +0.025 A 
ATOM     13  C   UNL     1       0.261   6.159  -3.038  0.00  0.00    +0.030 A 
ATOM     14  C   UNL     1       1.100   7.258  -3.092  0.00  0.00    +0.105 A 
ATOM     15  C   UNL     1       2.063   7.445  -2.118  0.00  0.00    +0.030 A 
ATOM     16  C   UNL     1       2.191   6.536  -1.087  0.00  0.00    +0.025 A 
BRANCH  14  17
ATOM     17  S   UNL     1       0.940   8.421  -4.406  0.00  0.00    +0.056 S 
ATOM     18  O   UNL     1      -0.393   8.310  -4.887  0.00  0.00    -0.153 OA
ATOM     19  O   UNL     1       1.479   9.647  -3.931  0.00  0.00    -0.153 OA
BRANCH  17  20
ATOM     20  N   UNL     1       1.929   7.913  -5.633  0.00  0.00    -0.204 NA
ATOM     21  H   UNL     1       2.454   7.104  -5.529  0.00  0.00    +0.144 HD
ATOM     22  H   UNL     1       1.984   8.424  -6.455  0.00  0.00    +0.144 HD
ENDBRANCH  17  20
ENDBRANCH  14  17
ENDBRANCH   9  11
ENDBRANCH   4   9
BRANCH   1  23
ATOM     23  C   UNL     1      -2.893   2.158   0.606  0.00  0.00    +0.152 C 
BRANCH  23  29
ATOM     24  C   UNL     1      -3.144   0.909   2.761  0.00  0.00    +0.006 A 
ATOM     25  C   UNL     1      -3.436   0.863   4.111  0.00  0.00    +0.020 A 
ATOM     26  C   UNL     1      -3.812   2.017   4.776  0.00  0.00    +0.041 A 
ATOM     27  C   UNL     1      -3.891   3.216   4.090  0.00  0.00    +0.020 A 
ATOM     28  C   UNL     1      -3.593   3.261   2.741  0.00  0.00    +0.006 A 
ATOM     29  C   UNL     1      -3.217   2.108   2.077  0.00  0.00    -0.030 A 
ATOM     30 CL   UNL     1      -4.185   1.959   6.471  0.00  0.00    -0.084 Cl
ENDBRANCH  23  29
ENDBRANCH   1  23
TORSDOF 6
