REMARK  Name = ZINC28988120
REMARK  8 active torsions:
REMARK  status: ('A' for Active; 'I' for Inactive)
REMARK    1  A    between atoms: C_1  and  S_2
REMARK    2  A    between atoms: S_2  and  C_3
REMARK    3  A    between atoms: C_3  and  C_4
REMARK    4  A    between atoms: C_4  and  C_5
REMARK    5  A    between atoms: C_5  and  C_7
REMARK    6  A    between atoms: C_5  and  N_17
REMARK    7  A    between atoms: C_18  and  C_20
REMARK    8  A    between atoms: C_20  and  N_21
REMARK                            x       y       z     vdW  Elec       q    Type
REMARK                         _______ _______ _______ _____ _____    ______ ____
ROOT
ATOM      1  N   UNL     1      -1.570  -4.266  -3.538  0.00  0.00    -0.304 N 
ATOM      2  C   UNL     1      -1.217  -3.413  -2.557  0.00  0.00    +0.232 C 
ATOM      3  O   UNL     1      -0.420  -3.758  -1.710  0.00  0.00    -0.274 OA
ATOM      4  H   UNL     1      -2.293  -3.954  -4.306  0.00  0.00    +0.149 HD
ENDROOT
BRANCH   1   5
ATOM      5  C   UNL     1      -0.990  -5.611  -3.582  0.00  0.00    +0.140 C 
BRANCH   5   6
ATOM      6  C   UNL     1      -1.025  -6.127  -4.998  0.00  0.00    +0.129 A 
ATOM      7  N   UNL     1      -1.430  -5.408  -6.079  0.00  0.00    -0.340 N 
ATOM      8  H   UNL     1      -1.766  -4.368  -5.954  0.00  0.00    +0.167 HD
ATOM      9  C   UNL     1      -1.314  -6.228  -7.184  0.00  0.00    +0.066 A 
ATOM     10  C   UNL     1      -1.569  -6.066  -8.539  0.00  0.00    +0.028 A 
ATOM     11  C   UNL     1      -1.341  -7.113  -9.407  0.00  0.00    +0.002 A 
ATOM     12  C   UNL     1      -0.858  -8.325  -8.934  0.00  0.00    +0.002 A 
ATOM     13  C   UNL     1      -0.601  -8.502  -7.605  0.00  0.00    +0.030 A 
ATOM     14  C   UNL     1      -0.825  -7.455  -6.707  0.00  0.00    +0.089 A 
ATOM     15  N   UNL     1      -0.666  -7.323  -5.364  0.00  0.00    -0.231 NA
ENDBRANCH   5   6
BRANCH   5  16
ATOM     16  C   UNL     1      -1.799  -6.545  -2.679  0.00  0.00    +0.041 C 
BRANCH  16  17
ATOM     17  C   UNL     1      -1.662  -6.093  -1.224  0.00  0.00    +0.071 C 
BRANCH  17  19
ATOM     18  C   UNL     1      -2.357  -6.536   1.513  0.00  0.00    +0.084 C 
ATOM     19  S   UNL     1      -2.621  -7.200  -0.154  0.00  0.00    -0.164 S 
ENDBRANCH  17  19
ENDBRANCH  16  17
ENDBRANCH   5  16
ENDBRANCH   1   5
BRANCH   2  20
ATOM     20  C   UNL     1      -1.813  -2.029  -2.511  0.00  0.00    +0.213 C 
BRANCH  20  21
ATOM     21  N   UNL     1      -1.273  -1.303  -1.359  0.00  0.00    -0.215 N 
ATOM     22  C   UNL     1      -0.155  -0.544  -1.395  0.00  0.00    +0.251 C 
ATOM     23  O   UNL     1       0.566  -0.342  -2.348  0.00  0.00    -0.272 OA
ATOM     24  C   UNL     1       0.002  -0.004   0.002  0.00  0.00    +0.138 C 
ATOM     25  C   UNL     1      -0.019   1.530   0.011  0.00  0.00    +0.045 C 
ATOM     26  C   UNL     1       1.487   1.876  -0.002  0.00  0.00    +0.038 C 
ATOM     27  C   UNL     1       2.177   0.676   0.613  0.00  0.00    -0.042 A 
ATOM     28  C   UNL     1       1.317  -0.410   0.610  0.00  0.00    -0.012 A 
ATOM     29  C   UNL     1       1.744  -1.624   1.124  0.00  0.00    +0.006 A 
ATOM     30  C   UNL     1       3.018  -1.753   1.640  0.00  0.00    +0.000 A 
ATOM     31  C   UNL     1       3.874  -0.668   1.644  0.00  0.00    +0.000 A 
ATOM     32  C   UNL     1       3.453   0.543   1.131  0.00  0.00    +0.004 A 
ATOM     33  N   UNL     1      -1.133  -0.558   0.742  0.00  0.00    -0.281 N 
ATOM     34  C   UNL     1      -1.826  -1.307  -0.139  0.00  0.00    +0.310 C 
ATOM     35  O   UNL     1      -2.838  -1.919   0.142  0.00  0.00    -0.252 OA
ATOM     36  H   UNL     1      -1.264  -0.319   1.807  0.00  0.00    +0.152 HD
ENDBRANCH  20  21
ENDBRANCH   2  20
TORSDOF 7
