REMARK  Name = ZINC39839867
REMARK  6 active torsions:
REMARK  status: ('A' for Active; 'I' for Inactive)
REMARK    1  A    between atoms: C_3  and  O_31
REMARK    2  A    between atoms: C_6  and  C_7
REMARK    3  A    between atoms: N_22  and  C_23
REMARK    4  A    between atoms: C_23  and  C_24
REMARK    5  A    between atoms: O_31  and  C_32
REMARK    6  A    between atoms: C_32  and  C_33
REMARK                            x       y       z     vdW  Elec       q    Type
REMARK                         _______ _______ _______ _____ _____    ______ ____
ROOT
ATOM      1  C   UNL     1      -1.179  -0.483  -0.119  0.00  0.00    +0.145 C 
ATOM      2  C   UNL     1      -1.393  -0.939   1.286  0.00  0.00    +0.072 A 
ATOM      3  C   UNL     1      -1.461  -0.191   2.546  0.00  0.00    +0.199 A 
ATOM      4  O   UNL     1      -1.515   1.025   2.597  0.00  0.00    -0.287 OA
ATOM      5  C   UNL     1      -1.457  -1.056   3.752  0.00  0.00    +0.065 A 
ATOM      6  C   UNL     1      -1.317  -0.496   5.022  0.00  0.00    +0.030 A 
ATOM      7  C   UNL     1      -1.310  -1.314   6.130  0.00  0.00    +0.019 A 
ATOM      8  C   UNL     1      -1.442  -2.689   5.981  0.00  0.00    +0.019 A 
ATOM      9  C   UNL     1      -1.583  -3.252   4.733  0.00  0.00    +0.048 A 
ATOM     10  C   UNL     1      -1.595  -2.445   3.595  0.00  0.00    +0.140 A 
ATOM     11  O   UNL     1      -1.745  -3.023   2.382  0.00  0.00    -0.450 OA
ATOM     12  C   UNL     1      -1.530  -2.298   1.267  0.00  0.00    +0.199 A 
ATOM     13  C   UNL     1      -1.405  -2.755  -0.129  0.00  0.00    +0.283 C 
ATOM     14  O   UNL     1      -1.476  -3.913  -0.491  0.00  0.00    -0.267 OA
ATOM     15  N   UNL     1      -1.201  -1.700  -0.946  0.00  0.00    -0.281 N 
ATOM     16 BR   UNL     1      -1.121  -0.566   7.856  0.00  0.00    -0.050 Br
ENDROOT
BRANCH   1  22
ATOM     17  C   UNL     1       0.211   1.576  -0.426  0.00  0.00    +0.009 A 
ATOM     18  C   UNL     1       1.433   2.210  -0.541  0.00  0.00    +0.046 A 
ATOM     19  C   UNL     1       2.605   1.472  -0.473  0.00  0.00    +0.121 A 
ATOM     20  C   UNL     1       2.547   0.098  -0.290  0.00  0.00    +0.046 A 
ATOM     21  C   UNL     1       1.323  -0.532  -0.177  0.00  0.00    +0.009 A 
ATOM     22  C   UNL     1       0.156   0.206  -0.244  0.00  0.00    -0.022 A 
BRANCH  19  23
ATOM     23  O   UNL     1       3.809   2.093  -0.586  0.00  0.00    -0.483 OA
BRANCH  23  24
ATOM     24  C   UNL     1       4.974   1.270  -0.507  0.00  0.00    +0.324 C 
BRANCH  24  25
ATOM     25  C   UNL     1       6.205   2.127  -0.651  0.00  0.00    +0.248 C 
ATOM     26  O   UNL     1       6.096   3.324  -0.807  0.00  0.00    -0.272 OA
ATOM     27  N   UNL     1       7.428   1.562  -0.608  0.00  0.00    -0.327 N 
ATOM     28  H   UNL     1       7.516   0.604  -0.484  0.00  0.00    +0.145 HD
ATOM     29  H   UNL     1       8.221   2.113  -0.701  0.00  0.00    +0.145 HD
ENDBRANCH  24  25
ENDBRANCH  23  24
ENDBRANCH  19  23
ENDBRANCH   1  22
BRANCH  15  30
ATOM     30  C   UNL     1      -1.031  -1.756  -2.400  0.00  0.00    +0.140 C 
BRANCH  30  31
ATOM     31  C   UNL     1      -2.377  -1.502  -3.081  0.00  0.00    +0.136 C 
ATOM     32  C   UNL     1      -2.214  -1.524  -4.622  0.00  0.00    +0.035 C 
ATOM     33  C   UNL     1      -3.654  -1.901  -5.066  0.00  0.00    +0.031 C 
ATOM     34  C   UNL     1      -4.111  -2.841  -3.930  0.00  0.00    +0.160 C 
ATOM     35  O   UNL     1      -3.295  -2.567  -2.784  0.00  0.00    -0.375 OA
ENDBRANCH  30  31
ENDBRANCH  15  30
TORSDOF 6
