REMARK  Name = ZINC39637417
REMARK  7 active torsions:
REMARK  status: ('A' for Active; 'I' for Inactive)
REMARK    1  A    between atoms: C_1  and  C_2
REMARK    2  A    between atoms: C_7  and  N_12
REMARK    3  A    between atoms: C_9  and  C_11
REMARK    4  A    between atoms: C_13  and  C_15
REMARK    5  A    between atoms: C_26  and  C_28
REMARK    6  A    between atoms: C_32  and  O_33
REMARK    7  A    between atoms: O_33  and  C_34
REMARK                            x       y       z     vdW  Elec       q    Type
REMARK                         _______ _______ _______ _____ _____    ______ ____
ROOT
ATOM      1  C   UNL     1       2.793  -4.228   3.612  0.00  0.00    +0.100 C 
ATOM      2  C   UNL     1       4.072  -3.397   3.861  0.00  0.00    +0.121 C 
ATOM      3  N   UNL     1       5.069  -4.380   4.347  0.00  0.00    -0.296 N 
ATOM      4  C   UNL     1       4.827  -5.588   3.522  0.00  0.00    +0.115 C 
ATOM      5  C   UNL     1       3.293  -5.665   3.390  0.00  0.00    -0.004 C 
ATOM      6  C   UNL     1       2.908  -6.148   1.995  0.00  0.00    -0.010 C 
ATOM      7  C   UNL     1       3.364  -7.599   1.818  0.00  0.00    -0.082 C 
ATOM      8  N   UNL     1       2.732  -8.441   2.841  0.00  0.00    +0.379 N 
ATOM      9  C   UNL     1       3.180  -8.028   4.177  0.00  0.00    -0.082 C 
ATOM     10  C   UNL     1       2.716  -6.595   4.453  0.00  0.00    -0.010 C 
ATOM     11  C   UNL     1       5.987  -4.214   5.319  0.00  0.00    +0.251 C 
ATOM     12  O   UNL     1       5.997  -3.191   5.977  0.00  0.00    -0.270 OA
ATOM     13  H   UNL     1       1.729  -8.346   2.781  0.00  0.00    -0.086 HD
ATOM     14  H   UNL     1       2.985  -9.405   2.686  0.00  0.00    -0.086 HD
ENDROOT
BRANCH  11  15
ATOM     15  C   UNL     1       6.976  -5.269   5.585  0.00  0.00    +0.087 A 
ATOM     16  C   UNL     1       7.494  -6.045   4.571  0.00  0.00    +0.063 A 
ATOM     17  S   UNL     1       8.557  -7.085   5.346  0.00  0.00    -0.081 S 
ATOM     18  C   UNL     1       8.360  -6.538   7.028  0.00  0.00    +0.120 A 
ATOM     19  C   UNL     1       7.456  -5.538   6.921  0.00  0.00    +0.158 A 
ATOM     20 CL   UNL     1       9.142  -7.137   8.457  0.00  0.00    -0.072 Cl
BRANCH  19  21
ATOM     21  O   UNL     1       7.022  -4.833   8.003  0.00  0.00    -0.492 OA
ATOM     22  C   UNL     1       5.874  -5.337   8.688  0.00  0.00    +0.277 C 
ENDBRANCH  19  21
ENDBRANCH  11  15
BRANCH   1  24
ATOM     23  N   UNL     1       0.764  -4.002   2.216  0.00  0.00    -0.312 N 
ATOM     24  C   UNL     1       2.072  -3.727   2.387  0.00  0.00    +0.218 C 
ATOM     25  O   UNL     1       2.669  -3.077   1.555  0.00  0.00    -0.275 OA
ATOM     26  H   UNL     1       0.286  -4.522   2.881  0.00  0.00    +0.149 HD
BRANCH  23  32
ATOM     27  C   UNL     1      -3.658  -2.760   0.386  0.00  0.00    +0.008 C 
ATOM     28  C   UNL     1      -2.163  -2.884   0.083  0.00  0.00    -0.009 C 
ATOM     29  C   UNL     1      -1.956  -3.869  -1.069  0.00  0.00    +0.003 C 
ATOM     30  C   UNL     1      -0.461  -3.993  -1.371  0.00  0.00    +0.002 C 
ATOM     31  C   UNL     1       0.271  -4.501  -0.127  0.00  0.00    +0.022 C 
ATOM     32  C   UNL     1       0.063  -3.515   1.024  0.00  0.00    +0.076 C 
ATOM     33  C   UNL     1      -1.431  -3.392   1.327  0.00  0.00    +0.009 C 
ATOM     34  C   UNL     1      -1.987  -4.762   1.722  0.00  0.00    +0.009 C 
ENDBRANCH  23  32
ENDBRANCH   1  24
TORSDOF 4
