REMARK  Name = ZINC37176913
REMARK  7 active torsions:
REMARK  status: ('A' for Active; 'I' for Inactive)
REMARK    1  A    between atoms: C_1  and  C_2
REMARK    2  A    between atoms: C_2  and  C_4
REMARK    3  A    between atoms: C_2  and  N_13
REMARK    4  A    between atoms: C_7  and  N_10
REMARK    5  A    between atoms: N_13  and  C_14
REMARK    6  A    between atoms: C_19  and  O_20
REMARK    7  A    between atoms: O_20  and  C_21
REMARK                            x       y       z     vdW  Elec       q    Type
REMARK                         _______ _______ _______ _____ _____    ______ ____
ROOT
ATOM      1  C   UNL     1      -0.019   1.526   0.010  0.00  0.00    +0.033 C 
ATOM      2  C   UNL     1       0.002  -0.004   0.002  0.00  0.00    +0.098 C 
ENDROOT
BRANCH   2   3
ATOM      3  C   UNL     1       0.731  -0.503   1.223  0.00  0.00    -0.027 A 
ATOM      4  C   UNL     1       0.081  -0.558   2.442  0.00  0.00    +0.007 A 
ATOM      5  C   UNL     1       0.749  -1.016   3.562  0.00  0.00    +0.033 A 
ATOM      6  C   UNL     1       2.068  -1.420   3.463  0.00  0.00    +0.126 A 
ATOM      7  C   UNL     1       2.718  -1.365   2.244  0.00  0.00    +0.033 A 
ATOM      8  C   UNL     1       2.048  -0.911   1.123  0.00  0.00    +0.007 A 
BRANCH   6   9
ATOM      9  N   UNL     1       2.784  -1.909   4.662  0.00  0.00    +0.056 N 
ATOM     10  O   UNL     1       2.216  -1.956   5.728  0.00  0.00    -0.126 OA
ATOM     11  O   UNL     1       3.937  -2.262   4.576  0.00  0.00    -0.126 OA
ENDBRANCH   6   9
ENDBRANCH   2   3
BRANCH   2  12
ATOM     12  N   UNL     1      -1.372  -0.511   0.012  0.00  0.00    -0.334 N 
ATOM     13  H   UNL     1      -1.794  -0.752   0.852  0.00  0.00    +0.147 HD
BRANCH  12  14
ATOM     14  C   UNL     1      -2.077  -0.648  -1.189  0.00  0.00    +0.071 A 
ATOM     15  C   UNL     1      -1.474  -0.309  -2.391  0.00  0.00    +0.046 A 
ATOM     16  C   UNL     1      -2.172  -0.445  -3.578  0.00  0.00    +0.043 A 
ATOM     17  C   UNL     1      -3.472  -0.919  -3.568  0.00  0.00    +0.024 A 
ATOM     18  C   UNL     1      -4.079  -1.258  -2.372  0.00  0.00    +0.049 A 
ATOM     19  C   UNL     1      -3.384  -1.130  -1.181  0.00  0.00    +0.141 A 
ATOM     20 CL   UNL     1      -1.416  -0.021  -5.082  0.00  0.00    -0.083 Cl
BRANCH  19  21
ATOM     21  O   UNL     1      -3.978  -1.468  -0.005  0.00  0.00    -0.493 OA
ATOM     22  C   UNL     1      -5.320  -1.955  -0.073  0.00  0.00    +0.277 C 
ENDBRANCH  19  21
ENDBRANCH  12  14
ENDBRANCH   2  12
TORSDOF 5
