REMARK  Name = ZINC33085149
REMARK  6 active torsions:
REMARK  status: ('A' for Active; 'I' for Inactive)
REMARK    1  A    between atoms: C_1  and  C_2
REMARK    2  A    between atoms: C_5  and  C_8
REMARK    3  A    between atoms: C_10  and  C_14
REMARK    4  A    between atoms: C_11  and  C_13
REMARK    5  A    between atoms: C_14  and  N_15
REMARK    6  A    between atoms: N_23  and  C_24
REMARK                            x       y       z     vdW  Elec       q    Type
REMARK                         _______ _______ _______ _____ _____    ______ ____
ROOT
ATOM      1  N   UNL     1      -0.305   1.266  -1.100  0.00  0.00    -0.294 NA
ATOM      2  C   UNL     1      -0.149   0.739   0.262  0.00  0.00    +0.104 C 
ATOM      3  C   UNL     1      -0.868   1.663   1.251  0.00  0.00    +0.124 C 
ATOM      4  N   UNL     1      -0.371   3.034   1.054  0.00  0.00    -0.283 N 
ATOM      5  C   UNL     1      -0.368   3.584  -0.311  0.00  0.00    +0.124 C 
ATOM      6  C   UNL     1       0.331   2.583  -1.237  0.00  0.00    +0.104 C 
ATOM      7  C   UNL     1       0.068   3.767   2.096  0.00  0.00    +0.307 C 
ATOM      8  O   UNL     1       0.567   4.859   1.904  0.00  0.00    -0.252 OA
ATOM      9  N   UNL     1      -0.044   3.288   3.351  0.00  0.00    -0.269 N 
ATOM     10  H   UNL     1      -0.378   2.254   3.517  0.00  0.00    +0.156 HD
ENDROOT
BRANCH   9  11
ATOM     11  C   UNL     1       0.263   4.109   4.443  0.00  0.00    +0.035 A 
ATOM     12  C   UNL     1       0.028   5.476   4.374  0.00  0.00    +0.025 A 
ATOM     13  C   UNL     1       0.328   6.282   5.454  0.00  0.00    +0.022 A 
ATOM     14  C   UNL     1       0.872   5.731   6.601  0.00  0.00    +0.041 A 
ATOM     15  C   UNL     1       1.113   4.370   6.670  0.00  0.00    +0.022 A 
ATOM     16  C   UNL     1       0.810   3.558   5.594  0.00  0.00    +0.025 A 
ATOM     17 CL   UNL     1       1.253   6.748   7.955  0.00  0.00    -0.084 Cl
ENDBRANCH   9  11
BRANCH   1  18
ATOM     18  C   UNL     1       0.221   0.321  -2.094  0.00  0.00    +0.143 C 
BRANCH  18  21
ATOM     19  C   UNL     1      -1.287   1.020  -5.305  0.00  0.00    +0.228 A 
ATOM     20  N   UNL     1      -1.288   0.428  -4.134  0.00  0.00    -0.212 NA
ATOM     21  C   UNL     1      -0.172   0.775  -3.476  0.00  0.00    +0.097 A 
ATOM     22  C   UNL     1       0.537   1.597  -4.272  0.00  0.00    +0.127 A 
ATOM     23  O   UNL     1      -0.162   1.748  -5.414  0.00  0.00    -0.440 OA
ATOM     24  C   UNL     1       1.865   2.230  -3.946  0.00  0.00    +0.088 C 
BRANCH  19  29
ATOM     25  C   UNL     1      -5.396   0.561  -9.307  0.00  0.00    +0.044 C 
ATOM     26  C   UNL     1      -4.320   0.682  -8.259  0.00  0.00    -0.050 A 
ATOM     27  C   UNL     1      -3.207   1.468  -8.501  0.00  0.00    +0.004 A 
ATOM     28  C   UNL     1      -2.218   1.582  -7.546  0.00  0.00    +0.013 A 
ATOM     29  C   UNL     1      -2.342   0.902  -6.333  0.00  0.00    +0.037 A 
ATOM     30  C   UNL     1      -3.465   0.106  -6.098  0.00  0.00    +0.013 A 
ATOM     31  C   UNL     1      -4.449   0.005  -7.059  0.00  0.00    +0.004 A 
ENDBRANCH  19  29
ENDBRANCH  18  21
ENDBRANCH   1  18
TORSDOF 4
