REMARK  Name = ZINC09460345
REMARK  5 active torsions:
REMARK  status: ('A' for Active; 'I' for Inactive)
REMARK    1  A    between atoms: C_1  and  C_2
REMARK    2  A    between atoms: C_2  and  C_24
REMARK    3  A    between atoms: N_5  and  C_9
REMARK    4  A    between atoms: C_9  and  C_10
REMARK    5  A    between atoms: N_12  and  C_13
REMARK                            x       y       z     vdW  Elec       q    Type
REMARK                         _______ _______ _______ _____ _____    ______ ____
ROOT
ATOM      1  C   UNL     1       6.231  -7.212   1.152  0.00  0.00    +0.047 C 
ATOM      2  C   UNL     1       5.833  -5.968   0.355  0.00  0.00    +0.135 C 
ATOM      3  C   UNL     1       4.782  -5.171   1.102  0.00  0.00    +0.251 C 
ATOM      4  O   UNL     1       3.672  -5.541   1.421  0.00  0.00    -0.272 OA
ATOM      5  N   UNL     1       5.337  -3.965   1.337  0.00  0.00    -0.215 N 
ATOM      6  C   UNL     1       6.582  -3.893   0.854  0.00  0.00    +0.310 C 
ATOM      7  O   UNL     1       7.287  -2.907   0.947  0.00  0.00    -0.252 OA
ATOM      8  N   UNL     1       6.968  -5.034   0.253  0.00  0.00    -0.281 N 
ATOM      9  H   UNL     1       7.825  -5.207  -0.166  0.00  0.00    +0.152 HD
ENDROOT
BRANCH   2  10
ATOM     10  C   UNL     1       5.338  -6.353  -1.015  0.00  0.00    -0.015 A 
ATOM     11  C   UNL     1       3.988  -6.647  -1.199  0.00  0.00    +0.007 A 
ATOM     12  C   UNL     1       3.508  -6.994  -2.425  0.00  0.00    +0.009 A 
ATOM     13  C   UNL     1       4.385  -7.068  -3.520  0.00  0.00    -0.018 A 
ATOM     14  C   UNL     1       3.927  -7.429  -4.799  0.00  0.00    +0.008 A 
ATOM     15  C   UNL     1       4.806  -7.490  -5.836  0.00  0.00    +0.001 A 
ATOM     16  C   UNL     1       6.157  -7.202  -5.650  0.00  0.00    +0.001 A 
ATOM     17  C   UNL     1       6.636  -6.849  -4.426  0.00  0.00    +0.008 A 
ATOM     18  C   UNL     1       5.759  -6.775  -3.331  0.00  0.00    -0.018 A 
ATOM     19  C   UNL     1       6.217  -6.415  -2.052  0.00  0.00    +0.014 A 
ENDBRANCH   2  10
BRANCH   5  20
ATOM     20  C   UNL     1       4.662  -2.871   2.039  0.00  0.00    +0.213 C 
BRANCH  20  21
ATOM     21  C   UNL     1       3.922  -2.015   1.044  0.00  0.00    +0.231 C 
ATOM     22  O   UNL     1       3.956  -2.292  -0.137  0.00  0.00    -0.274 OA
ATOM     23  N   UNL     1       3.224  -0.943   1.465  0.00  0.00    -0.307 N 
ATOM     24  H   UNL     1       3.197  -0.721   2.409  0.00  0.00    +0.149 HD
BRANCH  23  25
ATOM     25  C   UNL     1       2.505  -0.110   0.497  0.00  0.00    +0.105 C 
ATOM     26  C   UNL     1       2.441   1.310   1.031  0.00  0.00    +0.038 C 
ATOM     27  C   UNL     1       1.741   2.204  -0.003  0.00  0.00    +0.076 C 
ATOM     28  S   UNL     1      -0.022   1.761   0.012  0.00  0.00    -0.125 S 
ATOM     29  C   UNL     1       0.002  -0.004   0.002  0.00  0.00    +0.013 A 
ATOM     30  C   UNL     1       1.158  -0.722   0.246  0.00  0.00    -0.014 A 
ATOM     31  C   UNL     1       1.097  -2.113   0.241  0.00  0.00    +0.006 A 
ATOM     32  C   UNL     1      -0.087  -2.771  -0.015  0.00  0.00    +0.000 A 
ATOM     33  C   UNL     1      -1.239  -2.050  -0.271  0.00  0.00    +0.001 A 
ATOM     34  C   UNL     1      -1.194  -0.672  -0.260  0.00  0.00    +0.015 A 
ENDBRANCH  23  25
ENDBRANCH  20  21
ENDBRANCH   5  20
TORSDOF 4
