REMARK  Name = ZINC12342505
REMARK  6 active torsions:
REMARK  status: ('A' for Active; 'I' for Inactive)
REMARK    1  A    between atoms: C_1  and  N_2
REMARK    2  A    between atoms: N_7  and  C_10
REMARK    3  A    between atoms: N_11  and  C_22
REMARK    4  A    between atoms: N_14  and  C_15
REMARK    5  A    between atoms: C_15  and  C_16
REMARK    6  A    between atoms: C_22  and  C_23
REMARK                            x       y       z     vdW  Elec       q    Type
REMARK                         _______ _______ _______ _____ _____    ______ ____
ROOT
ATOM      1  C   UNL     1      -3.468   3.326  -5.913  0.00  0.00    +0.155 C 
ATOM      2  N   UNL     1      -3.126   4.604  -5.284  0.00  0.00    -0.280 N 
ATOM      3  C   UNL     1      -2.433   4.622  -4.084  0.00  0.00    +0.170 A 
ATOM      4  C   UNL     1      -2.121   5.849  -3.509  0.00  0.00    +0.153 A 
ATOM      5  C   UNL     1      -2.516   7.032  -4.158  0.00  0.00    +0.282 A 
ATOM      6  O   UNL     1      -2.253   8.118  -3.672  0.00  0.00    -0.265 OA
ATOM      7  N   UNL     1      -3.188   6.952  -5.324  0.00  0.00    -0.262 N 
ATOM      8  C   UNL     1      -3.485   5.761  -5.872  0.00  0.00    +0.333 A 
ATOM      9  O   UNL     1      -4.093   5.727  -6.925  0.00  0.00    -0.246 OA
ATOM     10  C   UNL     1      -3.602   8.182  -6.004  0.00  0.00    +0.157 C 
ATOM     11  N   UNL     1      -1.442   5.567  -2.330  0.00  0.00    -0.302 N 
ATOM     12  C   UNL     1      -1.361   4.213  -2.240  0.00  0.00    +0.198 A 
ATOM     13  N   UNL     1      -1.954   3.668  -3.283  0.00  0.00    -0.196 NA
ATOM     14  N   UNL     1      -0.759   3.519  -1.216  0.00  0.00    -0.312 N 
ATOM     15  H   UNL     1      -0.344   4.000  -0.483  0.00  0.00    +0.149 HD
ENDROOT
BRANCH  14  16
ATOM     16  C   UNL     1      -0.745   2.054  -1.233  0.00  0.00    +0.136 C 
BRANCH  16  17
ATOM     17  C   UNL     1      -0.019   1.537   0.011  0.00  0.00    +0.135 C 
ATOM     18  C   UNL     1       0.002  -0.004   0.002  0.00  0.00    +0.035 C 
ATOM     19  C   UNL     1       1.508  -0.363   0.039  0.00  0.00    +0.031 C 
ATOM     20  C   UNL     1       2.138   0.935   0.603  0.00  0.00    +0.160 C 
ATOM     21  O   UNL     1       1.348   1.983  -0.000  0.00  0.00    -0.375 OA
ENDBRANCH  16  17
ENDBRANCH  14  16
BRANCH  11  22
ATOM     22  C   UNL     1      -0.913   6.540  -1.372  0.00  0.00    +0.160 C 
BRANCH  22  23
ATOM     23  C   UNL     1       0.500   6.901  -1.751  0.00  0.00    -0.028 A 
ATOM     24  C   UNL     1       1.559   6.175  -1.238  0.00  0.00    +0.007 A 
ATOM     25  C   UNL     1       2.855   6.502  -1.590  0.00  0.00    +0.020 A 
ATOM     26  C   UNL     1       3.093   7.563  -2.446  0.00  0.00    +0.041 A 
ATOM     27  C   UNL     1       2.033   8.292  -2.953  0.00  0.00    +0.020 A 
ATOM     28  C   UNL     1       0.737   7.961  -2.606  0.00  0.00    +0.007 A 
ATOM     29 CL   UNL     1       4.721   7.979  -2.881  0.00  0.00    -0.084 Cl
ENDBRANCH  22  23
ENDBRANCH  11  22
TORSDOF 4
