REMARK  Name = ZINC29238860
REMARK  7 active torsions:
REMARK  status: ('A' for Active; 'I' for Inactive)
REMARK    1  A    between atoms: C_1  and  N_2
REMARK    2  A    between atoms: N_2  and  C_3
REMARK    3  A    between atoms: C_6  and  N_9
REMARK    4  A    between atoms: C_12  and  C_14
REMARK    5  A    between atoms: C_14  and  S_15
REMARK    6  A    between atoms: S_15  and  C_16
REMARK    7  A    between atoms: C_19  and  C_22
REMARK                            x       y       z     vdW  Elec       q    Type
REMARK                         _______ _______ _______ _____ _____    ______ ____
ROOT
ATOM      1  C   UNL     1       0.132   0.043  -2.468  0.00  0.00    +0.173 C 
ENDROOT
BRANCH   1   4
ATOM      2  C   UNL     1      -0.074   1.459  -0.019  0.00  0.00    +0.138 C 
ATOM      3  N   UNL     1       0.002  -0.004   0.002  0.00  0.00    -0.274 N 
ATOM      4  C   UNL     1       0.043  -0.693  -1.155  0.00  0.00    +0.230 C 
ATOM      5  O   UNL     1       0.009  -1.905  -1.141  0.00  0.00    -0.274 OA
BRANCH   3   6
ATOM      6  C   UNL     1       0.031  -0.686   1.224  0.00  0.00    +0.036 A 
ATOM      7  C   UNL     1       1.127  -0.557   2.067  0.00  0.00    +0.026 A 
ATOM      8  C   UNL     1       1.153  -1.231   3.272  0.00  0.00    +0.034 A 
ATOM      9  C   UNL     1       0.089  -2.034   3.639  0.00  0.00    +0.126 A 
ATOM     10  C   UNL     1      -1.004  -2.165   2.802  0.00  0.00    +0.034 A 
ATOM     11  C   UNL     1      -1.038  -1.489   1.598  0.00  0.00    +0.026 A 
BRANCH   9  12
ATOM     12  N   UNL     1       0.120  -2.755   4.931  0.00  0.00    +0.056 N 
ATOM     13  O   UNL     1       1.075  -2.642   5.664  0.00  0.00    -0.126 OA
ATOM     14  O   UNL     1      -0.810  -3.458   5.254  0.00  0.00    -0.126 OA
ENDBRANCH   9  12
ENDBRANCH   3   6
ENDBRANCH   1   4
BRANCH   1  15
ATOM     15  S   UNL     1       0.170  -1.154  -3.830  0.00  0.00    -0.077 S 
BRANCH  15  16
ATOM     16  C   UNL     1       0.273  -0.151  -5.276  0.00  0.00    +0.185 A 
ATOM     17  N   UNL     1       0.311   1.163  -5.303  0.00  0.00    -0.201 NA
ATOM     18  H   UNL     1       0.327  -1.523  -6.841  0.00  0.00    +0.191 HD
ATOM     19  C   UNL     1       0.390   1.585  -6.573  0.00  0.00    +0.185 A 
ATOM     20  N   UNL     1       0.402   0.540  -7.369  0.00  0.00    -0.151 NA
ATOM     21  N   UNL     1       0.333  -0.598  -6.550  0.00  0.00    -0.253 N 
BRANCH  19  22
ATOM     22  C   UNL     1       0.452   3.002  -7.009  0.00  0.00    +0.056 A 
ATOM     23  C   UNL     1       0.437   4.026  -6.064  0.00  0.00    +0.014 A 
ATOM     24  C   UNL     1       0.495   5.342  -6.474  0.00  0.00    +0.001 A 
ATOM     25  C   UNL     1       0.568   5.648  -7.822  0.00  0.00    +0.003 A 
ATOM     26  C   UNL     1       0.583   4.638  -8.766  0.00  0.00    +0.039 A 
ATOM     27  C   UNL     1       0.531   3.315  -8.367  0.00  0.00    +0.134 A 
ATOM     28  F   UNL     1       0.552   2.328  -9.289  0.00  0.00    -0.205 F 
ENDBRANCH  19  22
ENDBRANCH  15  16
ENDBRANCH   1  15
TORSDOF 6
