REMARK  Name = ZINC01801072
REMARK  10 active torsions:
REMARK  status: ('A' for Active; 'I' for Inactive)
REMARK    1  A    between atoms: C_1  and  C_2
REMARK    2  A    between atoms: C_2  and  O_3
REMARK    3  A    between atoms: O_3  and  C_4
REMARK    4  A    between atoms: C_4  and  C_6
REMARK    5  A    between atoms: C_7  and  N_29
REMARK    6  A    between atoms: C_9  and  C_28
REMARK    7  A    between atoms: C_10  and  C_22
REMARK    8  A    between atoms: C_22  and  O_24
REMARK    9  A    between atoms: O_24  and  C_25
REMARK   10  A    between atoms: C_25  and  C_26
REMARK                            x       y       z     vdW  Elec       q    Type
REMARK                         _______ _______ _______ _____ _____    ______ ____
ROOT
ATOM      1  C   UNL     1       2.367   1.322  -0.433  0.00  0.00    +0.117 C 
ATOM      2  C   UNL     1       2.336  -0.036  -0.385  0.00  0.00    +0.195 C 
ATOM      3  O   UNL     1       1.243  -0.703   0.021  0.00  0.00    -0.446 OA
ATOM      4  C   UNL     1       0.053  -0.086   0.029  0.00  0.00    +0.116 C 
ATOM      5  C   UNL     1      -0.060   1.250   0.006  0.00  0.00    +0.098 C 
ATOM      6  C   UNL     1       1.161   2.123  -0.032  0.00  0.00    +0.145 C 
ATOM      7  C   UNL     1       1.384   2.777   1.308  0.00  0.00    -0.001 A 
ATOM      8  C   UNL     1       1.626   2.279   2.568  0.00  0.00    +0.022 A 
ATOM      9  C   UNL     1       1.794   3.147   3.634  0.00  0.00    +0.018 A 
ATOM     10  C   UNL     1       1.718   4.513   3.427  0.00  0.00    +0.017 A 
ATOM     11  C   UNL     1       1.475   5.015   2.165  0.00  0.00    +0.025 A 
ATOM     12  C   UNL     1       1.305   4.147   1.088  0.00  0.00    +0.038 A 
ATOM     13  N   UNL     1       1.053   4.406  -0.261  0.00  0.00    -0.284 N 
ATOM     14  C   UNL     1       0.954   3.276  -0.985  0.00  0.00    +0.237 C 
ATOM     15  O   UNL     1       0.740   3.199  -2.176  0.00  0.00    -0.274 OA
ATOM     16 BR   UNL     1       2.127   2.468   5.367  0.00  0.00    -0.050 Br
ATOM     17  C   UNL     1      -1.201  -0.922   0.064  0.00  0.00    +0.087 C 
ATOM     18  H   UNL     1       0.960   5.297  -0.633  0.00  0.00    +0.155 HD
ENDROOT
BRANCH   2  19
ATOM     19  N   UNL     1       3.448  -0.742  -0.759  0.00  0.00    -0.329 N 
ATOM     20  H   UNL     1       3.417  -1.711  -0.799  0.00  0.00    +0.145 HD
ATOM     21  H   UNL     1       4.267  -0.274  -0.984  0.00  0.00    +0.145 HD
ENDBRANCH   2  19
BRANCH   1  22
ATOM     22  C   UNL     1       3.531   1.980  -0.859  0.00  0.00    +0.342 C 
ATOM     23  O   UNL     1       4.252   2.531  -0.046  0.00  0.00    -0.245 OA
BRANCH  22  24
ATOM     24  O   UNL     1       3.852   2.002  -2.171  0.00  0.00    -0.462 OA
BRANCH  24  26
ATOM     25  C   UNL     1       5.247   2.608  -4.049  0.00  0.00    +0.048 C 
ATOM     26  C   UNL     1       5.051   2.690  -2.534  0.00  0.00    +0.229 C 
ENDBRANCH  24  26
ENDBRANCH  22  24
ENDBRANCH   1  22
BRANCH   5  27
ATOM     27  C   UNL     1      -1.346   1.844   0.013  0.00  0.00    +0.340 C 
ATOM     28  O   UNL     1      -2.339   1.146  -0.072  0.00  0.00    -0.245 OA
BRANCH  27  29
ATOM     29  O   UNL     1      -1.470   3.184   0.114  0.00  0.00    -0.457 OA
BRANCH  29  30
ATOM     30  C   UNL     1      -2.796   3.715   0.114  0.00  0.00    +0.259 C 
BRANCH  30  31
ATOM     31  C   UNL     1      -2.736   5.216   0.233  0.00  0.00    +0.006 C 
ATOM     32  C   UNL     1      -3.487   5.964  -0.537  0.00  0.00    +0.007 C 
ENDBRANCH  30  31
ENDBRANCH  29  30
ENDBRANCH  27  29
ENDBRANCH   5  27
TORSDOF 8
