REMARK  Name = ZINC08648560
REMARK  10 active torsions:
REMARK  status: ('A' for Active; 'I' for Inactive)
REMARK    1  A    between atoms: C_4  and  N_7
REMARK    2  A    between atoms: C_8  and  O_10
REMARK    3  A    between atoms: O_10  and  N_11
REMARK    4  A    between atoms: C_12  and  C_13
REMARK    5  A    between atoms: C_13  and  C_14
REMARK    6  A    between atoms: C_14  and  N_15
REMARK    7  A    between atoms: N_15  and  C_16
REMARK    8  A    between atoms: N_15  and  S_22
REMARK    9  A    between atoms: C_16  and  C_17
REMARK   10  A    between atoms: S_22  and  C_25
REMARK                            x       y       z     vdW  Elec       q    Type
REMARK                         _______ _______ _______ _____ _____    ______ ____
ROOT
ATOM      1  N   UNL     1       3.974  -8.149   0.649  0.00  0.00    -0.169 NA
ENDROOT
BRANCH   1   2
ATOM      2  S   UNL     1       3.766  -9.125  -0.672  0.00  0.00    +0.063 S 
ATOM      3  O   UNL     1       2.534  -9.808  -0.482  0.00  0.00    -0.153 OA
ATOM      4  O   UNL     1       4.023  -8.321  -1.815  0.00  0.00    -0.153 OA
BRANCH   2   5
ATOM      5  C   UNL     1       5.033 -10.348  -0.621  0.00  0.00    +0.134 A 
ATOM      6  C   UNL     1       4.705 -11.657  -0.514  0.00  0.00    +0.031 A 
ATOM      7  C   UNL     1       5.681 -12.652  -0.472  0.00  0.00    +0.004 A 
ATOM      8  C   UNL     1       7.000 -12.352  -0.535  0.00  0.00    +0.031 A 
ATOM      9  C   UNL     1       7.419 -10.999  -0.648  0.00  0.00    +0.102 A 
ATOM     10  C   UNL     1       6.398  -9.959  -0.698  0.00  0.00    +0.126 A 
ATOM     11  N   UNL     1       6.905  -8.731  -0.810  0.00  0.00    -0.189 NA
ATOM     12  S   UNL     1       8.502  -8.923  -0.850  0.00  0.00    +0.117 S 
ATOM     13  N   UNL     1       8.661 -10.519  -0.722  0.00  0.00    -0.191 NA
ENDBRANCH   2   5
ENDBRANCH   1   2
BRANCH   1  14
ATOM     14  C   UNL     1       4.873  -6.995   0.573  0.00  0.00    +0.117 C 
BRANCH  14  15
ATOM     15  C   UNL     1       6.066  -7.215   1.506  0.00  0.00    +0.091 C 
BRANCH  15  17
ATOM     16  N   UNL     1       6.688  -5.021   0.674  0.00  0.00    -0.063 NA
ATOM     17  C   UNL     1       6.981  -6.019   1.442  0.00  0.00    +0.134 C 
ATOM     18  N   UNL     1       8.128  -5.989   2.201  0.00  0.00    -0.344 N 
ATOM     19  H   UNL     1       8.716  -5.220   2.160  0.00  0.00    +0.144 HD
ATOM     20  H   UNL     1       8.347  -6.738   2.777  0.00  0.00    +0.144 HD
BRANCH  16  21
ATOM     21  O   UNL     1       7.548  -3.898   0.614  0.00  0.00    -0.297 OA
BRANCH  21  23
ATOM     22  N   UNL     1       7.855  -1.807  -0.372  0.00  0.00    -0.249 N 
ATOM     23  C   UNL     1       7.127  -2.931  -0.223  0.00  0.00    +0.430 C 
ATOM     24  O   UNL     1       6.092  -3.072  -0.843  0.00  0.00    -0.224 OA
ATOM     25  H   UNL     1       8.715  -1.723   0.069  0.00  0.00    +0.158 HD
BRANCH  22  29
ATOM     26  C   UNL     1       6.411   1.311  -2.729  0.00  0.00    +0.000 A 
ATOM     27  C   UNL     1       5.531   0.533  -2.000  0.00  0.00    +0.002 A 
ATOM     28  C   UNL     1       6.006  -0.502  -1.218  0.00  0.00    +0.023 A 
ATOM     29  C   UNL     1       7.370  -0.760  -1.165  0.00  0.00    +0.037 A 
ATOM     30  C   UNL     1       8.251   0.023  -1.899  0.00  0.00    +0.023 A 
ATOM     31  C   UNL     1       7.769   1.056  -2.679  0.00  0.00    +0.002 A 
ENDBRANCH  22  29
ENDBRANCH  21  23
ENDBRANCH  16  21
ENDBRANCH  15  17
ENDBRANCH  14  15
ENDBRANCH   1  14
BRANCH   1  32
ATOM     32  C   UNL     1       3.259  -8.439   1.895  0.00  0.00    +0.183 C 
BRANCH  32  33
ATOM     33  C   UNL     1       1.989  -7.630   1.946  0.00  0.00    +0.120 A 
ATOM     34  C   UNL     1       0.789  -8.019   1.480  0.00  0.00    +0.046 A 
ATOM     35  C   UNL     1      -0.112  -6.958   1.732  0.00  0.00    +0.041 A 
ATOM     36  C   UNL     1       0.592  -5.985   2.337  0.00  0.00    +0.195 A 
ATOM     37  O   UNL     1       1.863  -6.399   2.469  0.00  0.00    -0.466 OA
ENDBRANCH  32  33
ENDBRANCH   1  32
TORSDOF 10
