REMARK  Name = ZINC63296268
REMARK  6 active torsions:
REMARK  status: ('A' for Active; 'I' for Inactive)
REMARK    1  A    between atoms: C_3  and  N_10
REMARK    2  A    between atoms: C_6  and  C_7
REMARK    3  A    between atoms: C_7  and  C_8
REMARK    4  A    between atoms: C_8  and  O_9
REMARK    5  A    between atoms: C_11  and  C_13
REMARK    6  A    between atoms: C_13  and  N_14
REMARK                            x       y       z     vdW  Elec       q    Type
REMARK                         _______ _______ _______ _____ _____    ______ ____
ROOT
ATOM      1  N   UNL     1       7.172   1.306   0.247  0.00  0.00    -0.291 N 
ATOM      2  C   UNL     1       8.432   1.774   0.353  0.00  0.00    +0.303 C 
ATOM      3  O   UNL     1       8.629   2.968   0.473  0.00  0.00    -0.253 OA
ATOM      4  N   UNL     1       9.473   0.919   0.326  0.00  0.00    -0.283 N 
ATOM      5  C   UNL     1       9.224  -0.526   0.293  0.00  0.00    +0.114 C 
ATOM      6  C   UNL     1       9.910  -1.193   1.499  0.00  0.00    +0.052 C 
ATOM      7  C   UNL     1      11.300  -0.611   1.582  0.00  0.00    -0.035 C 
ATOM      8  C   UNL     1      12.491  -1.192   1.655  0.00  0.00    +0.001 A 
ATOM      9  C   UNL     1      12.887  -2.603   1.792  0.00  0.00    +0.030 A 
ATOM     10  C   UNL     1      14.224  -2.852   1.817  0.00  0.00    +0.042 A 
ATOM     11  C   UNL     1      15.195  -1.848   1.720  0.00  0.00    +0.022 A 
ATOM     12  C   UNL     1      14.921  -0.525   1.600  0.00  0.00    +0.027 A 
ATOM     13  C   UNL     1      13.549  -0.139   1.571  0.00  0.00    +0.043 A 
ATOM     14  N   UNL     1      13.009   1.041   1.488  0.00  0.00    -0.376 N 
ATOM     15  C   UNL     1      11.556   0.891   1.572  0.00  0.00    +0.124 C 
ATOM     16  C   UNL     1      10.847   1.445   0.326  0.00  0.00    +0.138 C 
ATOM     17 CL   UNL     1      14.753  -4.497   1.978  0.00  0.00    -0.084 Cl
ATOM     18  H   UNL     1       7.011   0.350   0.224  0.00  0.00    +0.151 HD
ATOM     19  H   UNL     1      13.488   1.879   1.388  0.00  0.00    +0.160 HD
ENDROOT
BRANCH   1  20
ATOM     20  C   UNL     1       6.048   2.241   0.166  0.00  0.00    +0.202 C 
BRANCH  20  22
ATOM     21  N   UNL     1       3.585   2.125  -0.034  0.00  0.00    -0.284 N 
ATOM     22  C   UNL     1       4.759   1.469   0.054  0.00  0.00    +0.234 C 
ATOM     23  O   UNL     1       4.778   0.256   0.043  0.00  0.00    -0.274 OA
ATOM     24  H   UNL     1       3.574   3.093  -0.100  0.00  0.00    +0.155 HD
BRANCH  21  27
ATOM     25  C   UNL     1       1.081  -0.463   0.710  0.00  0.00    +0.005 A 
ATOM     26  C   UNL     1       2.271   0.240   0.708  0.00  0.00    +0.023 A 
ATOM     27  C   UNL     1       2.382   1.411  -0.030  0.00  0.00    +0.033 A 
ATOM     28  C   UNL     1       1.296   1.872  -0.763  0.00  0.00    +0.023 A 
ATOM     29  C   UNL     1       0.110   1.165  -0.757  0.00  0.00    +0.005 A 
ATOM     30  C   UNL     1       0.003  -0.001  -0.021  0.00  0.00    -0.045 A 
BRANCH  30  31
ATOM     31  C   UNL     1      -1.294  -0.770  -0.016  0.00  0.00    +0.063 C 
BRANCH  31  32
ATOM     32  C   UNL     1      -2.180  -0.269   1.126  0.00  0.00    +0.160 C 
BRANCH  32  33
ATOM     33  O   UNL     1      -3.409  -0.998   1.130  0.00  0.00    -0.395 OA
ATOM     34  H   UNL     1      -4.021  -0.733   1.830  0.00  0.00    +0.209 HD
ENDBRANCH  32  33
ENDBRANCH  31  32
ENDBRANCH  30  31
ENDBRANCH  21  27
ENDBRANCH  20  22
ENDBRANCH   1  20
TORSDOF 6
