REMARK  Name = ZINC07187213
REMARK  10 active torsions:
REMARK  status: ('A' for Active; 'I' for Inactive)
REMARK    1  A    between atoms: C_1  and  C_2
REMARK    2  A    between atoms: C_2  and  C_4
REMARK    3  A    between atoms: C_2  and  O_15
REMARK    4  A    between atoms: N_6  and  C_7
REMARK    5  A    between atoms: C_7  and  C_8
REMARK    6  A    between atoms: O_15  and  C_16
REMARK    7  A    between atoms: C_16  and  C_18
REMARK    8  A    between atoms: C_20  and  N_26
REMARK    9  A    between atoms: C_23  and  N_24
REMARK   10  A    between atoms: N_24  and  C_25
REMARK                            x       y       z     vdW  Elec       q    Type
REMARK                         _______ _______ _______ _____ _____    ______ ____
ROOT
ATOM      1  O   UNL     1      -4.624  -0.446  -0.151  0.00  0.00    -0.449 OA
ENDROOT
BRANCH   1   3
ATOM      2  C   UNL     1      -6.314  -1.419  -1.609  0.00  0.00    +0.062 C 
ATOM      3  C   UNL     1      -5.825  -1.263  -0.168  0.00  0.00    +0.259 C 
BRANCH   3   4
ATOM      4  C   UNL     1      -5.516  -2.621   0.407  0.00  0.00    +0.254 C 
ATOM      5  O   UNL     1      -4.395  -2.876   0.794  0.00  0.00    -0.272 OA
ATOM      6  N   UNL     1      -6.486  -3.553   0.492  0.00  0.00    -0.308 N 
ATOM      7  H   UNL     1      -7.383  -3.349   0.183  0.00  0.00    +0.149 HD
BRANCH   6   8
ATOM      8  C   UNL     1      -6.186  -4.873   1.051  0.00  0.00    +0.141 C 
BRANCH   8   9
ATOM      9  C   UNL     1      -7.432  -5.721   1.033  0.00  0.00    -0.012 A 
ATOM     10  C   UNL     1      -8.177  -5.881   2.187  0.00  0.00    +0.006 A 
ATOM     11  C   UNL     1      -9.322  -6.655   2.169  0.00  0.00    +0.000 A 
ATOM     12  C   UNL     1      -9.718  -7.278   1.000  0.00  0.00    +0.001 A 
ATOM     13  C   UNL     1      -8.971  -7.123  -0.152  0.00  0.00    +0.020 A 
ATOM     14  C   UNL     1      -7.828  -6.345  -0.137  0.00  0.00    +0.046 A 
ATOM     15 CL   UNL     1      -6.889  -6.151  -1.584  0.00  0.00    -0.083 Cl
ENDBRANCH   8   9
ENDBRANCH   6   8
ENDBRANCH   3   4
ENDBRANCH   1   3
BRANCH   1  16
ATOM     16  C   UNL     1      -4.792   0.885  -0.021  0.00  0.00    +0.342 C 
ATOM     17  O   UNL     1      -5.910   1.350   0.075  0.00  0.00    -0.245 OA
BRANCH  16  18
ATOM     18  C   UNL     1      -3.619   1.776   0.004  0.00  0.00    +0.082 A 
ATOM     19  C   UNL     1      -2.328   1.239   0.018  0.00  0.00    +0.049 A 
ATOM     20  C   UNL     1      -1.236   2.078   0.041  0.00  0.00    +0.127 A 
ATOM     21  C   UNL     1      -1.409   3.453   0.057  0.00  0.00    +0.034 A 
ATOM     22  C   UNL     1      -2.676   3.999   0.039  0.00  0.00    +0.026 A 
ATOM     23  C   UNL     1      -3.791   3.169   0.015  0.00  0.00    +0.041 A 
BRANCH  23  24
ATOM     24  N   UNL     1      -5.067   3.716   0.002  0.00  0.00    -0.346 N 
ATOM     25  C   UNL     1      -5.242   5.166  -0.112  0.00  0.00    +0.125 C 
ATOM     26  H   UNL     1      -5.843   3.137   0.067  0.00  0.00    +0.146 HD
ENDBRANCH  23  24
BRANCH  20  27
ATOM     27  N   UNL     1       0.130   1.508   0.055  0.00  0.00    +0.056 N 
ATOM     28  O   UNL     1       0.285   0.300   0.046  0.00  0.00    -0.126 OA
ATOM     29  O   UNL     1       1.098   2.246   0.071  0.00  0.00    -0.126 OA
ENDBRANCH  20  27
ENDBRANCH  16  18
ENDBRANCH   1  16
TORSDOF 8
