REMARK  Name = ZINC23280306
REMARK  5 active torsions:
REMARK  status: ('A' for Active; 'I' for Inactive)
REMARK    1  A    between atoms: C_4  and  N_21
REMARK    2  A    between atoms: C_5  and  C_7
REMARK    3  A    between atoms: C_10  and  C_12
REMARK    4  A    between atoms: C_12  and  N_13
REMARK    5  A    between atoms: N_13  and  C_14
REMARK                            x       y       z     vdW  Elec       q    Type
REMARK                         _______ _______ _______ _____ _____    ______ ____
ROOT
ATOM      1  C   UNL     1       1.172   3.564   0.009  0.00  0.00    +0.137 A 
ATOM      2  C   UNL     1       0.450   4.360  -0.823  0.00  0.00    +0.050 A 
ATOM      3  C   UNL     1       0.740   5.692  -0.464  0.00  0.00    +0.047 A 
ATOM      4  C   UNL     1       1.615   5.643   0.559  0.00  0.00    +0.123 A 
ATOM      5  O   UNL     1       1.870   4.356   0.846  0.00  0.00    -0.458 OA
ENDROOT
BRANCH   1  10
ATOM      6  C   UNL     1       0.002  -0.004   0.002  0.00  0.00    +0.001 A 
ATOM      7  C   UNL     1       1.208  -0.683  -0.014  0.00  0.00    +0.002 A 
ATOM      8  C   UNL     1       2.402   0.016  -0.021  0.00  0.00    +0.033 A 
ATOM      9  C   UNL     1       2.397   1.396  -0.012  0.00  0.00    +0.137 A 
ATOM     10  C   UNL     1       1.185   2.086   0.002  0.00  0.00    +0.047 A 
ATOM     11  C   UNL     1      -0.017   1.375   0.010  0.00  0.00    +0.014 A 
BRANCH   9  12
ATOM     12  N   UNL     1       3.676   2.142  -0.019  0.00  0.00    +0.057 N 
ATOM     13  O   UNL     1       4.734   1.538  -0.032  0.00  0.00    -0.126 OA
ATOM     14  O   UNL     1       3.670   3.360  -0.012  0.00  0.00    -0.126 OA
ENDBRANCH   9  12
ENDBRANCH   1  10
BRANCH   4  15
ATOM     15  C   UNL     1       2.206   6.835   1.267  0.00  0.00    +0.176 C 
BRANCH  15  16
ATOM     16  N   UNL     1       1.348   7.208   2.394  0.00  0.00    -0.337 N 
ATOM     17  H   UNL     1       0.432   6.635   2.602  0.00  0.00    +0.147 HD
BRANCH  16  18
ATOM     18  C   UNL     1       1.693   8.292   3.205  0.00  0.00    +0.030 A 
ATOM     19  C   UNL     1       0.880   8.647   4.275  0.00  0.00    +0.023 A 
ATOM     20  C   UNL     1       1.222   9.719   5.075  0.00  0.00    +0.005 A 
ATOM     21  C   UNL     1       2.373  10.439   4.815  0.00  0.00    +0.038 A 
ATOM     22  C   UNL     1       3.187  10.088   3.751  0.00  0.00    +0.125 A 
ATOM     23  C   UNL     1       2.851   9.013   2.948  0.00  0.00    +0.061 A 
ATOM     24  F   UNL     1       4.311  10.794   3.499  0.00  0.00    -0.205 F 
ENDBRANCH  16  18
ENDBRANCH  15  16
ENDBRANCH   4  15
TORSDOF 5
