REMARK  Name = ZINC40457662
REMARK  5 active torsions:
REMARK  status: ('A' for Active; 'I' for Inactive)
REMARK    1  A    between atoms: C_4  and  C_7
REMARK    2  A    between atoms: C_7  and  N_8
REMARK    3  A    between atoms: C_12  and  C_13
REMARK    4  A    between atoms: C_18  and  C_19
REMARK    5  A    between atoms: C_23  and  N_25
REMARK                            x       y       z     vdW  Elec       q    Type
REMARK                         _______ _______ _______ _____ _____    ______ ____
ROOT
ATOM      1  N   UNL     1       4.152  -0.952   1.338  0.00  0.00    -0.224 N 
ATOM      2  C   UNL     1       4.905  -0.052   1.946  0.00  0.00    +0.261 C 
ATOM      3  O   UNL     1       5.243   0.978   1.391  0.00  0.00    -0.269 OA
ATOM      4  C   UNL     1       5.316  -0.356   3.328  0.00  0.00    +0.080 C 
ATOM      5  C   UNL     1       6.078   0.372   4.185  0.00  0.00    +0.032 C 
ATOM      6  S   UNL     1       4.535  -1.946   3.568  0.00  0.00    -0.026 S 
ATOM      7  C   UNL     1       3.775  -2.089   1.958  0.00  0.00    +0.286 C 
ATOM      8  O   UNL     1       3.087  -2.994   1.525  0.00  0.00    -0.262 OA
ENDROOT
BRANCH   5   9
ATOM      9  C   UNL     1       6.359  -0.138   5.531  0.00  0.00    +0.021 A 
ATOM     10  C   UNL     1       5.928  -1.336   6.070  0.00  0.00    +0.113 A 
ATOM     11  N   UNL     1       6.405  -1.418   7.324  0.00  0.00    -0.284 N 
ATOM     12  H   UNL     1       6.253  -2.159   7.932  0.00  0.00    +0.188 HD
ATOM     13  N   UNL     1       7.152  -0.275   7.619  0.00  0.00    -0.173 NA
ATOM     14  C   UNL     1       7.158   0.519   6.572  0.00  0.00    +0.100 A 
BRANCH  14  15
ATOM     15  C   UNL     1       7.840   1.831   6.464  0.00  0.00    +0.005 A 
ATOM     16  C   UNL     1       8.391   2.235   5.248  0.00  0.00    +0.010 A 
ATOM     17  C   UNL     1       9.024   3.457   5.154  0.00  0.00    +0.003 A 
ATOM     18  C   UNL     1       9.113   4.281   6.261  0.00  0.00    +0.033 A 
ATOM     19  C   UNL     1       8.568   3.886   7.470  0.00  0.00    +0.127 A 
ATOM     20  C   UNL     1       7.927   2.668   7.575  0.00  0.00    +0.042 A 
BRANCH  19  21
ATOM     21  N   UNL     1       8.666   4.773   8.650  0.00  0.00    +0.056 N 
ATOM     22  O   UNL     1       9.223   5.843   8.558  0.00  0.00    -0.126 OA
ATOM     23  O   UNL     1       8.190   4.429   9.707  0.00  0.00    -0.126 OA
ENDBRANCH  19  21
ENDBRANCH  14  15
ENDBRANCH   5   9
BRANCH   1  24
ATOM     24  C   UNL     1       3.711  -0.707  -0.038  0.00  0.00    +0.152 C 
BRANCH  24  28
ATOM     25  C   UNL     1      -0.017   1.378   0.010  0.00  0.00    +0.000 A 
ATOM     26  C   UNL     1       1.171   2.086   0.002  0.00  0.00    +0.000 A 
ATOM     27  C   UNL     1       2.377   1.411  -0.013  0.00  0.00    +0.005 A 
ATOM     28  C   UNL     1       2.396   0.029  -0.020  0.00  0.00    -0.030 A 
ATOM     29  C   UNL     1       1.208  -0.679  -0.012  0.00  0.00    +0.005 A 
ATOM     30  C   UNL     1       0.002  -0.004   0.002  0.00  0.00    +0.000 A 
ENDBRANCH  24  28
ENDBRANCH   1  24
TORSDOF 5
