REMARK  Name = ZINC36201863
REMARK  13 active torsions:
REMARK  status: ('A' for Active; 'I' for Inactive)
REMARK    1  A    between atoms: C_1  and  C_2
REMARK    2  A    between atoms: C_2  and  C_3
REMARK    3  A    between atoms: C_3  and  C_4
REMARK    4  A    between atoms: C_4  and  N_5
REMARK    5  A    between atoms: C_6  and  C_27
REMARK    6  A    between atoms: C_9  and  S_10
REMARK    7  A    between atoms: S_10  and  C_11
REMARK    8  A    between atoms: C_11  and  C_12
REMARK    9  A    between atoms: N_14  and  N_15
REMARK   10  A    between atoms: C_16  and  C_18
REMARK   11  A    between atoms: C_21  and  N_24
REMARK   12  A    between atoms: C_30  and  O_33
REMARK   13  A    between atoms: O_33  and  C_34
REMARK                            x       y       z     vdW  Elec       q    Type
REMARK                         _______ _______ _______ _____ _____    ______ ____
ROOT
ATOM      1  S   UNL     1      -3.212  -2.421  -2.747  0.00  0.00    -0.077 S 
ENDROOT
BRANCH   1   6
ATOM      2  N   UNL     1      -2.792  -2.556   0.016  0.00  0.00    -0.302 N 
ATOM      3  C   UNL     1      -3.525  -2.949   1.112  0.00  0.00    +0.165 A 
ATOM      4  N   UNL     1      -4.694  -3.351   0.670  0.00  0.00    -0.128 NA
ATOM      5  N   UNL     1      -4.742  -3.239  -0.609  0.00  0.00    -0.122 NA
ATOM      6  C   UNL     1      -3.608  -2.753  -1.062  0.00  0.00    +0.192 A 
BRANCH   3   7
ATOM      7  C   UNL     1      -3.081  -2.923   2.522  0.00  0.00    +0.020 A 
ATOM      8  C   UNL     1      -3.735  -3.704   3.477  0.00  0.00    +0.015 A 
ATOM      9  C   UNL     1      -3.317  -3.677   4.790  0.00  0.00    +0.046 A 
ATOM     10  C   UNL     1      -2.247  -2.875   5.164  0.00  0.00    +0.120 A 
ATOM     11  C   UNL     1      -1.594  -2.096   4.217  0.00  0.00    +0.046 A 
ATOM     12  C   UNL     1      -2.002  -2.122   2.901  0.00  0.00    +0.015 A 
BRANCH  10  13
ATOM     13  O   UNL     1      -1.838  -2.851   6.459  0.00  0.00    -0.495 OA
ATOM     14  C   UNL     1      -0.731  -2.003   6.775  0.00  0.00    +0.277 C 
ENDBRANCH  10  13
ENDBRANCH   3   7
BRANCH   2  15
ATOM     15  C   UNL     1      -1.425  -2.031   0.008  0.00  0.00    +0.126 C 
BRANCH  15  16
ATOM     16  C   UNL     1      -1.465  -0.502   0.039  0.00  0.00    +0.021 C 
BRANCH  16  18
ATOM     17  C   UNL     1      -0.077   1.575   0.061  0.00  0.00    +0.004 C 
ATOM     18  C   UNL     1      -0.037   0.046   0.030  0.00  0.00    -0.002 C 
ENDBRANCH  16  18
ENDBRANCH  15  16
ENDBRANCH   2  15
ENDBRANCH   1   6
BRANCH   1  19
ATOM     19  C   UNL     1      -4.710  -2.897  -3.652  0.00  0.00    +0.174 C 
BRANCH  19  20
ATOM     20  C   UNL     1      -4.503  -2.660  -5.125  0.00  0.00    +0.239 C 
ATOM     21  O   UNL     1      -3.449  -2.214  -5.526  0.00  0.00    -0.273 OA
ATOM     22  N   UNL     1      -5.490  -2.944  -5.999  0.00  0.00    -0.233 N 
ATOM     23  H   UNL     1      -6.333  -3.302  -5.678  0.00  0.00    +0.173 HD
BRANCH  22  24
ATOM     24  N   UNL     1      -5.297  -2.724  -7.369  0.00  0.00    -0.230 N 
ATOM     25  C   UNL     1      -6.284  -3.008  -8.242  0.00  0.00    +0.260 C 
ATOM     26  O   UNL     1      -7.340  -3.456  -7.841  0.00  0.00    -0.269 OA
ATOM     27  H   UNL     1      -4.454  -2.367  -7.689  0.00  0.00    +0.173 HD
BRANCH  25  28
ATOM     28  C   UNL     1      -6.081  -2.775  -9.688  0.00  0.00    +0.038 A 
ATOM     29  C   UNL     1      -4.867  -2.267 -10.152  0.00  0.00    +0.015 A 
ATOM     30  C   UNL     1      -4.684  -2.053 -11.503  0.00  0.00    +0.033 A 
ATOM     31  C   UNL     1      -5.701  -2.340 -12.396  0.00  0.00    +0.126 A 
ATOM     32  C   UNL     1      -6.907  -2.844 -11.942  0.00  0.00    +0.033 A 
ATOM     33  C   UNL     1      -7.101  -3.068 -10.595  0.00  0.00    +0.015 A 
BRANCH  31  34
ATOM     34  N   UNL     1      -5.498  -2.106 -13.844  0.00  0.00    +0.056 N 
ATOM     35  O   UNL     1      -4.446  -1.666 -14.243  0.00  0.00    -0.126 OA
ATOM     36  O   UNL     1      -6.385  -2.357 -14.626  0.00  0.00    -0.126 OA
ENDBRANCH  31  34
ENDBRANCH  25  28
ENDBRANCH  22  24
ENDBRANCH  19  20
ENDBRANCH   1  19
TORSDOF 11
