REMARK  Name = ZINC40913628
REMARK  8 active torsions:
REMARK  status: ('A' for Active; 'I' for Inactive)
REMARK    1  A    between atoms: C_1  and  C_2
REMARK    2  A    between atoms: C_4  and  N_27
REMARK    3  A    between atoms: C_7  and  N_8
REMARK    4  A    between atoms: C_9  and  C_11
REMARK    5  A    between atoms: C_11  and  C_13
REMARK    6  A    between atoms: C_11  and  O_14
REMARK    7  A    between atoms: O_14  and  C_15
REMARK    8  A    between atoms: C_19  and  C_26
REMARK                            x       y       z     vdW  Elec       q    Type
REMARK                         _______ _______ _______ _____ _____    ______ ____
ROOT
ATOM      1  C   UNL     1      -0.173   0.050   4.880  0.00  0.00    +0.256 C 
ATOM      2  C   UNL     1       0.945   1.030   5.242  0.00  0.00    +0.062 C 
ENDROOT
BRANCH   1   4
ATOM      3  N   UNL     1       0.326  -0.033   2.458  0.00  0.00    -0.282 N 
ATOM      4  C   UNL     1       0.200  -0.696   3.625  0.00  0.00    +0.258 C 
ATOM      5  O   UNL     1       0.388  -1.894   3.665  0.00  0.00    -0.271 OA
ATOM      6  H   UNL     1       0.242   0.933   2.438  0.00  0.00    +0.155 HD
BRANCH   3  13
ATOM      7  C   UNL     1      -0.704   1.017   0.022  0.00  0.00    +0.046 C 
ATOM      8  C   UNL     1       0.093  -0.262   0.065  0.00  0.00    -0.027 A 
ATOM      9  C   UNL     1       0.347  -0.957  -1.101  0.00  0.00    +0.038 A 
ATOM     10  C   UNL     1       1.078  -2.130  -1.062  0.00  0.00    +0.127 A 
ATOM     11  C   UNL     1       1.557  -2.611   0.143  0.00  0.00    +0.034 A 
ATOM     12  C   UNL     1       1.307  -1.920   1.312  0.00  0.00    +0.026 A 
ATOM     13  C   UNL     1       0.577  -0.738   1.276  0.00  0.00    +0.037 A 
BRANCH  10  14
ATOM     14  N   UNL     1       1.348  -2.874  -2.313  0.00  0.00    +0.056 N 
ATOM     15  O   UNL     1       0.929  -2.455  -3.368  0.00  0.00    -0.126 OA
ATOM     16  O   UNL     1       1.987  -3.900  -2.281  0.00  0.00    -0.126 OA
ENDBRANCH  10  14
ENDBRANCH   3  13
ENDBRANCH   1   4
BRANCH   1  17
ATOM     17  O   UNL     1      -0.357  -0.879   5.949  0.00  0.00    -0.480 OA
BRANCH  17  18
ATOM     18  C   UNL     1      -1.158  -0.488   6.974  0.00  0.00    +0.125 A 
ATOM     19  C   UNL     1      -1.461  -1.387   7.996  0.00  0.00    +0.046 A 
ATOM     20  C   UNL     1      -2.264  -1.009   9.032  0.00  0.00    +0.015 A 
ATOM     21  C   UNL     1      -2.787   0.289   9.070  0.00  0.00    +0.021 A 
ATOM     22  C   UNL     1      -3.652   0.722  10.170  0.00  0.00    -0.033 A 
ATOM     23  C   UNL     1      -4.128   1.994  10.149  0.00  0.00    +0.096 A 
ATOM     24  C   UNL     1      -3.784   2.854   9.087  0.00  0.00    +0.337 A 
ATOM     25  O   UNL     1      -4.217   3.993   9.081  0.00  0.00    -0.245 OA
ATOM     26  O   UNL     1      -2.990   2.451   8.082  0.00  0.00    -0.422 OA
ATOM     27  C   UNL     1      -2.485   1.200   8.041  0.00  0.00    +0.143 A 
ATOM     28  C   UNL     1      -1.662   0.802   6.998  0.00  0.00    +0.092 A 
ATOM     29  C   UNL     1      -4.004  -0.219  11.293  0.00  0.00    +0.045 C 
ENDBRANCH  17  18
ENDBRANCH   1  17
TORSDOF 5
