REMARK  Name = ZINC59011844
REMARK  5 active torsions:
REMARK  status: ('A' for Active; 'I' for Inactive)
REMARK    1  A    between atoms: C_3  and  O_11
REMARK    2  A    between atoms: C_6  and  N_7
REMARK    3  A    between atoms: O_11  and  C_12
REMARK    4  A    between atoms: C_12  and  C_13
REMARK    5  A    between atoms: N_15  and  C_16
REMARK                            x       y       z     vdW  Elec       q    Type
REMARK                         _______ _______ _______ _____ _____    ______ ____
ROOT
ATOM      1  C   UNL     1       4.839   4.128  -0.030  0.00  0.00    +0.255 C 
ATOM      2  O   UNL     1       5.811   3.403  -0.039  0.00  0.00    -0.272 OA
ATOM      3  N   UNL     1       4.997   5.467  -0.018  0.00  0.00    -0.281 N 
ATOM      4  H   UNL     1       4.222   6.047  -0.076  0.00  0.00    +0.155 HD
ENDROOT
BRANCH   3   5
ATOM      5  C   UNL     1       6.281   6.020   0.078  0.00  0.00    +0.056 A 
ATOM      6  C   UNL     1       7.358   5.385  -0.528  0.00  0.00    +0.074 A 
ATOM      7  C   UNL     1       8.623   5.937  -0.430  0.00  0.00    +0.164 A 
ATOM      8  C   UNL     1       8.815   7.119   0.271  0.00  0.00    +0.163 A 
ATOM      9  C   UNL     1       7.743   7.753   0.875  0.00  0.00    +0.071 A 
ATOM     10  C   UNL     1       6.475   7.206   0.774  0.00  0.00    +0.066 A 
ATOM     11 CL   UNL     1       5.127   8.001   1.525  0.00  0.00    -0.082 Cl
ATOM     12  O   UNL     1      10.069   7.654   0.359  0.00  0.00    -0.488 OA
ATOM     13  C   UNL     1      11.009   6.915   1.140  0.00  0.00    +0.232 C 
ATOM     14  C   UNL     1      11.658   5.819   0.309  0.00  0.00    +0.082 C 
ATOM     15  C   UNL     1      10.659   4.762  -0.136  0.00  0.00    +0.232 C 
ATOM     16  O   UNL     1       9.688   5.323  -1.022  0.00  0.00    -0.488 OA
ENDBRANCH   3   5
BRANCH   1  17
ATOM     17  C   UNL     1       3.455   3.533  -0.031  0.00  0.00    +0.325 C 
BRANCH  17  18
ATOM     18  O   UNL     1       3.549   2.107  -0.044  0.00  0.00    -0.480 OA
BRANCH  18  21
ATOM     19  C   UNL     1      -0.015   1.376  -0.041  0.00  0.00    +0.036 A 
ATOM     20  C   UNL     1       1.171   2.086  -0.037  0.00  0.00    +0.051 A 
ATOM     21  C   UNL     1       2.381   1.411  -0.047  0.00  0.00    +0.156 A 
ATOM     22  C   UNL     1       2.399   0.022  -0.060  0.00  0.00    +0.167 A 
ATOM     23  C   UNL     1       1.210  -0.683  -0.063  0.00  0.00    +0.074 A 
ATOM     24  C   UNL     1       0.004  -0.006  -0.054  0.00  0.00    +0.129 A 
ATOM     25  F   UNL     1       3.577  -0.639  -0.070  0.00  0.00    -0.202 F 
BRANCH  24  26
ATOM     26  N   UNL     1      -1.268  -0.762  -0.057  0.00  0.00    +0.057 N 
ATOM     27  O   UNL     1      -2.323  -0.171  -0.049  0.00  0.00    -0.126 OA
ATOM     28  O   UNL     1      -1.253  -1.971  -0.068  0.00  0.00    -0.126 OA
ENDBRANCH  24  26
ENDBRANCH  18  21
ENDBRANCH  17  18
ENDBRANCH   1  17
TORSDOF 5
