REMARK  Name = ZINC20814553
REMARK  5 active torsions:
REMARK  status: ('A' for Active; 'I' for Inactive)
REMARK    1  A    between atoms: C_1  and  N_2
REMARK    2  A    between atoms: C_7  and  C_28
REMARK    3  A    between atoms: C_9  and  N_27
REMARK    4  A    between atoms: C_10  and  C_14
REMARK    5  A    between atoms: N_16  and  C_17
REMARK                            x       y       z     vdW  Elec       q    Type
REMARK                         _______ _______ _______ _____ _____    ______ ____
ROOT
ATOM      1  C   UNL     1       2.616  -0.009  -4.184  0.00  0.00    +0.105 C 
ATOM      2  N   UNL     1       2.155  -0.748  -3.001  0.00  0.00    -0.301 NA
ATOM      3  C   UNL     1       1.430  -1.968  -3.391  0.00  0.00    +0.090 C 
ATOM      4  C   UNL     1       1.300  -2.869  -2.162  0.00  0.00    +0.071 C 
ATOM      5  C   UNL     1       0.751  -2.079  -1.001  0.00  0.00    +0.049 A 
ATOM      6  C   UNL     1       0.760  -0.701  -0.996  0.00  0.00    -0.003 A 
ATOM      7  C   UNL     1       0.248  -0.004   0.102  0.00  0.00    +0.006 A 
ATOM      8  C   UNL     1      -0.275  -0.740   1.209  0.00  0.00    +0.038 A 
ATOM      9  C   UNL     1      -0.845  -0.238   2.446  0.00  0.00    +0.054 A 
ATOM     10  C   UNL     1      -1.290  -1.152   3.379  0.00  0.00    +0.097 A 
ATOM     11  S   UNL     1      -0.962  -2.723   2.604  0.00  0.00    -0.062 S 
ATOM     12  C   UNL     1      -0.239  -2.146   1.089  0.00  0.00    +0.112 A 
ATOM     13  N   UNL     1       0.255  -2.749   0.031  0.00  0.00    -0.244 NA
ATOM     14  C   UNL     1       1.308   0.095  -2.152  0.00  0.00    +0.121 C 
ENDROOT
BRANCH   7  15
ATOM     15  C   UNL     1       0.253   1.469   0.119  0.00  0.00    +0.020 A 
ATOM     16  C   UNL     1      -0.805   2.338   0.028  0.00  0.00    +0.016 A 
ATOM     17  C   UNL     1      -0.555   3.690   0.072  0.00  0.00    +0.008 A 
ATOM     18  C   UNL     1       0.728   4.123   0.193  0.00  0.00    +0.046 A 
ATOM     19  S   UNL     1       1.637   2.588   0.257  0.00  0.00    -0.097 S 
ENDBRANCH   7  15
BRANCH  10  20
ATOM     20  C   UNL     1      -1.877  -0.901   4.643  0.00  0.00    +0.253 C 
ATOM     21  O   UNL     1      -2.041   0.245   5.022  0.00  0.00    -0.270 OA
ATOM     22  N   UNL     1      -2.254  -1.931   5.427  0.00  0.00    -0.305 N 
ATOM     23  H   UNL     1      -2.107  -2.966   5.085  0.00  0.00    +0.150 HD
BRANCH  22  24
ATOM     24  C   UNL     1      -2.861  -1.671   6.735  0.00  0.00    +0.036 C 
ATOM     25  C   UNL     1      -4.144  -0.858   6.550  0.00  0.00    +0.029 C 
ATOM     26  C   UNL     1      -4.778  -0.587   7.915  0.00  0.00    -0.008 C 
ATOM     27  C   UNL     1      -5.111  -1.917   8.596  0.00  0.00    +0.007 C 
ATOM     28  C   UNL     1      -3.828  -2.730   8.781  0.00  0.00    -0.008 C 
ATOM     29  C   UNL     1      -3.194  -3.001   7.415  0.00  0.00    +0.029 C 
ATOM     30  C   UNL     1      -2.846  -1.943   9.652  0.00  0.00    +0.007 C 
ATOM     31  C   UNL     1      -2.514  -0.613   8.971  0.00  0.00    -0.008 C 
ATOM     32  C   UNL     1      -3.796   0.200   8.786  0.00  0.00    +0.007 C 
ATOM     33  C   UNL     1      -1.880  -0.884   7.605  0.00  0.00    +0.029 C 
ENDBRANCH  22  24
ENDBRANCH  10  20
BRANCH   9  34
ATOM     34  N   UNL     1      -0.939   1.126   2.684  0.00  0.00    -0.356 N 
ATOM     35  H   UNL     1      -1.374   1.491   3.627  0.00  0.00    +0.142 HD
ATOM     36  H   UNL     1      -0.580   1.842   1.931  0.00  0.00    +0.142 HD
ENDBRANCH   9  34
TORSDOF 4
