REMARK  Name = ZINC39597785
REMARK  8 active torsions:
REMARK  status: ('A' for Active; 'I' for Inactive)
REMARK    1  A    between atoms: C_1  and  C_2
REMARK    2  A    between atoms: C_2  and  C_3
REMARK    3  A    between atoms: C_3  and  C_5
REMARK    4  A    between atoms: C_3  and  C_11
REMARK    5  A    between atoms: C_15  and  C_24
REMARK    6  A    between atoms: N_26  and  C_27
REMARK    7  A    between atoms: C_27  and  C_28
REMARK    8  A    between atoms: C_28  and  C_29
REMARK                            x       y       z     vdW  Elec       q    Type
REMARK                         _______ _______ _______ _____ _____    ______ ____
ROOT
ATOM      1  C   UNL     1       0.515  -1.734  -1.205  0.00  0.00    +0.223 C 
ATOM      2  O   UNL     1       1.578  -2.317  -1.175  0.00  0.00    -0.275 OA
ATOM      3  N   UNL     1      -0.634  -2.432  -1.300  0.00  0.00    -0.300 N 
ATOM      4  C   UNL     1      -2.017  -1.902  -1.357  0.00  0.00    +0.121 C 
ATOM      5  C   UNL     1      -2.738  -2.801  -2.386  0.00  0.00    +0.100 C 
ATOM      6  C   UNL     1      -1.936  -4.114  -2.390  0.00  0.00    -0.004 C 
ATOM      7  C   UNL     1      -0.799  -3.903  -1.379  0.00  0.00    +0.115 C 
ATOM      8  C   UNL     1      -1.357  -4.375  -3.778  0.00  0.00    -0.010 C 
ATOM      9  C   UNL     1      -0.613  -5.713  -3.772  0.00  0.00    -0.082 C 
ATOM     10  N   UNL     1      -1.538  -6.788  -3.395  0.00  0.00    +0.379 N 
ATOM     11  C   UNL     1      -2.018  -6.578  -2.024  0.00  0.00    -0.082 C 
ATOM     12  C   UNL     1      -2.822  -5.277  -1.956  0.00  0.00    -0.010 C 
ATOM     13  H   UNL     1      -2.324  -6.791  -4.028  0.00  0.00    -0.086 HD
ATOM     14  H   UNL     1      -1.061  -7.676  -3.450  0.00  0.00    -0.086 HD
ENDROOT
BRANCH   5  15
ATOM     15  C   UNL     1      -2.711  -2.163  -3.751  0.00  0.00    +0.218 C 
ATOM     16  O   UNL     1      -1.788  -1.442  -4.065  0.00  0.00    -0.275 OA
ATOM     17  N   UNL     1      -3.713  -2.393  -4.622  0.00  0.00    -0.315 N 
ATOM     18  H   UNL     1      -4.452  -2.969  -4.370  0.00  0.00    +0.149 HD
BRANCH  17  19
ATOM     19  C   UNL     1      -3.687  -1.772  -5.949  0.00  0.00    +0.109 C 
BRANCH  19  20
ATOM     20  C   UNL     1      -4.932  -2.193  -6.733  0.00  0.00    +0.056 C 
BRANCH  20  21
ATOM     21  C   UNL     1      -4.905  -1.554  -8.098  0.00  0.00    -0.021 A 
ATOM     22  C   UNL     1      -4.220  -2.067  -9.287  0.00  0.00    +0.003 A 
ATOM     23  C   UNL     1      -3.442  -3.197  -9.546  0.00  0.00    +0.010 A 
ATOM     24  C   UNL     1      -2.932  -3.396 -10.799  0.00  0.00    +0.001 A 
ATOM     25  C   UNL     1      -3.182  -2.484 -11.815  0.00  0.00    +0.002 A 
ATOM     26  C   UNL     1      -3.947  -1.363 -11.580  0.00  0.00    +0.026 A 
ATOM     27  C   UNL     1      -4.477  -1.140 -10.313  0.00  0.00    +0.047 A 
ATOM     28  N   UNL     1      -5.260  -0.144  -9.775  0.00  0.00    -0.360 N 
ATOM     29  C   UNL     1      -5.509  -0.410  -8.456  0.00  0.00    +0.087 A 
ATOM     30  H   UNL     1      -5.588   0.630 -10.259  0.00  0.00    +0.165 HD
ENDBRANCH  20  21
ENDBRANCH  19  20
ENDBRANCH  17  19
ENDBRANCH   5  15
BRANCH   1  31
ATOM     31  C   UNL     1       0.479  -0.229  -1.136  0.00  0.00    +0.105 C 
BRANCH  31  32
ATOM     32  C   UNL     1       1.885   0.303  -1.034  0.00  0.00    -0.036 A 
ATOM     33  C   UNL     1       2.689  -0.066   0.028  0.00  0.00    +0.004 A 
ATOM     34  C   UNL     1       3.979   0.423   0.121  0.00  0.00    +0.000 A 
ATOM     35  C   UNL     1       4.465   1.279  -0.849  0.00  0.00    +0.000 A 
ATOM     36  C   UNL     1       3.662   1.647  -1.912  0.00  0.00    +0.000 A 
ATOM     37  C   UNL     1       2.373   1.155  -2.007  0.00  0.00    +0.004 A 
ENDBRANCH  31  32
BRANCH  31  39
ATOM     38  C   UNL     1      -0.464   1.729   0.097  0.00  0.00    +0.005 C 
ATOM     39  C   UNL     1      -0.321   0.206   0.094  0.00  0.00    +0.014 C 
ENDBRANCH  31  39
ENDBRANCH   1  31
TORSDOF 7
