REMARK  Name = ZINC30544682
REMARK  5 active torsions:
REMARK  status: ('A' for Active; 'I' for Inactive)
REMARK    1  A    between atoms: C_1  and  C_2
REMARK    2  A    between atoms: C_2  and  C_4
REMARK    3  A    between atoms: C_2  and  N_14
REMARK    4  A    between atoms: N_17  and  C_20
REMARK    5  A    between atoms: C_23  and  N_26
REMARK                            x       y       z     vdW  Elec       q    Type
REMARK                         _______ _______ _______ _____ _____    ______ ____
ROOT
ATOM      1  N   UNL     1       0.753  -0.455   1.116  0.00  0.00    -0.289 NA
ATOM      2  C   UNL     1       0.120   0.051   2.341  0.00  0.00    +0.104 C 
ATOM      3  C   UNL     1       0.789  -0.592   3.561  0.00  0.00    +0.120 C 
ATOM      4  N   UNL     1       2.240  -0.365   3.472  0.00  0.00    -0.327 N 
ATOM      5  C   UNL     1       2.924  -0.721   2.219  0.00  0.00    +0.120 C 
ATOM      6  C   UNL     1       2.171  -0.073   1.052  0.00  0.00    +0.104 C 
ENDROOT
BRANCH   4   7
ATOM      7  C   UNL     1       2.949   0.174   4.548  0.00  0.00    +0.030 A 
ATOM      8  C   UNL     1       2.312   0.389   5.763  0.00  0.00    +0.025 A 
ATOM      9  C   UNL     1       3.016   0.921   6.825  0.00  0.00    +0.034 A 
ATOM     10  C   UNL     1       4.354   1.241   6.679  0.00  0.00    +0.126 A 
ATOM     11  C   UNL     1       4.990   1.028   5.470  0.00  0.00    +0.034 A 
ATOM     12  C   UNL     1       4.294   0.491   4.406  0.00  0.00    +0.025 A 
BRANCH  10  13
ATOM     13  N   UNL     1       5.105   1.812   7.819  0.00  0.00    +0.056 N 
ATOM     14  O   UNL     1       4.549   1.998   8.877  0.00  0.00    -0.126 OA
ATOM     15  O   UNL     1       6.274   2.092   7.693  0.00  0.00    -0.126 OA
ENDBRANCH  10  13
ENDBRANCH   4   7
BRANCH   1  17
ATOM     16  C   UNL     1       0.018   1.533  -0.111  0.00  0.00    +0.034 C 
ATOM     17  C   UNL     1       0.030   0.004  -0.078  0.00  0.00    +0.140 C 
BRANCH  17  18
ATOM     18  C   UNL     1      -1.386  -0.510  -0.035  0.00  0.00    +0.235 C 
ATOM     19  O   UNL     1      -1.756  -1.190   0.897  0.00  0.00    -0.274 OA
ATOM     20  N   UNL     1      -2.240  -0.213  -1.034  0.00  0.00    -0.269 N 
ATOM     21  C   UNL     1      -3.517  -0.774  -1.050  0.00  0.00    +0.125 A 
ATOM     22  C   UNL     1      -4.355  -0.549  -2.136  0.00  0.00    +0.045 A 
ATOM     23  C   UNL     1      -5.619  -1.111  -2.139  0.00  0.00    +0.025 A 
ATOM     24  C   UNL     1      -6.003  -1.884  -1.050  0.00  0.00    +0.059 A 
ATOM     25  C   UNL     1      -5.118  -2.065  -0.004  0.00  0.00    +0.132 A 
ATOM     26  N   UNL     1      -3.917  -1.520  -0.033  0.00  0.00    -0.239 NA
ATOM     27 CL   UNL     1      -7.578  -2.612  -1.003  0.00  0.00    -0.082 Cl
ATOM     28  H   UNL     1      -1.968   0.391  -1.742  0.00  0.00    +0.156 HD
ENDBRANCH  17  18
ENDBRANCH   1  17
TORSDOF 4
