REMARK  Name = ZINC65076187
REMARK  6 active torsions:
REMARK  status: ('A' for Active; 'I' for Inactive)
REMARK    1  A    between atoms: C_10  and  C_12
REMARK    2  A    between atoms: N_18  and  C_20
REMARK    3  A    between atoms: C_20  and  C_21
REMARK    4  A    between atoms: N_23  and  C_24
REMARK    5  A    between atoms: C_24  and  C_25
REMARK    6  A    between atoms: C_25  and  C_26
REMARK                            x       y       z     vdW  Elec       q    Type
REMARK                         _______ _______ _______ _____ _____    ______ ____
ROOT
ATOM      1  C   UNL     1       5.137   1.002  -0.158  0.00  0.00    +0.182 C 
ATOM      2  C   UNL     1       4.643   1.726   1.069  0.00  0.00    +0.007 C 
ATOM      3  C   UNL     1       5.254   2.855   1.437  0.00  0.00    +0.066 C 
ATOM      4  C   UNL     1       6.386   3.324   0.614  0.00  0.00    +0.253 C 
ATOM      5  O   UNL     1       6.770   4.476   0.689  0.00  0.00    -0.269 OA
ATOM      6  N   UNL     1       6.987   2.453  -0.222  0.00  0.00    -0.224 N 
ATOM      7  N   UNL     1       6.590   1.152  -0.275  0.00  0.00    -0.221 NA
ATOM      8  H   UNL     1       7.068   0.598   0.420  0.00  0.00    +0.146 HD
ENDROOT
BRANCH   1  18
ATOM      9  C   UNL     1       2.044  -4.763  -0.725  0.00  0.00    +0.000 A 
ATOM     10  C   UNL     1       3.339  -4.634  -0.256  0.00  0.00    +0.002 A 
ATOM     11  C   UNL     1       3.915  -3.387  -0.142  0.00  0.00    +0.024 A 
ATOM     12  C   UNL     1       3.196  -2.244  -0.499  0.00  0.00    +0.040 A 
ATOM     13  C   UNL     1       1.900  -2.384  -0.969  0.00  0.00    -0.024 A 
ATOM     14  C   UNL     1       1.327  -3.636  -1.081  0.00  0.00    +0.005 A 
ATOM     15  C   UNL     1       1.350  -1.010  -1.282  0.00  0.00    +0.056 C 
ATOM     16  C   UNL     1       2.497  -0.047  -0.934  0.00  0.00    +0.118 C 
ATOM     17  N   UNL     1       3.588  -0.903  -0.461  0.00  0.00    -0.269 N 
ATOM     18  C   UNL     1       4.793  -0.461  -0.049  0.00  0.00    +0.242 C 
ATOM     19  O   UNL     1       5.600  -1.242   0.410  0.00  0.00    -0.273 OA
ENDBRANCH   1  18
BRANCH   6  20
ATOM     20  C   UNL     1       8.082   2.913  -1.080  0.00  0.00    +0.222 C 
BRANCH  20  21
ATOM     21  C   UNL     1       7.513   3.513  -2.341  0.00  0.00    +0.232 C 
ATOM     22  O   UNL     1       6.312   3.552  -2.505  0.00  0.00    -0.274 OA
ATOM     23  N   UNL     1       8.339   4.005  -3.285  0.00  0.00    -0.314 N 
ATOM     24  H   UNL     1       9.300   3.973  -3.153  0.00  0.00    +0.149 HD
BRANCH  23  25
ATOM     25  C   UNL     1       7.787   4.588  -4.510  0.00  0.00    +0.108 C 
BRANCH  25  26
ATOM     26  C   UNL     1       8.930   5.068  -5.407  0.00  0.00    +0.065 C 
BRANCH  26  27
ATOM     27  C   UNL     1       8.352   5.677  -6.686  0.00  0.00    +0.175 C 
ATOM     28  N   UNL     1       7.622   4.654  -7.446  0.00  0.00    -0.363 N 
ATOM     29  C   UNL     1       8.204   4.539  -8.605  0.00  0.00    +0.060 A 
ATOM     30  C   UNL     1       7.936   3.694  -9.777  0.00  0.00    +0.027 A 
ATOM     31  C   UNL     1       8.728   3.794 -10.863  0.00  0.00    +0.002 A 
ATOM     32  C   UNL     1       9.815   4.684 -10.930  0.00  0.00    +0.002 A 
ATOM     33  C   UNL     1      10.147   5.503  -9.912  0.00  0.00    +0.027 A 
ATOM     34  C   UNL     1       9.354   5.481  -8.675  0.00  0.00    +0.060 A 
ATOM     35  N   UNL     1       9.439   6.142  -7.558  0.00  0.00    -0.363 N 
ATOM     36  H   UNL     1       6.848   4.156  -7.140  0.00  0.00    +0.162 HD
ATOM     37  H   UNL     1      10.099   6.819  -7.340  0.00  0.00    +0.162 HD
ENDBRANCH  26  27
ENDBRANCH  25  26
ENDBRANCH  23  25
ENDBRANCH  20  21
ENDBRANCH   6  20
TORSDOF 6
