REMARK  Name = ZINC39767050
REMARK  13 active torsions:
REMARK  status: ('A' for Active; 'I' for Inactive)
REMARK    1  A    between atoms: C_1  and  C_2
REMARK    2  A    between atoms: C_2  and  C_3
REMARK    3  A    between atoms: C_3  and  C_5
REMARK    4  A    between atoms: C_3  and  S_17
REMARK    5  A    between atoms: N_7  and  C_8
REMARK    6  A    between atoms: C_11  and  N_14
REMARK    7  A    between atoms: S_17  and  C_18
REMARK    8  A    between atoms: C_21  and  C_26
REMARK    9  A    between atoms: N_22  and  C_23
REMARK   10  A    between atoms: C_23  and  C_24
REMARK   11  A    between atoms: C_26  and  C_27
REMARK   12  A    between atoms: C_27  and  N_28
REMARK   13  A    between atoms: C_29  and  C_31
REMARK                            x       y       z     vdW  Elec       q    Type
REMARK                         _______ _______ _______ _____ _____    ______ ____
ROOT
ATOM      1  C   UNL     1      -1.709   1.856  -1.298  0.00  0.00    +0.193 A 
ATOM      2  N   UNL     1      -0.983   2.445  -0.377  0.00  0.00    -0.122 NA
ATOM      3  N   UNL     1      -1.020   3.719  -0.539  0.00  0.00    -0.133 NA
ATOM      4  C   UNL     1      -1.765   4.018  -1.565  0.00  0.00    +0.136 A 
ATOM      5  N   UNL     1      -2.227   2.842  -2.089  0.00  0.00    -0.302 N 
ENDROOT
BRANCH   1   6
ATOM      6  S   UNL     1      -1.962   0.123  -1.485  0.00  0.00    -0.073 S 
BRANCH   6   7
ATOM      7  C   UNL     1      -1.137  -0.599  -0.040  0.00  0.00    +0.140 C 
BRANCH   7   8
ATOM      8  C   UNL     1      -1.908  -0.247   1.207  0.00  0.00    +0.231 C 
ATOM      9  O   UNL     1      -3.092   0.007   1.137  0.00  0.00    -0.274 OA
ATOM     10  N   UNL     1      -1.281  -0.213   2.400  0.00  0.00    -0.285 N 
ATOM     11  H   UNL     1      -0.352  -0.483   2.467  0.00  0.00    +0.155 HD
BRANCH  10  12
ATOM     12  C   UNL     1      -1.971   0.211   3.541  0.00  0.00    +0.034 A 
ATOM     13  C   UNL     1      -1.310   0.936   4.524  0.00  0.00    +0.025 A 
ATOM     14  C   UNL     1      -1.994   1.354   5.649  0.00  0.00    +0.034 A 
ATOM     15  C   UNL     1      -3.335   1.051   5.797  0.00  0.00    +0.126 A 
ATOM     16  C   UNL     1      -3.996   0.329   4.820  0.00  0.00    +0.034 A 
ATOM     17  C   UNL     1      -3.319  -0.086   3.690  0.00  0.00    +0.025 A 
BRANCH  15  18
ATOM     18  N   UNL     1      -4.064   1.500   7.004  0.00  0.00    +0.056 N 
ATOM     19  O   UNL     1      -3.488   2.131   7.859  0.00  0.00    -0.126 OA
ATOM     20  O   UNL     1      -5.237   1.236   7.135  0.00  0.00    -0.126 OA
ENDBRANCH  15  18
ENDBRANCH  10  12
ENDBRANCH   7   8
BRANCH   7  22
ATOM     21  C   UNL     1      -0.184  -2.482  -1.377  0.00  0.00    +0.005 C 
ATOM     22  C   UNL     1      -1.081  -2.121  -0.191  0.00  0.00    +0.020 C 
ENDBRANCH   7  22
ENDBRANCH   6   7
ENDBRANCH   1   6
BRANCH   5  23
ATOM     23  C   UNL     1      -3.098   2.675  -3.255  0.00  0.00    +0.152 C 
BRANCH  23  24
ATOM     24  C   UNL     1      -4.538   2.694  -2.812  0.00  0.00    -0.013 C 
ATOM     25  C   UNL     1      -5.378   3.543  -3.352  0.00  0.00    +0.005 C 
ENDBRANCH  23  24
ENDBRANCH   5  23
BRANCH   4  26
ATOM     26  C   UNL     1      -2.060   5.402  -2.081  0.00  0.00    +0.095 C 
BRANCH  26  27
ATOM     27  C   UNL     1      -1.005   5.795  -3.118  0.00  0.00    +0.112 C 
BRANCH  27  28
ATOM     28  N   UNL     1      -1.292   7.141  -3.620  0.00  0.00    -0.308 N 
ATOM     29  C   UNL     1      -0.489   7.699  -4.549  0.00  0.00    +0.279 C 
ATOM     30  O   UNL     1       0.473   7.084  -4.970  0.00  0.00    -0.267 OA
ATOM     31  H   UNL     1      -2.059   7.631  -3.285  0.00  0.00    +0.149 HD
BRANCH  29  32
ATOM     32  C   UNL     1      -0.776   9.046  -5.052  0.00  0.00    +0.189 A 
ATOM     33  C   UNL     1      -0.052   9.723  -5.991  0.00  0.00    +0.054 A 
ATOM     34  C   UNL     1      -0.681  10.965  -6.168  0.00  0.00    +0.042 A 
ATOM     35  C   UNL     1      -1.748  10.992  -5.339  0.00  0.00    +0.196 A 
ATOM     36  O   UNL     1      -1.805   9.832  -4.672  0.00  0.00    -0.458 OA
ENDBRANCH  29  32
ENDBRANCH  27  28
ENDBRANCH  26  27
ENDBRANCH   4  26
TORSDOF 12
