REMARK  Name = ZINC37279546
REMARK  9 active torsions:
REMARK  status: ('A' for Active; 'I' for Inactive)
REMARK    1  A    between atoms: C_1  and  C_2
REMARK    2  A    between atoms: C_2  and  C_3
REMARK    3  A    between atoms: C_2  and  C_4
REMARK    4  A    between atoms: C_4  and  C_5
REMARK    5  A    between atoms: C_5  and  N_6
REMARK    6  A    between atoms: N_15  and  C_18
REMARK    7  A    between atoms: C_21  and  C_24
REMARK    8  A    between atoms: C_24  and  C_25
REMARK    9  A    between atoms: C_24  and  C_26
REMARK                            x       y       z     vdW  Elec       q    Type
REMARK                         _______ _______ _______ _____ _____    ______ ____
ROOT
ATOM      1  N   UNL     1      -3.201  -1.996   0.052  0.00  0.00    -0.259 N 
ATOM      2  C   UNL     1      -3.393  -2.858   1.073  0.00  0.00    +0.282 A 
ATOM      3  O   UNL     1      -2.796  -2.710   2.124  0.00  0.00    -0.265 OA
ATOM      4  C   UNL     1      -4.293  -3.932   0.908  0.00  0.00    +0.149 A 
ATOM      5  C   UNL     1      -4.960  -4.077  -0.302  0.00  0.00    +0.172 A 
ATOM      6  N   UNL     1      -5.740  -5.156  -0.198  0.00  0.00    -0.218 NA
ATOM      7  C   UNL     1      -5.603  -5.689   0.989  0.00  0.00    +0.199 A 
ATOM      8  N   UNL     1      -4.720  -4.971   1.711  0.00  0.00    -0.339 N 
ATOM      9  H   UNL     1      -4.438  -5.150   2.621  0.00  0.00    +0.167 HD
ATOM     10  N   UNL     1      -4.720  -3.158  -1.312  0.00  0.00    -0.245 N 
ATOM     11  C   UNL     1      -3.857  -2.144  -1.111  0.00  0.00    +0.338 A 
ATOM     12  O   UNL     1      -3.662  -1.345  -2.007  0.00  0.00    -0.246 OA
ENDROOT
BRANCH  10  13
ATOM     13  C   UNL     1      -5.380  -3.281  -2.541  0.00  0.00    +0.053 A 
ATOM     14  C   UNL     1      -4.811  -4.029  -3.564  0.00  0.00    +0.026 A 
ATOM     15  C   UNL     1      -5.464  -4.149  -4.775  0.00  0.00    +0.006 A 
ATOM     16  C   UNL     1      -6.683  -3.525  -4.970  0.00  0.00    -0.045 A 
ATOM     17  C   UNL     1      -7.251  -2.779  -3.954  0.00  0.00    +0.006 A 
ATOM     18  C   UNL     1      -6.606  -2.660  -2.738  0.00  0.00    +0.026 A 
BRANCH  16  19
ATOM     19  C   UNL     1      -7.393  -3.658  -6.293  0.00  0.00    +0.013 C 
ATOM     20  C   UNL     1      -8.760  -4.310  -6.075  0.00  0.00    +0.012 C 
ATOM     21  C   UNL     1      -7.582  -2.272  -6.912  0.00  0.00    +0.012 C 
ENDBRANCH  16  19
ENDBRANCH  10  13
BRANCH   1  22
ATOM     22  C   UNL     1      -2.268  -0.879   0.217  0.00  0.00    +0.130 C 
BRANCH  22  23
ATOM     23  C   UNL     1      -3.017   0.333   0.776  0.00  0.00    +0.025 C 
BRANCH  23  25
ATOM     24  C   UNL     1      -2.813   2.747   1.387  0.00  0.00    +0.007 C 
ATOM     25  C   UNL     1      -2.043   1.500   0.948  0.00  0.00    -0.016 C 
ATOM     26  C   UNL     1      -1.002   1.143   2.011  0.00  0.00    +0.007 C 
ENDBRANCH  23  25
ENDBRANCH  22  23
ENDBRANCH   1  22
TORSDOF 5
