REMARK  Name = ZINC14129409
REMARK  9 active torsions:
REMARK  status: ('A' for Active; 'I' for Inactive)
REMARK    1  A    between atoms: C_1  and  C_2
REMARK    2  A    between atoms: C_2  and  C_4
REMARK    3  A    between atoms: C_2  and  S_18
REMARK    4  A    between atoms: N_6  and  C_7
REMARK    5  A    between atoms: C_8  and  C_15
REMARK    6  A    between atoms: S_18  and  C_19
REMARK    7  A    between atoms: C_22  and  C_31
REMARK    8  A    between atoms: N_23  and  C_24
REMARK    9  A    between atoms: C_24  and  C_25
REMARK                            x       y       z     vdW  Elec       q    Type
REMARK                         _______ _______ _______ _____ _____    ______ ____
ROOT
ATOM      1  C   UNL     1       0.606  -0.499  -1.314  0.00  0.00    +0.029 C 
ATOM      2  C   UNL     1       0.002  -0.004   0.002  0.00  0.00    +0.137 C 
ENDROOT
BRANCH   2   3
ATOM      3  C   UNL     1      -1.405  -0.526   0.137  0.00  0.00    +0.231 C 
ATOM      4  O   UNL     1      -2.342   0.158  -0.216  0.00  0.00    -0.274 OA
ATOM      5  N   UNL     1      -1.622  -1.754   0.648  0.00  0.00    -0.278 N 
ATOM      6  H   UNL     1      -0.873  -2.302   0.930  0.00  0.00    +0.155 HD
BRANCH   5   7
ATOM      7  C   UNL     1      -2.917  -2.235   0.772  0.00  0.00    +0.084 A 
ATOM      8  C   UNL     1      -3.337  -3.459   1.263  0.00  0.00    +0.068 A 
ATOM      9  C   UNL     1      -4.776  -3.720   1.290  0.00  0.00    -0.023 A 
ATOM     10  C   UNL     1      -5.546  -2.725   0.815  0.00  0.00    -0.004 A 
ATOM     11  S   UNL     1      -4.400  -1.452   0.343  0.00  0.00    -0.077 S 
ATOM     12  C   UNL     1      -7.010  -3.068   0.873  0.00  0.00    +0.043 C 
ATOM     13  C   UNL     1      -7.093  -4.258   1.854  0.00  0.00    +0.010 C 
ATOM     14  C   UNL     1      -5.684  -4.872   1.723  0.00  0.00    +0.037 C 
BRANCH   8  15
ATOM     15  C   UNL     1      -2.375  -4.456   1.742  0.00  0.00    +0.244 C 
ATOM     16  O   UNL     1      -2.035  -4.461   2.911  0.00  0.00    -0.270 OA
ATOM     17  N   UNL     1      -1.867  -5.367   0.889  0.00  0.00    -0.325 N 
ATOM     18  H   UNL     1      -2.137  -5.363  -0.042  0.00  0.00    +0.145 HD
ATOM     19  H   UNL     1      -1.230  -6.026   1.206  0.00  0.00    +0.145 HD
ENDBRANCH   8  15
ENDBRANCH   5   7
ENDBRANCH   2   3
BRANCH   2  20
ATOM     20  S   UNL     1      -0.022   1.806   0.012  0.00  0.00    -0.073 S 
BRANCH  20  21
ATOM     21  C   UNL     1       1.708   2.135  -0.003  0.00  0.00    +0.193 A 
ATOM     22  N   UNL     1       2.671   1.242  -0.017  0.00  0.00    -0.122 NA
ATOM     23  N   UNL     1       3.817   1.825  -0.025  0.00  0.00    -0.125 NA
ATOM     24  C   UNL     1       3.655   3.130  -0.017  0.00  0.00    +0.201 A 
ATOM     25  N   UNL     1       2.299   3.368  -0.007  0.00  0.00    -0.295 N 
BRANCH  24  26
ATOM     26  C   UNL     1       4.722   4.143  -0.021  0.00  0.00    +0.172 A 
ATOM     27  C   UNL     1       6.034   3.923  -0.316  0.00  0.00    +0.053 A 
ATOM     28  C   UNL     1       6.689   5.164  -0.200  0.00  0.00    +0.042 A 
ATOM     29  C   UNL     1       5.760   6.070   0.163  0.00  0.00    +0.196 A 
ATOM     30  O   UNL     1       4.572   5.451   0.270  0.00  0.00    -0.460 OA
ENDBRANCH  24  26
BRANCH  25  31
ATOM     31  C   UNL     1       1.628   4.671  -0.001  0.00  0.00    +0.161 C 
BRANCH  31  32
ATOM     32  C   UNL     1       1.412   5.117   1.423  0.00  0.00    -0.028 A 
ATOM     33  C   UNL     1       0.245   4.779   2.083  0.00  0.00    +0.005 A 
ATOM     34  C   UNL     1       0.049   5.184   3.390  0.00  0.00    +0.000 A 
ATOM     35  C   UNL     1       1.014   5.936   4.033  0.00  0.00    +0.000 A 
ATOM     36  C   UNL     1       2.178   6.279   3.371  0.00  0.00    +0.000 A 
ATOM     37  C   UNL     1       2.377   5.869   2.066  0.00  0.00    +0.005 A 
ENDBRANCH  31  32
ENDBRANCH  25  31
ENDBRANCH  20  21
ENDBRANCH   2  20
TORSDOF 8
