REMARK  Name = ZINC18044545
REMARK  15 active torsions:
REMARK  status: ('A' for Active; 'I' for Inactive)
REMARK    1  A    between atoms: C_1  and  C_2
REMARK    2  A    between atoms: C_2  and  O_3
REMARK    3  A    between atoms: O_3  and  C_4
REMARK    4  A    between atoms: C_7  and  S_25
REMARK    5  A    between atoms: C_9  and  C_10
REMARK    6  A    between atoms: N_17  and  C_24
REMARK    7  A    between atoms: C_19  and  C_20
REMARK    8  A    between atoms: C_20  and  C_21
REMARK    9  A    between atoms: C_20  and  C_22
REMARK   10  A    between atoms: C_20  and  C_23
REMARK   11  A    between atoms: S_25  and  N_28
REMARK   12  A    between atoms: N_28  and  C_29
REMARK   13  A    between atoms: N_28  and  C_30
REMARK   14  A    between atoms: C_30  and  C_31
REMARK   15  A    between atoms: C_31  and  O_32
REMARK                            x       y       z     vdW  Elec       q    Type
REMARK                         _______ _______ _______ _____ _____    ______ ____
ROOT
ATOM      1  C   UNL     1       0.802  -1.823   1.306  0.00  0.00    +0.131 A 
ATOM      2  C   UNL     1       0.261  -2.672   0.353  0.00  0.00    +0.048 A 
ATOM      3  C   UNL     1       0.372  -4.040   0.502  0.00  0.00    +0.032 A 
ATOM      4  C   UNL     1       1.023  -4.574   1.602  0.00  0.00    +0.106 A 
ATOM      5  C   UNL     1       1.567  -3.744   2.558  0.00  0.00    +0.043 A 
ATOM      6  C   UNL     1       1.466  -2.358   2.416  0.00  0.00    +0.061 A 
ENDROOT
BRANCH   6   7
ATOM      7  C   UNL     1       2.051  -1.463   3.434  0.00  0.00    +0.145 A 
ATOM      8  N   UNL     1       1.934  -0.166   3.283  0.00  0.00    -0.225 NA
ATOM      9  C   UNL     1       2.451   0.690   4.188  0.00  0.00    +0.120 A 
ATOM     10  C   UNL     1       3.126   0.184   5.306  0.00  0.00    +0.151 A 
ATOM     11  C   UNL     1       3.245  -1.217   5.454  0.00  0.00    +0.278 A 
ATOM     12  O   UNL     1       3.824  -1.697   6.414  0.00  0.00    -0.265 OA
ATOM     13  N   UNL     1       2.695  -2.012   4.510  0.00  0.00    -0.305 N 
ATOM     14  N   UNL     1       3.539   1.260   6.042  0.00  0.00    -0.260 N 
ATOM     15  N   UNL     1       3.122   2.421   5.380  0.00  0.00    -0.173 NA
ATOM     16  C   UNL     1       2.482   2.094   4.290  0.00  0.00    +0.094 A 
ATOM     17  C   UNL     1       4.287   1.206   7.301  0.00  0.00    +0.173 C 
ATOM     18  H   UNL     1       2.761  -2.977   4.593  0.00  0.00    +0.170 HD
BRANCH  16  19
ATOM     19  C   UNL     1       1.876   3.060   3.304  0.00  0.00    +0.008 C 
ATOM     20  C   UNL     1       0.370   2.810   3.205  0.00  0.00    +0.017 C 
ATOM     21  C   UNL     1       2.125   4.494   3.776  0.00  0.00    +0.017 C 
ATOM     22  C   UNL     1       2.518   2.856   1.931  0.00  0.00    +0.017 C 
ENDBRANCH  16  19
ENDBRANCH   6   7
BRANCH   4  23
ATOM     23  S   UNL     1       1.157  -6.322   1.779  0.00  0.00    +0.061 S 
ATOM     24  O   UNL     1       1.333  -6.577   3.166  0.00  0.00    -0.153 OA
ATOM     25  O   UNL     1       0.091  -6.889   1.030  0.00  0.00    -0.153 OA
BRANCH  23  26
ATOM     26  N   UNL     1       2.560  -6.785   1.031  0.00  0.00    -0.177 NA
ATOM     27  C   UNL     1       3.813  -6.830   1.788  0.00  0.00    +0.131 C 
BRANCH  26  28
ATOM     28  C   UNL     1       2.548  -7.148  -0.388  0.00  0.00    +0.137 C 
BRANCH  28  29
ATOM     29  C   UNL     1       2.930  -5.929  -1.230  0.00  0.00    +0.173 C 
BRANCH  29  30
ATOM     30  O   UNL     1       4.280  -5.558  -0.946  0.00  0.00    -0.394 OA
ATOM     31  H   UNL     1       4.591  -4.791  -1.445  0.00  0.00    +0.209 HD
ENDBRANCH  29  30
ENDBRANCH  28  29
ENDBRANCH  26  28
ENDBRANCH  23  26
ENDBRANCH   4  23
BRANCH   1  32
ATOM     32  O   UNL     1       0.693  -0.477   1.160  0.00  0.00    -0.492 OA
BRANCH  32  34
ATOM     33  C   UNL     1      -0.019   1.526   0.010  0.00  0.00    +0.048 C 
ATOM     34  C   UNL     1       0.002  -0.004   0.002  0.00  0.00    +0.226 C 
ENDBRANCH  32  34
ENDBRANCH   1  32
TORSDOF 9
