REMARK  Name = ZINC19636494
REMARK  13 active torsions:
REMARK  status: ('A' for Active; 'I' for Inactive)
REMARK    1  A    between atoms: C_1  and  C_2
REMARK    2  A    between atoms: C_2  and  C_3
REMARK    3  A    between atoms: C_3  and  C_4
REMARK    4  A    between atoms: N_6  and  C_24
REMARK    5  A    between atoms: C_10  and  C_11
REMARK    6  A    between atoms: C_10  and  N_12
REMARK    7  A    between atoms: N_12  and  C_13
REMARK    8  A    between atoms: C_13  and  C_14
REMARK    9  A    between atoms: C_14  and  S_15
REMARK   10  A    between atoms: S_15  and  C_16
REMARK   11  A    between atoms: C_16  and  C_17
REMARK   12  A    between atoms: C_18  and  C_23
REMARK   13  A    between atoms: C_27  and  N_30
REMARK                            x       y       z     vdW  Elec       q    Type
REMARK                         _______ _______ _______ _____ _____    ______ ____
ROOT
ATOM      1  C   UNL     1       0.739  -2.004  -1.265  0.00  0.00    +0.074 C 
ATOM      2  N   UNL     1       0.229  -2.783  -0.360  0.00  0.00    -0.176 NA
ATOM      3  N   UNL     1       0.425  -4.127  -0.679  0.00  0.00    -0.156 N 
ATOM      4  C   UNL     1       1.094  -4.234  -1.845  0.00  0.00    +0.274 C 
ATOM      5  O   UNL     1       1.426  -5.263  -2.408  0.00  0.00    -0.268 OA
ATOM      6  C   UNL     1       1.334  -2.860  -2.303  0.00  0.00    +0.078 C 
ATOM      7  C   UNL     1       1.982  -2.457  -3.458  0.00  0.00    +0.015 C 
ATOM      8  C   UNL     1       2.531  -3.486  -4.412  0.00  0.00    +0.061 C 
ENDROOT
BRANCH   3   9
ATOM      9  C   UNL     1      -0.008  -5.207   0.100  0.00  0.00    +0.060 A 
ATOM     10  C   UNL     1       0.249  -6.508  -0.312  0.00  0.00    +0.028 A 
ATOM     11  C   UNL     1      -0.179  -7.572   0.458  0.00  0.00    +0.034 A 
ATOM     12  C   UNL     1      -0.863  -7.342   1.638  0.00  0.00    +0.126 A 
ATOM     13  C   UNL     1      -1.120  -6.047   2.051  0.00  0.00    +0.034 A 
ATOM     14  C   UNL     1      -0.690  -4.980   1.288  0.00  0.00    +0.028 A 
BRANCH  12  15
ATOM     15  N   UNL     1      -1.321  -8.484   2.461  0.00  0.00    +0.056 N 
ATOM     16  O   UNL     1      -1.097  -9.617   2.101  0.00  0.00    -0.126 OA
ATOM     17  O   UNL     1      -1.919  -8.285   3.493  0.00  0.00    -0.126 OA
ENDBRANCH  12  15
ENDBRANCH   3   9
BRANCH   7  18
ATOM     18  N   UNL     1       2.121  -1.143  -3.730  0.00  0.00    -0.346 N 
ATOM     19  H   UNL     1       1.767  -0.481  -3.116  0.00  0.00    +0.146 HD
BRANCH  18  20
ATOM     20  C   UNL     1       2.806  -0.717  -4.953  0.00  0.00    +0.112 C 
BRANCH  20  21
ATOM     21  C   UNL     1       2.827   0.811  -5.019  0.00  0.00    +0.088 C 
BRANCH  21  22
ATOM     22  S   UNL     1       3.676   1.339  -6.533  0.00  0.00    -0.153 S 
BRANCH  22  23
ATOM     23  C   UNL     1       3.616   3.151  -6.461  0.00  0.00    +0.126 C 
BRANCH  23  24
ATOM     24  C   UNL     1       4.296   3.725  -7.677  0.00  0.00    +0.072 A 
ATOM     25  C   UNL     1       5.603   4.031  -7.782  0.00  0.00    +0.036 A 
ATOM     26  N   UNL     1       5.795   4.521  -9.046  0.00  0.00    -0.348 N 
ATOM     27  H   UNL     1       6.634   4.828  -9.423  0.00  0.00    +0.166 HD
ATOM     28  C   UNL     1       4.598   4.496  -9.670  0.00  0.00    +0.197 A 
ATOM     29  N   UNL     1       3.707   4.014  -8.847  0.00  0.00    -0.240 NA
ATOM     30  C   UNL     1       6.653   3.868  -6.713  0.00  0.00    +0.065 C 
ENDBRANCH  23  24
ENDBRANCH  22  23
ENDBRANCH  21  22
ENDBRANCH  20  21
ENDBRANCH  18  20
ENDBRANCH   7  18
BRANCH   1  31
ATOM     31  C   UNL     1       0.718  -0.497  -1.257  0.00  0.00    +0.057 C 
BRANCH  31  33
ATOM     32  C   UNL     1      -0.019   1.526   0.010  0.00  0.00    +0.004 C 
ATOM     33  C   UNL     1       0.002  -0.004   0.002  0.00  0.00    +0.003 C 
ENDBRANCH  31  33
ENDBRANCH   1  31
TORSDOF 10
