REMARK  Name = ZINC12870984
REMARK  7 active torsions:
REMARK  status: ('A' for Active; 'I' for Inactive)
REMARK    1  A    between atoms: C_1  and  C_2
REMARK    2  A    between atoms: C_5  and  N_26
REMARK    3  A    between atoms: C_6  and  N_9
REMARK    4  A    between atoms: C_7  and  C_8
REMARK    5  A    between atoms: C_10  and  C_12
REMARK    6  A    between atoms: C_12  and  N_13
REMARK    7  A    between atoms: C_19  and  C_21
REMARK                            x       y       z     vdW  Elec       q    Type
REMARK                         _______ _______ _______ _____ _____    ______ ____
ROOT
ATOM      1  N   UNL     1       1.678  -2.743   2.977  0.00  0.00    -0.282 N 
ATOM      2  C   UNL     1       1.868  -4.077   2.984  0.00  0.00    +0.231 C 
ATOM      3  O   UNL     1       2.218  -4.645   1.971  0.00  0.00    -0.274 OA
ATOM      4  H   UNL     1       1.345  -2.296   3.772  0.00  0.00    +0.155 HD
ENDROOT
BRANCH   1  10
ATOM      5  C   UNL     1       1.060  -2.020  -1.846  0.00  0.00    +0.044 C 
ATOM      6  C   UNL     1       1.674  -1.629  -0.527  0.00  0.00    -0.046 A 
ATOM      7  C   UNL     1       2.519  -0.536  -0.455  0.00  0.00    +0.006 A 
ATOM      8  C   UNL     1       3.084  -0.174   0.754  0.00  0.00    +0.035 A 
ATOM      9  C   UNL     1       2.808  -0.904   1.893  0.00  0.00    +0.148 A 
ATOM     10  C   UNL     1       1.960  -2.002   1.825  0.00  0.00    +0.067 A 
ATOM     11  C   UNL     1       1.389  -2.359   0.610  0.00  0.00    -0.024 A 
ATOM     12  C   UNL     1       0.464  -3.546   0.532  0.00  0.00    +0.046 C 
BRANCH   9  13
ATOM     13  N   UNL     1       3.414  -0.516   3.187  0.00  0.00    +0.058 N 
ATOM     14  O   UNL     1       4.224   0.380   3.230  0.00  0.00    -0.126 OA
ATOM     15  O   UNL     1       3.100  -1.097   4.200  0.00  0.00    -0.126 OA
ENDBRANCH   9  13
ENDBRANCH   1  10
BRANCH   2  16
ATOM     16  C   UNL     1       1.646  -4.863   4.250  0.00  0.00    +0.180 C 
BRANCH  16  17
ATOM     17  N   UNL     1       1.920  -6.285   3.998  0.00  0.00    -0.291 NA
ATOM     18  C   UNL     1       0.859  -6.888   3.182  0.00  0.00    +0.104 C 
ATOM     19  C   UNL     1       1.267  -8.312   2.791  0.00  0.00    +0.123 C 
ATOM     20  N   UNL     1       1.608  -9.053   4.015  0.00  0.00    -0.295 N 
ATOM     21  C   UNL     1       2.564  -8.446   4.953  0.00  0.00    +0.123 C 
ATOM     22  C   UNL     1       2.104  -7.016   5.259  0.00  0.00    +0.104 C 
ATOM     23  C   UNL     1       1.059 -10.258   4.270  0.00  0.00    +0.253 C 
ATOM     24  O   UNL     1       0.404 -10.821   3.413  0.00  0.00    -0.269 OA
BRANCH  23  25
ATOM     25  C   UNL     1       1.251 -10.889   5.579  0.00  0.00    +0.074 A 
ATOM     26  C   UNL     1       1.102 -12.219   5.938  0.00  0.00    +0.021 A 
ATOM     27  C   UNL     1       1.355 -12.514   7.256  0.00  0.00    +0.008 A 
ATOM     28  C   UNL     1       1.723 -11.515   8.096  0.00  0.00    +0.046 A 
ATOM     29  S   UNL     1       1.746 -10.146   7.122  0.00  0.00    -0.092 S 
ENDBRANCH  23  25
ENDBRANCH  16  17
ENDBRANCH   2  16
TORSDOF 5
