REMARK  Name = ZINC03224913
REMARK  6 active torsions:
REMARK  status: ('A' for Active; 'I' for Inactive)
REMARK    1  A    between atoms: C_4  and  C_7
REMARK    2  A    between atoms: C_8  and  C_18
REMARK    3  A    between atoms: N_10  and  C_12
REMARK    4  A    between atoms: N_20  and  N_21
REMARK    5  A    between atoms: C_22  and  C_23
REMARK    6  A    between atoms: C_28  and  N_29
REMARK                            x       y       z     vdW  Elec       q    Type
REMARK                         _______ _______ _______ _____ _____    ______ ____
ROOT
ATOM      1  C   UNL     1       5.200   9.211  -1.406  0.00  0.00    +0.105 A 
ATOM      2  C   UNL     1       4.993   7.767  -1.262  0.00  0.00    +0.084 A 
ATOM      3  C   UNL     1       6.229   7.177  -1.428  0.00  0.00    +0.128 A 
ATOM      4  N   UNL     1       7.123   8.154  -1.663  0.00  0.00    -0.239 N 
ATOM      5  N   UNL     1       6.480   9.395  -1.643  0.00  0.00    -0.166 NA
ENDROOT
BRANCH   1   9
ATOM      6  C   UNL     1       2.225  12.234  -1.113  0.00  0.00    +0.000 A 
ATOM      7  C   UNL     1       3.507  12.482  -0.654  0.00  0.00    +0.001 A 
ATOM      8  C   UNL     1       4.477  11.505  -0.747  0.00  0.00    +0.010 A 
ATOM      9  C   UNL     1       4.163  10.266  -1.304  0.00  0.00    +0.003 A 
ATOM     10  C   UNL     1       2.871  10.024  -1.769  0.00  0.00    +0.010 A 
ATOM     11  C   UNL     1       1.908  11.007  -1.666  0.00  0.00    +0.001 A 
ENDBRANCH   1   9
BRANCH   4  12
ATOM     12  C   UNL     1       8.492   7.958  -1.887  0.00  0.00    +0.065 A 
ATOM     13  C   UNL     1       9.022   6.675  -1.877  0.00  0.00    +0.028 A 
ATOM     14  C   UNL     1      10.371   6.485  -2.105  0.00  0.00    +0.002 A 
ATOM     15  C   UNL     1      11.196   7.572  -2.330  0.00  0.00    +0.000 A 
ATOM     16  C   UNL     1      10.672   8.851  -2.335  0.00  0.00    +0.002 A 
ATOM     17  C   UNL     1       9.323   9.048  -2.114  0.00  0.00    +0.028 A 
ENDBRANCH   4  12
BRANCH   2  18
ATOM     18  C   UNL     1       3.719   7.082  -0.988  0.00  0.00    +0.267 C 
ATOM     19  O   UNL     1       2.696   7.728  -0.857  0.00  0.00    -0.268 OA
ATOM     20  N   UNL     1       3.685   5.739  -0.882  0.00  0.00    -0.203 N 
ATOM     21  H   UNL     1       4.500   5.223  -0.986  0.00  0.00    +0.178 HD
BRANCH  20  22
ATOM     22  N   UNL     1       2.473   5.087  -0.621  0.00  0.00    -0.187 NA
ATOM     23  C   UNL     1       2.440   3.793  -0.519  0.00  0.00    +0.140 C 
BRANCH  23  24
ATOM     24  C   UNL     1       1.164   3.107  -0.244  0.00  0.00    +0.025 A 
ATOM     25  C   UNL     1       1.143   1.729  -0.016  0.00  0.00    +0.012 A 
ATOM     26  C   UNL     1      -0.054   1.094   0.241  0.00  0.00    +0.001 A 
ATOM     27  C   UNL     1      -1.233   1.818   0.267  0.00  0.00    +0.002 A 
ATOM     28  C   UNL     1      -1.220   3.184   0.048  0.00  0.00    +0.033 A 
ATOM     29  C   UNL     1      -0.029   3.832  -0.210  0.00  0.00    +0.135 A 
BRANCH  29  30
ATOM     30  N   UNL     1      -0.017   5.293  -0.450  0.00  0.00    +0.057 N 
ATOM     31  O   UNL     1      -0.541   6.046   0.351  0.00  0.00    -0.126 OA
ATOM     32  O   UNL     1       0.517   5.741  -1.449  0.00  0.00    -0.126 OA
ENDBRANCH  29  30
ENDBRANCH  23  24
ENDBRANCH  20  22
ENDBRANCH   2  18
TORSDOF 6
