REMARK  Name = ZINC66334068
REMARK  7 active torsions:
REMARK  status: ('A' for Active; 'I' for Inactive)
REMARK    1  A    between atoms: C_1  and  C_2
REMARK    2  A    between atoms: C_2  and  C_4
REMARK    3  A    between atoms: C_2  and  N_13
REMARK    4  A    between atoms: C_4  and  O_5
REMARK    5  A    between atoms: O_5  and  C_6
REMARK    6  A    between atoms: C_14  and  C_16
REMARK    7  A    between atoms: C_18  and  N_26
REMARK                            x       y       z     vdW  Elec       q    Type
REMARK                         _______ _______ _______ _____ _____    ______ ____
ROOT
ATOM      1  N   UNL     1       0.711  -0.489   1.189  0.00  0.00    -0.305 N 
ATOM      2  C   UNL     1       0.051  -0.633   2.355  0.00  0.00    +0.248 C 
ATOM      3  O   UNL     1      -1.132  -0.361   2.423  0.00  0.00    -0.270 OA
ATOM      4  H   UNL     1       1.654  -0.707   1.135  0.00  0.00    +0.149 HD
ENDROOT
BRANCH   2   5
ATOM      5  C   UNL     1       0.765  -1.122   3.551  0.00  0.00    +0.084 A 
ATOM      6  C   UNL     1       2.126  -1.431   3.478  0.00  0.00    +0.049 A 
ATOM      7  C   UNL     1       2.788  -1.887   4.596  0.00  0.00    +0.131 A 
ATOM      8  C   UNL     1       2.112  -2.043   5.795  0.00  0.00    +0.082 A 
ATOM      9  C   UNL     1       0.762  -1.741   5.883  0.00  0.00    +0.165 A 
ATOM     10  C   UNL     1       0.082  -1.273   4.765  0.00  0.00    +0.174 A 
ATOM     11  O   UNL     1      -1.238  -0.960   4.832  0.00  0.00    -0.484 OA
ATOM     12  C   UNL     1      -1.965  -1.475   5.953  0.00  0.00    +0.270 C 
ATOM     13  C   UNL     1      -1.136  -1.225   7.220  0.00  0.00    +0.270 C 
ATOM     14  O   UNL     1       0.118  -1.905   7.071  0.00  0.00    -0.485 OA
BRANCH   7  15
ATOM     15  N   UNL     1       4.230  -2.213   4.517  0.00  0.00    +0.057 N 
ATOM     16  O   UNL     1       4.823  -2.078   3.472  0.00  0.00    -0.126 OA
ATOM     17  O   UNL     1       4.814  -2.613   5.497  0.00  0.00    -0.126 OA
ENDBRANCH   7  15
ENDBRANCH   2   5
BRANCH   1  19
ATOM     18  C   UNL     1      -0.019   1.526   0.010  0.00  0.00    +0.031 C 
ATOM     19  C   UNL     1       0.002  -0.004   0.002  0.00  0.00    +0.108 C 
BRANCH  19  20
ATOM     20  C   UNL     1       0.718  -0.497  -1.257  0.00  0.00    +0.251 C 
BRANCH  20  21
ATOM     21  O   UNL     1       2.019   0.090  -1.326  0.00  0.00    -0.487 OA
BRANCH  21  22
ATOM     22  C   UNL     1       2.792  -0.246  -2.393  0.00  0.00    +0.156 A 
ATOM     23  C   UNL     1       2.307  -1.119  -3.354  0.00  0.00    +0.048 A 
ATOM     24  C   UNL     1       3.095  -1.460  -4.437  0.00  0.00    +0.004 A 
ATOM     25  C   UNL     1       4.366  -0.932  -4.563  0.00  0.00    +0.003 A 
ATOM     26  C   UNL     1       4.854  -0.062  -3.606  0.00  0.00    +0.042 A 
ATOM     27  C   UNL     1       4.068   0.288  -2.523  0.00  0.00    +0.165 A 
ATOM     28  F   UNL     1       4.542   1.144  -1.591  0.00  0.00    -0.202 F 
ENDBRANCH  21  22
ENDBRANCH  20  21
ENDBRANCH  19  20
ENDBRANCH   1  19
TORSDOF 6
