REMARK  Name = ZINC04516292
REMARK  9 active torsions:
REMARK  status: ('A' for Active; 'I' for Inactive)
REMARK    1  A    between atoms: C_1  and  C_2
REMARK    2  A    between atoms: C_2  and  N_3
REMARK    3  A    between atoms: C_4  and  C_25
REMARK    4  A    between atoms: C_7  and  S_8
REMARK    5  A    between atoms: S_8  and  C_9
REMARK    6  A    between atoms: C_9  and  C_11
REMARK    7  A    between atoms: C_9  and  C_12
REMARK    8  A    between atoms: N_14  and  C_15
REMARK    9  A    between atoms: C_19  and  N_21
REMARK                            x       y       z     vdW  Elec       q    Type
REMARK                         _______ _______ _______ _____ _____    ______ ____
ROOT
ATOM      1  C   UNL     1      -0.578  -2.677  -0.013  0.00  0.00    +0.137 C 
ATOM      2  C   UNL     1       0.219  -2.857   1.280  0.00  0.00    +0.029 C 
ENDROOT
BRANCH   1   3
ATOM      3  C   UNL     1      -1.608  -3.771  -0.125  0.00  0.00    +0.230 C 
ATOM      4  O   UNL     1      -2.762  -3.550   0.175  0.00  0.00    -0.274 OA
ATOM      5  N   UNL     1      -1.246  -4.995  -0.558  0.00  0.00    -0.285 N 
ATOM      6  H   UNL     1      -0.339  -5.154  -0.861  0.00  0.00    +0.155 HD
BRANCH   5   7
ATOM      7  C   UNL     1      -2.181  -6.038  -0.570  0.00  0.00    +0.036 A 
ATOM      8  C   UNL     1      -1.776  -7.338  -0.298  0.00  0.00    +0.026 A 
ATOM      9  C   UNL     1      -2.700  -8.364  -0.305  0.00  0.00    +0.042 A 
ATOM     10  C   UNL     1      -4.029  -8.098  -0.594  0.00  0.00    +0.154 A 
ATOM     11  C   UNL     1      -4.434  -6.804  -0.871  0.00  0.00    +0.163 A 
ATOM     12  C   UNL     1      -3.513  -5.774  -0.859  0.00  0.00    +0.059 A 
ATOM     13  F   UNL     1      -4.931  -9.104  -0.606  0.00  0.00    -0.203 F 
BRANCH  11  14
ATOM     14  N   UNL     1      -5.854  -6.523  -1.178  0.00  0.00    +0.059 N 
ATOM     15  O   UNL     1      -6.211  -5.384  -1.421  0.00  0.00    -0.126 OA
ATOM     16  O   UNL     1      -6.666  -7.431  -1.188  0.00  0.00    -0.126 OA
ENDBRANCH  11  14
ENDBRANCH   5   7
ENDBRANCH   1   3
BRANCH   1  17
ATOM     17  S   UNL     1      -1.407  -1.068   0.008  0.00  0.00    -0.074 S 
BRANCH  17  22
ATOM     18  N   UNL     1      -0.026   1.366  -0.004  0.00  0.00    -0.300 N 
ATOM     19  C   UNL     1       1.295   1.757  -0.024  0.00  0.00    +0.200 A 
ATOM     20  N   UNL     1       2.021   0.661  -0.041  0.00  0.00    -0.125 NA
ATOM     21  N   UNL     1       1.256  -0.371  -0.033  0.00  0.00    -0.122 NA
ATOM     22  C   UNL     1      -0.004  -0.001  -0.011  0.00  0.00    +0.193 A 
BRANCH  19  23
ATOM     23  C   UNL     1       1.797   3.140  -0.026  0.00  0.00    +0.172 A 
ATOM     24  C   UNL     1       3.075   3.527   0.245  0.00  0.00    +0.053 A 
ATOM     25  C   UNL     1       3.107   4.930   0.126  0.00  0.00    +0.042 A 
ATOM     26  C   UNL     1       1.862   5.329  -0.201  0.00  0.00    +0.196 A 
ATOM     27  O   UNL     1       1.073   4.245  -0.292  0.00  0.00    -0.460 OA
ENDBRANCH  19  23
BRANCH  18  29
ATOM     28  C   UNL     1      -1.600   2.528   1.463  0.00  0.00    +0.027 C 
ATOM     29  C   UNL     1      -1.207   2.233   0.014  0.00  0.00    +0.122 C 
ENDBRANCH  18  29
ENDBRANCH  17  22
ENDBRANCH   1  17
TORSDOF 7
