REMARK  Name = ZINC13138742
REMARK  10 active torsions:
REMARK  status: ('A' for Active; 'I' for Inactive)
REMARK    1  A    between atoms: C_1  and  C_2
REMARK    2  A    between atoms: C_2  and  C_26
REMARK    3  A    between atoms: C_3  and  N_20
REMARK    4  A    between atoms: N_5  and  N_9
REMARK    5  A    between atoms: C_10  and  C_11
REMARK    6  A    between atoms: C_14  and  N_17
REMARK    7  A    between atoms: N_17  and  C_18
REMARK    8  A    between atoms: N_17  and  C_19
REMARK    9  A    between atoms: N_20  and  O_25
REMARK   10  A    between atoms: N_23  and  C_24
REMARK                            x       y       z     vdW  Elec       q    Type
REMARK                         _______ _______ _______ _____ _____    ______ ____
ROOT
ATOM      1  C   UNL     1       0.060   1.587  -0.158  0.00  0.00    +0.026 C 
ATOM      2  C   UNL     1      -0.032   0.060  -0.153  0.00  0.00    +0.056 C 
ATOM      3  C   UNL     1       0.835  -0.566  -1.277  0.00  0.00    +0.232 C 
ATOM      4  N   UNL     1       1.468  -1.795  -0.834  0.00  0.00    -0.187 N 
ATOM      5  C   UNL     1       1.611  -2.042   0.483  0.00  0.00    +0.132 C 
ATOM      6  S   UNL     1       2.378  -3.388   1.211  0.00  0.00    -0.026 S 
ATOM      7  S   UNL     1       0.830  -0.664   1.307  0.00  0.00    -0.091 S 
ATOM      8  C   UNL     1      -1.485  -0.410  -0.236  0.00  0.00    +0.026 C 
ENDROOT
BRANCH   3   9
ATOM      9  N   UNL     1       1.873   0.390  -1.672  0.00  0.00    -0.144 N 
ATOM     10  C   UNL     1       2.112   0.624  -2.977  0.00  0.00    +0.327 C 
ATOM     11  O   UNL     1       1.406   0.113  -3.826  0.00  0.00    -0.250 OA
ATOM     12  N   UNL     1       3.134   1.423  -3.342  0.00  0.00    -0.301 N 
ATOM     13  C   UNL     1       3.327   1.767  -4.753  0.00  0.00    +0.130 C 
ATOM     14  H   UNL     1       3.741   1.771  -2.671  0.00  0.00    +0.150 HD
BRANCH   9  15
ATOM     15  O   UNL     1       2.623   1.069  -0.681  0.00  0.00    -0.289 OA
ATOM     16  H   UNL     1       3.228   1.736  -1.034  0.00  0.00    +0.242 HD
ENDBRANCH   9  15
ENDBRANCH   3   9
BRANCH   4  17
ATOM     17  N   UNL     1       1.931  -2.724  -1.775  0.00  0.00    -0.184 NA
ATOM     18  C   UNL     1       1.102  -3.263  -2.616  0.00  0.00    +0.138 C 
BRANCH  18  19
ATOM     19  C   UNL     1       1.605  -4.154  -3.678  0.00  0.00    -0.005 A 
ATOM     20  C   UNL     1       2.973  -4.423  -3.777  0.00  0.00    +0.011 A 
ATOM     21  C   UNL     1       3.438  -5.256  -4.770  0.00  0.00    +0.024 A 
ATOM     22  C   UNL     1       2.550  -5.828  -5.674  0.00  0.00    +0.029 A 
ATOM     23  C   UNL     1       1.188  -5.563  -5.578  0.00  0.00    +0.024 A 
ATOM     24  C   UNL     1       0.714  -4.736  -4.584  0.00  0.00    +0.011 A 
BRANCH  22  25
ATOM     25  N   UNL     1       3.026  -6.670  -6.679  0.00  0.00    -0.336 N 
ATOM     26  C   UNL     1       4.440  -7.052  -6.707  0.00  0.00    +0.129 C 
ATOM     27  C   UNL     1       2.111  -7.173  -7.707  0.00  0.00    +0.129 C 
ENDBRANCH  22  25
ENDBRANCH  18  19
ENDBRANCH   4  17
TORSDOF 5
