REMARK  Name = ZINC08140425
REMARK  7 active torsions:
REMARK  status: ('A' for Active; 'I' for Inactive)
REMARK    1  A    between atoms: C_1  and  C_2
REMARK    2  A    between atoms: C_8  and  N_10
REMARK    3  A    between atoms: C_11  and  C_13
REMARK    4  A    between atoms: C_13  and  C_14
REMARK    5  A    between atoms: C_14  and  C_15
REMARK    6  A    between atoms: C_15  and  N_16
REMARK    7  A    between atoms: C_20  and  N_26
REMARK                            x       y       z     vdW  Elec       q    Type
REMARK                         _______ _______ _______ _____ _____    ______ ____
ROOT
ATOM      1  C   UNL     1       1.071  -6.207   3.808  0.00  0.00    +0.129 C 
ENDROOT
BRANCH   1   2
ATOM      2  N   UNL     1       1.212  -6.701   5.180  0.00  0.00    -0.274 N 
ATOM      3  C   UNL     1       2.409  -6.969   5.842  0.00  0.00    +0.090 A 
ATOM      4  C   UNL     1       3.742  -6.872   5.474  0.00  0.00    +0.032 A 
ATOM      5  C   UNL     1       4.731  -7.220   6.374  0.00  0.00    +0.035 A 
ATOM      6  C   UNL     1       4.393  -7.664   7.641  0.00  0.00    +0.130 A 
ATOM      7  C   UNL     1       3.067  -7.754   8.017  0.00  0.00    +0.081 A 
ATOM      8  C   UNL     1       2.068  -7.413   7.119  0.00  0.00    +0.159 A 
ATOM      9  O   UNL     1       0.715  -7.413   7.197  0.00  0.00    -0.407 OA
ATOM     10  C   UNL     1       0.206  -6.986   6.031  0.00  0.00    +0.421 A 
ATOM     11  O   UNL     1      -0.979  -6.873   5.781  0.00  0.00    -0.223 OA
BRANCH   6  12
ATOM     12  N   UNL     1       5.458  -8.034   8.600  0.00  0.00    +0.057 N 
ATOM     13  O   UNL     1       6.629  -7.948   8.273  0.00  0.00    -0.126 OA
ATOM     14  O   UNL     1       5.165  -8.425   9.715  0.00  0.00    -0.126 OA
ENDBRANCH   6  12
ENDBRANCH   1   2
BRANCH   1  15
ATOM     15  C   UNL     1       1.051  -4.677   3.816  0.00  0.00    +0.031 C 
BRANCH  15  16
ATOM     16  C   UNL     1       0.904  -4.161   2.383  0.00  0.00    +0.097 C 
BRANCH  16  18
ATOM     17  N   UNL     1       0.762  -1.976   1.234  0.00  0.00    -0.312 N 
ATOM     18  C   UNL     1       0.884  -2.654   2.392  0.00  0.00    +0.213 C 
ATOM     19  O   UNL     1       0.977  -2.052   3.440  0.00  0.00    -0.276 OA
ATOM     20  H   UNL     1       0.687  -2.457   0.395  0.00  0.00    +0.149 HD
BRANCH  17  27
ATOM     21  C   UNL     1      -1.433  -0.534   0.013  0.00  0.00    +0.009 C 
ATOM     22  C   UNL     1       0.002  -0.004   0.002  0.00  0.00    +0.006 C 
ATOM     23  C   UNL     1      -0.019   1.526   0.010  0.00  0.00    +0.005 C 
ATOM     24  C   UNL     1       1.417   2.055  -0.000  0.00  0.00    +0.000 C 
ATOM     25  C   UNL     1       2.157   1.548   1.239  0.00  0.00    +0.002 C 
ATOM     26  C   UNL     1       2.178   0.019   1.231  0.00  0.00    +0.022 C 
ATOM     27  C   UNL     1       0.742  -0.511   1.242  0.00  0.00    +0.076 C 
ENDBRANCH  17  27
ENDBRANCH  16  18
ENDBRANCH  15  16
ENDBRANCH   1  15
TORSDOF 6
