REMARK  Name = ZINC21977557
REMARK  9 active torsions:
REMARK  status: ('A' for Active; 'I' for Inactive)
REMARK    1  A    between atoms: C_1  and  C_2
REMARK    2  A    between atoms: C_3  and  C_16
REMARK    3  A    between atoms: N_5  and  C_7
REMARK    4  A    between atoms: C_7  and  C_8
REMARK    5  A    between atoms: C_16  and  O_18
REMARK    6  A    between atoms: O_18  and  C_19
REMARK    7  A    between atoms: C_19  and  C_20
REMARK    8  A    between atoms: N_26  and  C_27
REMARK    9  A    between atoms: N_26  and  C_28
REMARK                            x       y       z     vdW  Elec       q    Type
REMARK                         _______ _______ _______ _____ _____    ______ ____
ROOT
ATOM      1  C   UNL     1       0.474   5.147   4.710  0.00  0.00    +0.344 C 
ATOM      2  O   UNL     1       0.135   6.300   4.895  0.00  0.00    -0.245 OA
ENDROOT
BRANCH   1   5
ATOM      3  C   UNL     1       3.588   5.182   4.097  0.00  0.00    +0.068 C 
ATOM      4  C   UNL     1       2.490   4.772   3.150  0.00  0.00    +0.075 A 
ATOM      5  C   UNL     1       1.105   4.762   3.438  0.00  0.00    +0.118 A 
ATOM      6  C   UNL     1       0.456   4.326   2.296  0.00  0.00    +0.142 A 
ATOM      7  N   UNL     1       1.396   4.077   1.370  0.00  0.00    -0.248 N 
ATOM      8  N   UNL     1       2.650   4.364   1.921  0.00  0.00    -0.174 NA
ATOM      9 CL   UNL     1      -1.258   4.134   2.099  0.00  0.00    -0.061 Cl
BRANCH   7  10
ATOM     10  C   UNL     1       1.150   3.592   0.010  0.00  0.00    +0.181 C 
BRANCH  10  11
ATOM     11  C   UNL     1       1.171   2.086   0.002  0.00  0.00    -0.008 A 
ATOM     12  C   UNL     1      -0.017   1.378   0.010  0.00  0.00    +0.007 A 
ATOM     13  C   UNL     1       0.002  -0.004   0.002  0.00  0.00    +0.000 A 
ATOM     14  C   UNL     1       1.208  -0.680  -0.013  0.00  0.00    +0.001 A 
ATOM     15  C   UNL     1       2.396   0.027  -0.021  0.00  0.00    +0.020 A 
ATOM     16  C   UNL     1       2.378   1.410  -0.013  0.00  0.00    +0.046 A 
ATOM     17 CL   UNL     1       3.870   2.298  -0.023  0.00  0.00    -0.083 Cl
ENDBRANCH  10  11
ENDBRANCH   7  10
ENDBRANCH   1   5
BRANCH   1  18
ATOM     18  O   UNL     1       0.272   4.223   5.669  0.00  0.00    -0.453 OA
BRANCH  18  19
ATOM     19  C   UNL     1      -0.356   4.675   6.898  0.00  0.00    +0.308 C 
BRANCH  19  20
ATOM     20  C   UNL     1      -0.500   3.512   7.846  0.00  0.00    +0.173 A 
ATOM     21  N   UNL     1      -1.596   2.775   7.823  0.00  0.00    -0.196 NA
ATOM     22  C   UNL     1      -1.724   1.744   8.655  0.00  0.00    +0.217 A 
ATOM     23  N   UNL     1      -0.753   1.463   9.517  0.00  0.00    -0.181 NA
ATOM     24  C   UNL     1       0.345   2.210   9.541  0.00  0.00    +0.222 A 
ATOM     25  N   UNL     1       0.469   3.236   8.702  0.00  0.00    -0.196 NA
ATOM     26  N   UNL     1       1.357   1.922  10.434  0.00  0.00    -0.306 N 
ATOM     27  C   UNL     1       2.568   2.746  10.459  0.00  0.00    +0.132 C 
ATOM     28  C   UNL     1       1.221   0.793  11.357  0.00  0.00    +0.132 C 
ATOM     29  N   UNL     1      -2.868   0.971   8.627  0.00  0.00    -0.327 N 
ATOM     30  H   UNL     1      -2.973   0.120   9.315  0.00  0.00    +0.145 HD
ATOM     31  H   UNL     1      -3.673   1.207   7.916  0.00  0.00    +0.145 HD
ENDBRANCH  19  20
ENDBRANCH  18  19
ENDBRANCH   1  18
TORSDOF 6
