REMARK  Name = ZINC17971871
REMARK  9 active torsions:
REMARK  status: ('A' for Active; 'I' for Inactive)
REMARK    1  A    between atoms: C_1  and  C_2
REMARK    2  A    between atoms: C_5  and  N_8
REMARK    3  A    between atoms: C_10  and  C_15
REMARK    4  A    between atoms: C_21  and  C_23
REMARK    5  A    between atoms: C_23  and  C_24
REMARK    6  A    between atoms: C_24  and  N_25
REMARK    7  A    between atoms: N_25  and  S_26
REMARK    8  A    between atoms: S_26  and  C_29
REMARK    9  A    between atoms: C_32  and  C_35
REMARK                            x       y       z     vdW  Elec       q    Type
REMARK                         _______ _______ _______ _____ _____    ______ ____
ROOT
ATOM      1  C   UNL     1      -0.344  -7.474  -1.515  0.00  0.00    +0.224 C 
ATOM      2  O   UNL     1      -1.159  -7.176  -2.363  0.00  0.00    -0.275 OA
ATOM      3  N   UNL     1      -0.147  -8.768  -1.195  0.00  0.00    -0.263 N 
ATOM      4  C   UNL     1      -0.877  -9.762  -1.837  0.00  0.00    +0.188 A 
ATOM      5  N   UNL     1      -1.806  -9.655  -2.772  0.00  0.00    -0.126 NA
ATOM      6  N   UNL     1      -2.379 -10.668  -3.262  0.00  0.00    -0.145 NA
ATOM      7  C   UNL     1      -2.076 -11.880  -2.843  0.00  0.00    +0.105 A 
ATOM      8  S   UNL     1      -0.827 -11.488  -1.623  0.00  0.00    -0.035 S 
ATOM      9  H   UNL     1       0.505  -9.006  -0.518  0.00  0.00    +0.157 HD
ENDROOT
BRANCH   1  12
ATOM     10  N   UNL     1       0.057  -4.170  -0.021  0.00  0.00    -0.271 N 
ATOM     11  C   UNL     1      -0.055  -4.993  -1.231  0.00  0.00    +0.127 C 
ATOM     12  C   UNL     1       0.448  -6.396  -0.820  0.00  0.00    +0.102 C 
ATOM     13  C   UNL     1       0.167  -6.397   0.700  0.00  0.00    +0.110 C 
ATOM     14  C   UNL     1       0.174  -4.933   1.079  0.00  0.00    +0.221 C 
ATOM     15  O   UNL     1       0.271  -4.509   2.212  0.00  0.00    -0.275 OA
BRANCH  10  20
ATOM     16  C   UNL     1      -0.018   1.503   0.010  0.00  0.00    +0.044 C 
ATOM     17  C   UNL     1       0.002  -0.004   0.002  0.00  0.00    -0.050 A 
ATOM     18  C   UNL     1       0.010  -0.687  -1.200  0.00  0.00    +0.005 A 
ATOM     19  C   UNL     1       0.033  -2.068  -1.211  0.00  0.00    +0.024 A 
ATOM     20  C   UNL     1       0.038  -2.771  -0.013  0.00  0.00    +0.036 A 
ATOM     21  C   UNL     1       0.025  -2.082   1.192  0.00  0.00    +0.024 A 
ATOM     22  C   UNL     1       0.007  -0.701   1.197  0.00  0.00    +0.005 A 
ENDBRANCH  10  20
ENDBRANCH   1  12
BRANCH   7  23
ATOM     23  C   UNL     1      -2.625 -13.217  -3.270  0.00  0.00    +0.081 C 
BRANCH  23  24
ATOM     24  C   UNL     1      -1.790 -13.764  -4.429  0.00  0.00    +0.112 C 
BRANCH  24  25
ATOM     25  N   UNL     1      -2.324 -15.063  -4.845  0.00  0.00    -0.190 NA
ATOM     26  H   UNL     1      -2.943 -15.540  -4.269  0.00  0.00    +0.148 HD
BRANCH  25  27
ATOM     27  S   UNL     1      -1.870 -15.720  -6.296  0.00  0.00    +0.058 S 
ATOM     28  O   UNL     1      -2.526 -16.976  -6.396  0.00  0.00    -0.153 OA
ATOM     29  O   UNL     1      -2.028 -14.698  -7.271  0.00  0.00    -0.153 OA
BRANCH  27  30
ATOM     30  C   UNL     1      -0.144 -16.059  -6.197  0.00  0.00    +0.105 A 
ATOM     31  C   UNL     1       0.772 -15.099  -6.584  0.00  0.00    +0.029 A 
ATOM     32  C   UNL     1       2.127 -15.364  -6.503  0.00  0.00    +0.005 A 
ATOM     33  C   UNL     1       2.564 -16.592  -6.044  0.00  0.00    -0.050 A 
ATOM     34  C   UNL     1       1.648 -17.554  -5.661  0.00  0.00    +0.005 A 
ATOM     35  C   UNL     1       0.293 -17.287  -5.739  0.00  0.00    +0.029 A 
ATOM     36  C   UNL     1       4.041 -16.883  -5.960  0.00  0.00    +0.044 C 
ENDBRANCH  27  30
ENDBRANCH  25  27
ENDBRANCH  24  25
ENDBRANCH  23  24
ENDBRANCH   7  23
TORSDOF 7
