REMARK  Name = ZINC09121000
REMARK  9 active torsions:
REMARK  status: ('A' for Active; 'I' for Inactive)
REMARK    1  A    between atoms: C_1  and  C_2
REMARK    2  A    between atoms: C_2  and  C_3
REMARK    3  A    between atoms: C_2  and  C_4
REMARK    4  A    between atoms: C_7  and  O_10
REMARK    5  A    between atoms: O_10  and  C_11
REMARK    6  A    between atoms: C_11  and  C_12
REMARK    7  A    between atoms: N_14  and  C_15
REMARK    8  A    between atoms: C_15  and  C_16
REMARK    9  A    between atoms: N_19  and  C_23
REMARK                            x       y       z     vdW  Elec       q    Type
REMARK                         _______ _______ _______ _____ _____    ______ ____
ROOT
ATOM      1  C   UNL     1       8.498   3.154   1.027  0.00  0.00    +0.150 C 
ENDROOT
BRANCH   1   2
ATOM      2  C   UNL     1       7.665   3.026  -0.250  0.00  0.00    +0.213 C 
ATOM      3  C   UNL     1       6.203   3.433   0.016  0.00  0.00    +0.163 C 
ATOM      4  N   UNL     1       5.440   2.212  -0.282  0.00  0.00    -0.234 N 
ATOM      5  C   UNL     1       6.293   1.247  -0.653  0.00  0.00    +0.408 C 
ATOM      6  O   UNL     1       5.935   0.126  -0.955  0.00  0.00    -0.226 OA
ATOM      7  O   UNL     1       7.574   1.633  -0.666  0.00  0.00    -0.444 OA
BRANCH   4   8
ATOM      8  C   UNL     1       4.048   2.078  -0.188  0.00  0.00    +0.043 A 
ATOM      9  C   UNL     1       3.272   3.156   0.216  0.00  0.00    +0.027 A 
ATOM     10  C   UNL     1       1.900   3.025   0.308  0.00  0.00    +0.051 A 
ATOM     11  C   UNL     1       1.294   1.818  -0.001  0.00  0.00    +0.166 A 
ATOM     12  C   UNL     1       2.070   0.735  -0.406  0.00  0.00    +0.168 A 
ATOM     13  C   UNL     1       3.445   0.867  -0.499  0.00  0.00    +0.073 A 
ATOM     14  O   UNL     1       1.245  -0.326  -0.650  0.00  0.00    -0.453 OA
ATOM     15  C   UNL     1       0.002  -0.004   0.002  0.00  0.00    +0.466 C 
ATOM     16  O   UNL     1      -0.017   1.436   0.010  0.00  0.00    -0.453 OA
ENDBRANCH   4   8
ENDBRANCH   1   2
BRANCH   1  19
ATOM     17  C   UNL     1      10.829   2.932   1.702  0.00  0.00    +0.251 C 
ATOM     18  O   UNL     1      10.497   3.210   2.835  0.00  0.00    -0.272 OA
ATOM     19  N   UNL     1       9.905   2.878   0.723  0.00  0.00    -0.309 N 
ATOM     20  H   UNL     1      10.170   2.655  -0.183  0.00  0.00    +0.149 HD
BRANCH  17  21
ATOM     21  C   UNL     1      12.276   2.647   1.389  0.00  0.00    +0.324 C 
BRANCH  21  22
ATOM     22  O   UNL     1      13.054   2.767   2.581  0.00  0.00    -0.483 OA
BRANCH  22  26
ATOM     23  C   UNL     1      17.108   2.079   2.250  0.00  0.00    -0.045 A 
ATOM     24  C   UNL     1      16.562   2.408   3.477  0.00  0.00    +0.007 A 
ATOM     25  C   UNL     1      15.204   2.639   3.590  0.00  0.00    +0.046 A 
ATOM     26  C   UNL     1      14.389   2.540   2.472  0.00  0.00    +0.121 A 
ATOM     27  C   UNL     1      14.939   2.204   1.244  0.00  0.00    +0.046 A 
ATOM     28  C   UNL     1      16.297   1.979   1.134  0.00  0.00    +0.007 A 
BRANCH  23  30
ATOM     29  C   UNL     1      18.825   0.402   1.625  0.00  0.00    +0.012 C 
ATOM     30  C   UNL     1      18.589   1.827   2.129  0.00  0.00    +0.013 C 
ATOM     31  C   UNL     1      19.196   2.825   1.140  0.00  0.00    +0.012 C 
ENDBRANCH  23  30
ENDBRANCH  22  26
ENDBRANCH  21  22
ENDBRANCH  17  21
ENDBRANCH   1  19
TORSDOF 7
