REMARK  Name = ZINC37255946
REMARK  5 active torsions:
REMARK  status: ('A' for Active; 'I' for Inactive)
REMARK    1  A    between atoms: C_1  and  C_2
REMARK    2  A    between atoms: C_7  and  N_10
REMARK    3  A    between atoms: N_10  and  S_11
REMARK    4  A    between atoms: S_11  and  C_14
REMARK    5  A    between atoms: C_18  and  N_20
REMARK                            x       y       z     vdW  Elec       q    Type
REMARK                         _______ _______ _______ _____ _____    ______ ____
ROOT
ATOM      1  S   UNL     1       2.375  -3.885   0.086  0.00  0.00    +0.059 S 
ATOM      2  O   UNL     1       2.877  -4.092  -1.227  0.00  0.00    -0.153 OA
ATOM      3  O   UNL     1       3.227  -3.751   1.215  0.00  0.00    -0.153 OA
ENDROOT
BRANCH   1   4
ATOM      4  C   UNL     1       1.291  -5.231   0.429  0.00  0.00    +0.107 A 
ATOM      5  C   UNL     1       1.030  -5.592   1.738  0.00  0.00    +0.030 A 
ATOM      6  C   UNL     1       0.180  -6.647   2.008  0.00  0.00    +0.024 A 
ATOM      7  C   UNL     1      -0.410  -7.343   0.968  0.00  0.00    +0.071 A 
ATOM      8  C   UNL     1      -0.149  -6.982  -0.341  0.00  0.00    +0.146 A 
ATOM      9  C   UNL     1       0.698  -5.923  -0.610  0.00  0.00    +0.062 A 
ATOM     10 CL   UNL     1      -1.478  -8.670   1.307  0.00  0.00    -0.081 Cl
BRANCH   8  11
ATOM     11  N   UNL     1      -0.780  -7.726  -1.454  0.00  0.00    +0.058 N 
ATOM     12  O   UNL     1      -0.551  -7.410  -2.599  0.00  0.00    -0.126 OA
ATOM     13  O   UNL     1      -1.524  -8.649  -1.219  0.00  0.00    -0.126 OA
ENDBRANCH   8  11
ENDBRANCH   1   4
BRANCH   1  14
ATOM     14  N   UNL     1       1.448  -2.513   0.028  0.00  0.00    -0.187 NA
ATOM     15  H   UNL     1       1.360  -2.023  -0.804  0.00  0.00    +0.148 HD
BRANCH  14  21
ATOM     16  C   UNL     1      -0.019   1.526   0.010  0.00  0.00    +0.007 C 
ATOM     17  C   UNL     1       0.002  -0.004   0.002  0.00  0.00    -0.013 C 
ATOM     18  C   UNL     1      -1.433  -0.534   0.013  0.00  0.00    +0.003 C 
ATOM     19  C   UNL     1      -1.413  -2.063   0.004  0.00  0.00    +0.002 C 
ATOM     20  C   UNL     1      -0.673  -2.570   1.244  0.00  0.00    +0.020 C 
ATOM     21  C   UNL     1       0.763  -2.041   1.233  0.00  0.00    +0.077 C 
ATOM     22  C   UNL     1       0.742  -0.511   1.242  0.00  0.00    +0.023 C 
ENDBRANCH  14  21
ENDBRANCH   1  14
TORSDOF 4
