REMARK  Name = ZINC25395447
REMARK  11 active torsions:
REMARK  status: ('A' for Active; 'I' for Inactive)
REMARK    1  A    between atoms: C_1  and  C_2
REMARK    2  A    between atoms: C_5  and  S_8
REMARK    3  A    between atoms: S_8  and  C_9
REMARK    4  A    between atoms: C_9  and  C_10
REMARK    5  A    between atoms: N_12  and  N_13
REMARK    6  A    between atoms: C_14  and  C_16
REMARK    7  A    between atoms: C_16  and  C_17
REMARK    8  A    between atoms: C_17  and  C_18
REMARK    9  A    between atoms: C_18  and  N_19
REMARK   10  A    between atoms: N_19  and  S_20
REMARK   11  A    between atoms: S_20  and  C_23
REMARK                            x       y       z     vdW  Elec       q    Type
REMARK                         _______ _______ _______ _____ _____    ______ ____
ROOT
ATOM      1  C   UNL     1      -1.859   4.977  -3.283  0.00  0.00    +0.098 C 
ENDROOT
BRANCH   1   3
ATOM      2  N   UNL     1      -2.626   6.390  -5.163  0.00  0.00    -0.234 N 
ATOM      3  C   UNL     1      -2.349   5.156  -4.697  0.00  0.00    +0.229 C 
ATOM      4  O   UNL     1      -2.493   4.190  -5.415  0.00  0.00    -0.274 OA
ATOM      5  H   UNL     1      -2.494   7.266  -4.511  0.00  0.00    +0.173 HD
BRANCH   2   8
ATOM      6  C   UNL     1      -3.357   7.790  -6.943  0.00  0.00    +0.239 C 
ATOM      7  O   UNL     1      -3.213   8.757  -6.225  0.00  0.00    -0.273 OA
ATOM      8  N   UNL     1      -3.080   6.556  -6.477  0.00  0.00    -0.234 N 
ATOM      9  H   UNL     1      -3.212   5.680  -7.129  0.00  0.00    +0.173 HD
BRANCH   6  10
ATOM     10  C   UNL     1      -3.847   7.969  -8.357  0.00  0.00    +0.171 C 
BRANCH  10  11
ATOM     11  S   UNL     1      -4.128   9.732  -8.681  0.00  0.00    -0.116 S 
BRANCH  11  16
ATOM     12  C   UNL     1      -6.051   9.877 -14.402  0.00  0.00    +0.044 C 
ATOM     13  C   UNL     1      -5.571   9.841 -12.973  0.00  0.00    -0.050 A 
ATOM     14  C   UNL     1      -5.448  11.017 -12.257  0.00  0.00    +0.004 A 
ATOM     15  C   UNL     1      -5.008  10.988 -10.948  0.00  0.00    +0.015 A 
ATOM     16  C   UNL     1      -4.690   9.774 -10.351  0.00  0.00    +0.008 A 
ATOM     17  C   UNL     1      -4.809   8.594 -11.076  0.00  0.00    +0.015 A 
ATOM     18  C   UNL     1      -5.255   8.631 -12.382  0.00  0.00    +0.004 A 
ENDBRANCH  11  16
ENDBRANCH  10  11
ENDBRANCH   6  10
ENDBRANCH   2   8
ENDBRANCH   1   3
BRANCH   1  19
ATOM     19  C   UNL     1      -1.622   3.491  -3.009  0.00  0.00    +0.026 C 
BRANCH  19  20
ATOM     20  C   UNL     1      -1.125   3.309  -1.574  0.00  0.00    +0.106 C 
BRANCH  20  21
ATOM     21  N   UNL     1      -0.897   1.885  -1.312  0.00  0.00    -0.190 NA
ATOM     22  H   UNL     1      -1.442   1.126  -1.892  0.00  0.00    +0.148 HD
BRANCH  21  23
ATOM     23  S   UNL     1      -0.017   1.417   0.010  0.00  0.00    +0.059 S 
ATOM     24  O   UNL     1       0.002  -0.004   0.002  0.00  0.00    -0.153 OA
ATOM     25  O   UNL     1       1.172   2.195   0.003  0.00  0.00    -0.153 OA
BRANCH  23  26
ATOM     26  C   UNL     1      -0.927   1.900   1.439  0.00  0.00    +0.109 A 
ATOM     27  C   UNL     1      -0.715   3.145   2.002  0.00  0.00    +0.032 A 
ATOM     28  C   UNL     1      -1.429   3.534   3.122  0.00  0.00    +0.051 A 
ATOM     29  C   UNL     1      -2.350   2.666   3.683  0.00  0.00    +0.162 A 
ATOM     30  C   UNL     1      -2.559   1.414   3.122  0.00  0.00    +0.164 A 
ATOM     31  C   UNL     1      -1.846   1.030   1.998  0.00  0.00    +0.078 A 
ATOM     32  O   UNL     1      -3.469   0.567   3.683  0.00  0.00    -0.488 OA
ATOM     33  C   UNL     1      -3.130   0.048   4.970  0.00  0.00    +0.232 C 
ATOM     34  C   UNL     1      -3.529   1.024   6.067  0.00  0.00    +0.082 C 
ATOM     35  C   UNL     1      -2.750   2.328   5.993  0.00  0.00    +0.232 C 
ATOM     36  O   UNL     1      -3.058   3.035   4.790  0.00  0.00    -0.488 OA
ENDBRANCH  23  26
ENDBRANCH  21  23
ENDBRANCH  20  21
ENDBRANCH  19  20
ENDBRANCH   1  19
TORSDOF 10
