REMARK  Name = ZINC17850536
REMARK  10 active torsions:
REMARK  status: ('A' for Active; 'I' for Inactive)
REMARK    1  A    between atoms: C_1  and  C_2
REMARK    2  A    between atoms: C_2  and  C_3
REMARK    3  A    between atoms: C_3  and  C_5
REMARK    4  A    between atoms: C_3  and  C_6
REMARK    5  A    between atoms: C_9  and  S_12
REMARK    6  A    between atoms: S_12  and  N_15
REMARK    7  A    between atoms: C_21  and  C_23
REMARK    8  A    between atoms: C_26  and  O_30
REMARK    9  A    between atoms: C_28  and  O_29
REMARK   10  A    between atoms: O_30  and  C_31
REMARK                            x       y       z     vdW  Elec       q    Type
REMARK                         _______ _______ _______ _____ _____    ______ ____
ROOT
ATOM      1  N   UNL     1       2.152  -2.136   5.204  0.00  0.00    -0.174 NA
ATOM      2  C   UNL     1       1.355  -3.364   5.341  0.00  0.00    +0.128 C 
ATOM      3  C   UNL     1       1.502  -4.185   4.048  0.00  0.00    +0.125 C 
ATOM      4  N   UNL     1       2.932  -4.301   3.728  0.00  0.00    -0.295 N 
ATOM      5  C   UNL     1       3.730  -3.074   3.596  0.00  0.00    +0.125 C 
ATOM      6  C   UNL     1       3.582  -2.252   4.883  0.00  0.00    +0.128 C 
ATOM      7  C   UNL     1       3.501  -5.510   3.557  0.00  0.00    +0.250 C 
ATOM      8  O   UNL     1       4.666  -5.592   3.219  0.00  0.00    -0.270 OA
ENDROOT
BRANCH   7   9
ATOM      9  C   UNL     1       2.712  -6.734   3.781  0.00  0.00    +0.078 A 
ATOM     10  C   UNL     1       1.504  -6.925   3.101  0.00  0.00    +0.020 A 
ATOM     11  C   UNL     1       0.770  -8.068   3.313  0.00  0.00    +0.046 A 
ATOM     12  C   UNL     1       1.224  -9.038   4.203  0.00  0.00    +0.124 A 
ATOM     13  C   UNL     1       2.419  -8.858   4.883  0.00  0.00    +0.091 A 
ATOM     14  C   UNL     1       3.170  -7.714   4.674  0.00  0.00    +0.132 A 
BRANCH  14  15
ATOM     15  O   UNL     1       4.343  -7.540   5.333  0.00  0.00    -0.506 OA
ATOM     16  H   UNL     1       4.252  -7.090   6.185  0.00  0.00    +0.292 HD
ENDBRANCH  14  15
BRANCH  12  17
ATOM     17  O   UNL     1       0.493 -10.163   4.406  0.00  0.00    -0.495 OA
ATOM     18  C   UNL     1      -0.728 -10.285   3.674  0.00  0.00    +0.277 C 
ENDBRANCH  12  17
ENDBRANCH   7   9
BRANCH   1  19
ATOM     19  S   UNL     1       1.453  -0.650   5.414  0.00  0.00    +0.061 S 
ATOM     20  O   UNL     1       2.498   0.241   5.781  0.00  0.00    -0.153 OA
ATOM     21  O   UNL     1       0.305  -0.852   6.226  0.00  0.00    -0.153 OA
BRANCH  19  25
ATOM     22  C   UNL     1      -0.045   0.709   1.365  0.00  0.00    -0.044 A 
ATOM     23  C   UNL     1       1.239   1.022   1.767  0.00  0.00    +0.006 A 
ATOM     24  C   UNL     1       1.695   0.612   3.006  0.00  0.00    +0.029 A 
ATOM     25  C   UNL     1       0.870  -0.121   3.838  0.00  0.00    +0.105 A 
ATOM     26  C   UNL     1      -0.413  -0.439   3.434  0.00  0.00    +0.029 A 
ATOM     27  C   UNL     1      -0.871  -0.024   2.197  0.00  0.00    +0.006 A 
BRANCH  22  28
ATOM     28  C   UNL     1      -0.544   1.160   0.016  0.00  0.00    +0.016 C 
ATOM     29  C   UNL     1      -0.502   2.688  -0.057  0.00  0.00    +0.012 C 
BRANCH  28  31
ATOM     30  C   UNL     1      -0.232   0.927  -2.451  0.00  0.00    +0.004 C 
ATOM     31  C   UNL     1       0.346   0.572  -1.080  0.00  0.00    +0.004 C 
ENDBRANCH  28  31
ENDBRANCH  22  28
ENDBRANCH  19  25
ENDBRANCH   1  19
TORSDOF 7
