REMARK  Name = ZINC21849920
REMARK  4 active torsions:
REMARK  status: ('A' for Active; 'I' for Inactive)
REMARK    1  A    between atoms: C_4  and  N_21
REMARK    2  A    between atoms: C_5  and  N_7
REMARK    3  A    between atoms: C_8  and  C_10
REMARK    4  A    between atoms: C_10  and  N_11
REMARK                            x       y       z     vdW  Elec       q    Type
REMARK                         _______ _______ _______ _____ _____    ______ ____
ROOT
ATOM      1  N   UNL     1      -2.450  -0.121   0.254  0.00  0.00    -0.282 N 
ATOM      2  C   UNL     1      -3.565  -0.853   0.449  0.00  0.00    +0.235 C 
ATOM      3  O   UNL     1      -3.479  -2.046   0.652  0.00  0.00    -0.274 OA
ATOM      4  H   UNL     1      -2.520   0.973   0.160  0.00  0.00    +0.155 HD
ENDROOT
BRANCH   1   9
ATOM      5  C   UNL     1       0.135  -2.624  -0.500  0.00  0.00    +0.002 A 
ATOM      6  C   UNL     1       1.260  -2.000   0.008  0.00  0.00    +0.002 A 
ATOM      7  C   UNL     1       1.157  -0.751   0.592  0.00  0.00    +0.034 A 
ATOM      8  C   UNL     1      -0.073  -0.128   0.680  0.00  0.00    +0.147 A 
ATOM      9  C   UNL     1      -1.204  -0.752   0.171  0.00  0.00    +0.064 A 
ATOM     10  C   UNL     1      -1.096  -2.004  -0.420  0.00  0.00    +0.025 A 
BRANCH   8  11
ATOM     11  N   UNL     1      -0.184   1.207   1.311  0.00  0.00    +0.058 N 
ATOM     12  O   UNL     1       0.791   1.715   1.836  0.00  0.00    -0.126 OA
ATOM     13  O   UNL     1      -1.248   1.799   1.300  0.00  0.00    -0.126 OA
ENDBRANCH   8  11
ENDBRANCH   1   9
BRANCH   2  14
ATOM     14  C   UNL     1      -4.918  -0.190   0.416  0.00  0.00    +0.201 C 
BRANCH  14  15
ATOM     15  N   UNL     1      -5.962  -1.195   0.654  0.00  0.00    -0.319 N 
ATOM     16  C   UNL     1      -6.054  -2.126  -0.461  0.00  0.00    +0.116 C 
ATOM     17  C   UNL     1      -7.332  -2.969  -0.312  0.00  0.00    +0.093 C 
ATOM     18  S   UNL     1      -7.060  -4.079   1.105  0.00  0.00    -0.122 S 
ATOM     19  C   UNL     1      -6.293  -3.012   2.286  0.00  0.00    +0.029 A 
ATOM     20  C   UNL     1      -5.840  -1.748   1.925  0.00  0.00    +0.044 A 
ATOM     21  C   UNL     1      -5.218  -0.960   2.896  0.00  0.00    +0.024 A 
ATOM     22  C   UNL     1      -5.066  -1.418   4.188  0.00  0.00    +0.002 A 
ATOM     23  C   UNL     1      -5.532  -2.671   4.541  0.00  0.00    +0.001 A 
ATOM     24  C   UNL     1      -6.144  -3.465   3.591  0.00  0.00    +0.016 A 
ENDBRANCH  14  15
ENDBRANCH   2  14
TORSDOF 4
