REMARK  Name = ZINC34708281
REMARK  11 active torsions:
REMARK  status: ('A' for Active; 'I' for Inactive)
REMARK    1  A    between atoms: C_3  and  O_8
REMARK    2  A    between atoms: O_8  and  C_9
REMARK    3  A    between atoms: C_9  and  C_11
REMARK    4  A    between atoms: C_9  and  C_30
REMARK    5  A    between atoms: C_11  and  N_12
REMARK    6  A    between atoms: N_12  and  C_13
REMARK    7  A    between atoms: N_12  and  C_23
REMARK    8  A    between atoms: C_13  and  C_14
REMARK    9  A    between atoms: C_23  and  C_24
REMARK   10  A    between atoms: N_32  and  C_33
REMARK   11  A    between atoms: C_33  and  C_34
REMARK                            x       y       z     vdW  Elec       q    Type
REMARK                         _______ _______ _______ _____ _____    ______ ____
ROOT
ATOM      1  C   UNL     1       6.192  -0.390   1.019  0.00  0.00    +0.242 C 
ENDROOT
BRANCH   1   2
ATOM      2  C   UNL     1       7.188   0.360   0.173  0.00  0.00    +0.252 C 
ATOM      3  O   UNL     1       7.386   0.021  -0.974  0.00  0.00    -0.272 OA
ATOM      4  N   UNL     1       7.860   1.407   0.692  0.00  0.00    -0.308 N 
ATOM      5  H   UNL     1       7.702   1.678   1.610  0.00  0.00    +0.149 HD
BRANCH   4   6
ATOM      6  C   UNL     1       8.829   2.136  -0.130  0.00  0.00    +0.141 C 
BRANCH   6   7
ATOM      7  C   UNL     1       9.436   3.252   0.680  0.00  0.00    -0.012 A 
ATOM      8  C   UNL     1       8.849   4.509   0.695  0.00  0.00    +0.008 A 
ATOM      9  C   UNL     1       9.442   5.505   1.455  0.00  0.00    +0.020 A 
ATOM     10  C   UNL     1      10.591   5.215   2.167  0.00  0.00    +0.111 A 
ATOM     11  N   UNL     1      11.122   4.009   2.128  0.00  0.00    -0.263 NA
ATOM     12  C   UNL     1      10.581   3.035   1.422  0.00  0.00    +0.115 A 
ENDBRANCH   6   7
ENDBRANCH   4   6
ENDBRANCH   1   2
BRANCH   1  13
ATOM     13  O   UNL     1       5.702  -1.518   0.291  0.00  0.00    -0.481 OA
BRANCH  13  16
ATOM     14  C   UNL     1       6.764  -4.955  -0.254  0.00  0.00    +0.006 A 
ATOM     15  C   UNL     1       6.000  -3.805  -0.292  0.00  0.00    +0.046 A 
ATOM     16  C   UNL     1       6.453  -2.650   0.329  0.00  0.00    +0.124 A 
ATOM     17  C   UNL     1       7.673  -2.652   0.987  0.00  0.00    +0.084 A 
ATOM     18  C   UNL     1       8.436  -3.806   1.023  0.00  0.00    +0.127 A 
ATOM     19  C   UNL     1       7.980  -4.957   0.402  0.00  0.00    +0.038 A 
ATOM     20  F   UNL     1       9.625  -3.809   1.665  0.00  0.00    -0.205 F 
ENDBRANCH  13  16
ENDBRANCH   1  13
BRANCH   1  21
ATOM     21  C   UNL     1       5.025   0.535   1.373  0.00  0.00    -0.023 C 
BRANCH  21  22
ATOM     22  N   UNL     1       4.077  -0.182   2.237  0.00  0.00    +0.387 N 
ATOM     23  H   UNL     1       3.798  -1.042   1.790  0.00  0.00    -0.081 HD
BRANCH  22  24
ATOM     24  C   UNL     1       4.720  -0.484   3.523  0.00  0.00    -0.043 C 
BRANCH  24  25
ATOM     25  C   UNL     1       3.793  -1.325   4.363  0.00  0.00    -0.060 A 
ATOM     26  C   UNL     1       2.890  -0.715   5.214  0.00  0.00    +0.005 A 
ATOM     27  C   UNL     1       2.037  -1.481   5.986  0.00  0.00    +0.050 A 
ATOM     28  C   UNL     1       2.085  -2.864   5.908  0.00  0.00    +0.166 A 
ATOM     29  C   UNL     1       2.995  -3.478   5.051  0.00  0.00    +0.166 A 
ATOM     30  C   UNL     1       3.843  -2.704   4.276  0.00  0.00    +0.051 A 
ATOM     31  O   UNL     1       2.847  -4.831   5.155  0.00  0.00    -0.453 OA
ATOM     32  C   UNL     1       2.124  -5.045   6.382  0.00  0.00    +0.466 C 
ATOM     33  O   UNL     1       1.368  -3.832   6.550  0.00  0.00    -0.453 OA
ENDBRANCH  24  25
ENDBRANCH  22  24
BRANCH  22  34
ATOM     34  C   UNL     1       2.894   0.658   2.467  0.00  0.00    -0.046 C 
BRANCH  34  35
ATOM     35  C   UNL     1       2.141   0.850   1.149  0.00  0.00    +0.102 C 
ATOM     36  C   UNL     1       0.914   1.759   1.375  0.00  0.00    +0.032 C 
ATOM     37  C   UNL     1      -0.162   1.090   0.477  0.00  0.00    +0.030 C 
ATOM     38  C   UNL     1       0.227  -0.404   0.615  0.00  0.00    +0.160 C 
ATOM     39  O   UNL     1       1.664  -0.414   0.674  0.00  0.00    -0.378 OA
ENDBRANCH  34  35
ENDBRANCH  22  34
ENDBRANCH  21  22
ENDBRANCH   1  21
TORSDOF 11
