REMARK  Name = ZINC66896948
REMARK  10 active torsions:
REMARK  status: ('A' for Active; 'I' for Inactive)
REMARK    1  A    between atoms: C_1  and  C_2
REMARK    2  A    between atoms: N_5  and  C_11
REMARK    3  A    between atoms: C_7  and  C_10
REMARK    4  A    between atoms: C_11  and  C_13
REMARK    5  A    between atoms: C_11  and  C_16
REMARK    6  A    between atoms: C_13  and  C_14
REMARK    7  A    between atoms: C_13  and  C_15
REMARK    8  A    between atoms: N_18  and  N_19
REMARK    9  A    between atoms: C_20  and  C_22
REMARK   10  A    between atoms: C_27  and  O_28
REMARK                            x       y       z     vdW  Elec       q    Type
REMARK                         _______ _______ _______ _____ _____    ______ ____
ROOT
ATOM      1  C   UNL     1      -3.161  -2.533   1.645  0.00  0.00    +0.247 C 
ATOM      2  O   UNL     1      -2.479  -1.947   2.460  0.00  0.00    -0.273 OA
ATOM      3  N   UNL     1      -4.354  -3.044   2.008  0.00  0.00    -0.233 N 
ATOM      4  H   UNL     1      -4.860  -3.585   1.381  0.00  0.00    +0.173 HD
ENDROOT
BRANCH   3   5
ATOM      5  N   UNL     1      -4.863  -2.794   3.289  0.00  0.00    -0.230 N 
ATOM      6  C   UNL     1      -6.056  -3.305   3.651  0.00  0.00    +0.264 C 
ATOM      7  O   UNL     1      -6.691  -3.983   2.866  0.00  0.00    -0.269 OA
ATOM      8  H   UNL     1      -4.356  -2.253   3.915  0.00  0.00    +0.173 HD
BRANCH   6   9
ATOM      9  C   UNL     1      -6.592  -3.042   5.000  0.00  0.00    +0.079 A 
ATOM     10  C   UNL     1      -5.869  -2.259   5.903  0.00  0.00    +0.017 A 
ATOM     11  C   UNL     1      -6.375  -2.017   7.162  0.00  0.00    +0.001 A 
ATOM     12  C   UNL     1      -7.599  -2.547   7.537  0.00  0.00    +0.004 A 
ATOM     13  C   UNL     1      -8.324  -3.323   6.654  0.00  0.00    +0.046 A 
ATOM     14  C   UNL     1      -7.832  -3.571   5.381  0.00  0.00    +0.129 A 
BRANCH  14  15
ATOM     15  O   UNL     1      -8.547  -4.328   4.511  0.00  0.00    -0.506 OA
ATOM     16  H   UNL     1      -8.351  -5.274   4.560  0.00  0.00    +0.292 HD
ENDBRANCH  14  15
ENDBRANCH   6   9
ENDBRANCH   3   5
BRANCH   1  17
ATOM     17  C   UNL     1      -2.673  -2.689   0.228  0.00  0.00    +0.147 C 
BRANCH  17  21
ATOM     18  C   UNL     1      -1.212   2.011   0.226  0.00  0.00    +0.039 C 
ATOM     19  C   UNL     1      -0.811   0.570  -0.095  0.00  0.00    +0.130 C 
ATOM     20  C   UNL     1      -1.978  -0.368   0.224  0.00  0.00    +0.116 C 
ATOM     21  N   UNL     1      -1.562  -1.758  -0.013  0.00  0.00    -0.286 NA
ATOM     22  C   UNL     1      -0.398  -2.102   0.815  0.00  0.00    +0.116 C 
ATOM     23  C   UNL     1       0.753  -1.147   0.489  0.00  0.00    +0.130 C 
ATOM     24  O   UNL     1       0.322   0.201   0.696  0.00  0.00    -0.371 OA
ATOM     25  C   UNL     1       1.942  -1.449   1.404  0.00  0.00    +0.039 C 
ENDBRANCH  17  21
BRANCH  17  26
ATOM     26  C   UNL     1      -2.192  -4.125   0.009  0.00  0.00    +0.009 C 
ATOM     27  C   UNL     1      -3.379  -5.083   0.129  0.00  0.00    +0.009 C 
ATOM     28  C   UNL     1      -1.576  -4.249  -1.386  0.00  0.00    +0.009 C 
ENDBRANCH  17  26
ENDBRANCH   1  17
TORSDOF 6
