REMARK  Name = ZINC39406562
REMARK  13 active torsions:
REMARK  status: ('A' for Active; 'I' for Inactive)
REMARK    1  A    between atoms: C_1  and  C_2
REMARK    2  A    between atoms: C_4  and  C_27
REMARK    3  A    between atoms: C_6  and  C_9
REMARK    4  A    between atoms: C_14  and  N_15
REMARK    5  A    between atoms: C_16  and  C_18
REMARK    6  A    between atoms: C_18  and  C_19
REMARK    7  A    between atoms: C_19  and  O_20
REMARK    8  A    between atoms: O_20  and  C_21
REMARK    9  A    between atoms: C_27  and  N_28
REMARK   10  A    between atoms: C_29  and  C_31
REMARK   11  A    between atoms: C_34  and  C_37
REMARK   12  A    between atoms: C_37  and  C_38
REMARK   13  A    between atoms: C_37  and  C_39
REMARK                            x       y       z     vdW  Elec       q    Type
REMARK                         _______ _______ _______ _____ _____    ______ ____
ROOT
ATOM      1  C   UNL     1      -0.013   1.535   0.019  0.00  0.00    +0.044 C 
ATOM      2  C   UNL     1       0.013   0.005   0.004  0.00  0.00    +0.164 C 
ATOM      3  C   UNL     1       0.759  -0.497  -1.212  0.00  0.00    +0.062 C 
ATOM      4  N   UNL     1       1.540  -1.443  -0.848  0.00  0.00    -0.253 NA
ATOM      5  C   UNL     1       1.405  -1.669   0.596  0.00  0.00    +0.268 C 
ATOM      6  O   UNL     1       0.761  -0.496   1.131  0.00  0.00    -0.342 OA
ENDROOT
BRANCH   5   7
ATOM      7  C   UNL     1       2.765  -1.847   1.221  0.00  0.00    +0.024 A 
ATOM      8  C   UNL     1       3.901  -1.507   0.514  0.00  0.00    +0.010 A 
ATOM      9  C   UNL     1       5.149  -1.670   1.087  0.00  0.00    +0.001 A 
ATOM     10  C   UNL     1       5.263  -2.174   2.370  0.00  0.00    +0.002 A 
ATOM     11  C   UNL     1       4.131  -2.516   3.083  0.00  0.00    +0.024 A 
ATOM     12  C   UNL     1       2.876  -2.349   2.511  0.00  0.00    +0.041 A 
BRANCH  12  13
ATOM     13  N   UNL     1       1.726  -2.689   3.233  0.00  0.00    -0.285 N 
ATOM     14  C   UNL     1       1.747  -3.739   4.078  0.00  0.00    +0.220 C 
ATOM     15  O   UNL     1       2.783  -4.338   4.275  0.00  0.00    -0.275 OA
ATOM     16  H   UNL     1       0.914  -2.170   3.124  0.00  0.00    +0.155 HD
BRANCH  14  17
ATOM     17  C   UNL     1       0.483  -4.168   4.778  0.00  0.00    +0.137 C 
BRANCH  17  18
ATOM     18  C   UNL     1       0.780  -5.373   5.672  0.00  0.00    +0.238 C 
BRANCH  18  19
ATOM     19  O   UNL     1      -0.418  -5.780   6.336  0.00  0.00    -0.491 OA
BRANCH  19  20
ATOM     20  C   UNL     1      -0.328  -6.846   7.175  0.00  0.00    +0.121 A 
ATOM     21  C   UNL     1       0.890  -7.483   7.359  0.00  0.00    +0.045 A 
ATOM     22  C   UNL     1       0.980  -8.566   8.213  0.00  0.00    +0.004 A 
ATOM     23  C   UNL     1      -0.143  -9.014   8.882  0.00  0.00    +0.000 A 
ATOM     24  C   UNL     1      -1.359  -8.381   8.699  0.00  0.00    +0.004 A 
ATOM     25  C   UNL     1      -1.452  -7.295   7.852  0.00  0.00    +0.045 A 
ENDBRANCH  19  20
ENDBRANCH  18  19
ENDBRANCH  17  18
ENDBRANCH  14  17
ENDBRANCH  12  13
ENDBRANCH   5   7
BRANCH   3  26
ATOM     26  C   UNL     1       0.607   0.028  -2.616  0.00  0.00    +0.157 C 
BRANCH  26  27
ATOM     27  N   UNL     1       1.497  -0.713  -3.514  0.00  0.00    -0.308 N 
ATOM     28  C   UNL     1       1.531  -0.414  -4.827  0.00  0.00    +0.244 C 
ATOM     29  O   UNL     1       0.824   0.468  -5.267  0.00  0.00    -0.273 OA
ATOM     30  H   UNL     1       2.062  -1.419  -3.162  0.00  0.00    +0.149 HD
BRANCH  28  31
ATOM     31  C   UNL     1       2.446  -1.177  -5.750  0.00  0.00    +0.238 C 
ATOM     32  C   UNL     1       3.855  -0.613  -5.695  0.00  0.00    +0.036 C 
ATOM     33  C   UNL     1       4.083  -0.194  -6.941  0.00  0.00    +0.064 C 
ATOM     34  N   UNL     1       3.010  -0.427  -7.730  0.00  0.00    -0.158 NA
ATOM     35  N   UNL     1       2.058  -0.970  -7.156  0.00  0.00    -0.170 NA
BRANCH  33  36
ATOM     36  C   UNL     1       5.362   0.453  -7.406  0.00  0.00    +0.033 C 
ATOM     37  C   UNL     1       5.983  -0.390  -8.522  0.00  0.00    +0.014 C 
ATOM     38  C   UNL     1       5.061   1.857  -7.935  0.00  0.00    +0.014 C 
ENDBRANCH  33  36
ENDBRANCH  28  31
ENDBRANCH  26  27
ENDBRANCH   3  26
TORSDOF 10
