REMARK  Name = ZINC12967695
REMARK  7 active torsions:
REMARK  status: ('A' for Active; 'I' for Inactive)
REMARK    1  A    between atoms: C_1  and  C_2
REMARK    2  A    between atoms: C_9  and  C_12
REMARK    3  A    between atoms: C_12  and  O_14
REMARK    4  A    between atoms: O_14  and  C_15
REMARK    5  A    between atoms: C_15  and  C_17
REMARK    6  A    between atoms: C_15  and  C_18
REMARK    7  A    between atoms: N_23  and  C_24
REMARK                            x       y       z     vdW  Elec       q    Type
REMARK                         _______ _______ _______ _____ _____    ______ ____
ROOT
ATOM      1  C   UNL     1       0.878   2.134  -4.641  0.00  0.00    +0.259 C 
ATOM      2  C   UNL     1       1.710   0.894  -4.978  0.00  0.00    +0.062 C 
ENDROOT
BRANCH   1   3
ATOM      3  C   UNL     1       0.189   2.629  -5.886  0.00  0.00    +0.261 C 
ATOM      4  O   UNL     1      -1.022   2.687  -5.926  0.00  0.00    -0.271 OA
ATOM      5  N   UNL     1       0.917   3.006  -6.956  0.00  0.00    -0.237 N 
ATOM      6  C   UNL     1       0.300   3.449  -8.069  0.00  0.00    +0.310 C 
ATOM      7  O   UNL     1      -0.913   3.508  -8.109  0.00  0.00    -0.252 OA
ATOM      8  N   UNL     1       1.029   3.826  -9.139  0.00  0.00    -0.269 N 
ATOM      9  H   UNL     1       1.885   2.959  -6.924  0.00  0.00    +0.159 HD
ATOM     10  H   UNL     1       1.997   3.843  -9.084  0.00  0.00    +0.156 HD
BRANCH   8  11
ATOM     11  C   UNL     1       0.388   4.194 -10.327  0.00  0.00    +0.035 A 
ATOM     12  C   UNL     1       0.970   3.894 -11.552  0.00  0.00    +0.023 A 
ATOM     13  C   UNL     1       0.332   4.254 -12.723  0.00  0.00    +0.002 A 
ATOM     14  C   UNL     1      -0.878   4.921 -12.677  0.00  0.00    +0.000 A 
ATOM     15  C   UNL     1      -1.457   5.225 -11.459  0.00  0.00    +0.002 A 
ATOM     16  C   UNL     1      -0.828   4.863 -10.284  0.00  0.00    +0.023 A 
ENDBRANCH   8  11
ENDBRANCH   1   3
BRANCH   1  17
ATOM     17  O   UNL     1      -0.116   1.792  -3.640  0.00  0.00    -0.451 OA
BRANCH  17  18
ATOM     18  C   UNL     1       0.240   1.933  -2.354  0.00  0.00    +0.322 C 
ATOM     19  O   UNL     1       1.347   2.329  -2.074  0.00  0.00    -0.250 OA
BRANCH  18  28
ATOM     20  C   UNL     1      -2.802   3.238   4.656  0.00  0.00    +0.044 C 
ATOM     21  C   UNL     1      -2.074   2.658   3.471  0.00  0.00    -0.049 A 
ATOM     22  C   UNL     1      -1.236   1.568   3.627  0.00  0.00    +0.004 A 
ATOM     23  C   UNL     1      -0.563   1.036   2.551  0.00  0.00    +0.005 A 
ATOM     24  C   UNL     1      -0.705   1.579   1.269  0.00  0.00    -0.032 A 
ATOM     25  C   UNL     1      -1.558   2.669   1.133  0.00  0.00    +0.012 A 
ATOM     26  C   UNL     1      -2.233   3.209   2.213  0.00  0.00    +0.018 A 
ATOM     27  S   UNL     1      -1.542   3.112  -0.590  0.00  0.00    -0.110 S 
ATOM     28  C   UNL     1      -0.740   1.597  -1.259  0.00  0.00    +0.164 C 
ATOM     29  C   UNL     1      -0.015   1.105   0.013  0.00  0.00    +0.062 C 
ENDBRANCH  18  28
ENDBRANCH  17  18
ENDBRANCH   1  17
TORSDOF 5
