REMARK  Name = ZINC15044158
REMARK  9 active torsions:
REMARK  status: ('A' for Active; 'I' for Inactive)
REMARK    1  A    between atoms: C_1  and  C_2
REMARK    2  A    between atoms: C_7  and  C_8
REMARK    3  A    between atoms: C_8  and  C_10
REMARK    4  A    between atoms: C_8  and  N_11
REMARK    5  A    between atoms: C_12  and  C_14
REMARK    6  A    between atoms: C_14  and  N_58
REMARK    7  A    between atoms: C_17  and  C_20
REMARK    8  A    between atoms: N_22  and  C_23
REMARK    9  A    between atoms: C_28  and  O_29
REMARK                            x       y       z     vdW  Elec       q    Type
REMARK                         _______ _______ _______ _____ _____    ______ ____
ROOT
ATOM      1  C   UNL     1       3.655   0.544   3.047  0.00  0.00    -0.077 C 
ATOM      2  C   UNL     1       4.444  -0.474   3.874  0.00  0.00    -0.006 C 
ATOM      3  C   UNL     1       5.928  -0.377   3.512  0.00  0.00    +0.072 C 
ATOM      4  C   UNL     1       6.096  -0.618   2.009  0.00  0.00    -0.006 C 
ATOM      5  C   UNL     1       5.259   0.404   1.237  0.00  0.00    -0.077 C 
ATOM      6  N   UNL     1       3.838   0.242   1.612  0.00  0.00    +0.385 N 
ATOM      7  H   UNL     1       3.556  -0.730   1.438  0.00  0.00    -0.081 HD
ENDROOT
BRANCH   3   8
ATOM      8  C   UNL     1       6.703  -1.417   4.279  0.00  0.00    +0.220 C 
ATOM      9  O   UNL     1       7.328  -2.269   3.683  0.00  0.00    -0.275 OA
ATOM     10  N   UNL     1       6.701  -1.401   5.627  0.00  0.00    -0.282 N 
ATOM     11  H   UNL     1       6.138  -0.772   6.103  0.00  0.00    +0.155 HD
BRANCH  10  12
ATOM     12  C   UNL     1       7.513  -2.294   6.339  0.00  0.00    +0.075 A 
ATOM     13  C   UNL     1       8.699  -2.751   5.783  0.00  0.00    +0.027 A 
ATOM     14  C   UNL     1       9.498  -3.632   6.487  0.00  0.00    +0.002 A 
ATOM     15  C   UNL     1       9.118  -4.059   7.747  0.00  0.00    +0.004 A 
ATOM     16  C   UNL     1       7.938  -3.608   8.307  0.00  0.00    +0.047 A 
ATOM     17  C   UNL     1       7.134  -2.721   7.610  0.00  0.00    +0.138 A 
BRANCH  17  18
ATOM     18  O   UNL     1       5.976  -2.272   8.162  0.00  0.00    -0.505 OA
ATOM     19  H   UNL     1       5.206  -2.822   7.964  0.00  0.00    +0.292 HD
ENDBRANCH  17  18
ENDBRANCH  10  12
ENDBRANCH   3   8
BRANCH   6  20
ATOM     20  C   UNL     1       2.995   1.140   0.796  0.00  0.00    +0.019 C 
BRANCH  20  22
ATOM     21  N   UNL     1       0.578   1.475   0.389  0.00  0.00    -0.310 N 
ATOM     22  C   UNL     1       1.547   0.800   1.040  0.00  0.00    +0.197 C 
ATOM     23  O   UNL     1       1.254  -0.079   1.821  0.00  0.00    -0.278 OA
ATOM     24  H   UNL     1       0.813   2.178  -0.236  0.00  0.00    +0.149 HD
BRANCH  21  25
ATOM     25  C   UNL     1      -0.829   1.145   0.626  0.00  0.00    +0.100 C 
ATOM     26  C   UNL     1      -1.693   2.382   0.370  0.00  0.00    +0.033 C 
BRANCH  25  33
ATOM     27  C   UNL     1      -3.203  -0.400   1.197  0.00  0.00    +0.044 C 
ATOM     28  C   UNL     1      -2.385  -0.702  -0.033  0.00  0.00    -0.046 A 
ATOM     29  C   UNL     1      -2.771  -1.718  -0.887  0.00  0.00    +0.004 A 
ATOM     30  C   UNL     1      -2.021  -1.994  -2.015  0.00  0.00    +0.000 A 
ATOM     31  C   UNL     1      -0.885  -1.254  -2.288  0.00  0.00    +0.000 A 
ATOM     32  C   UNL     1      -0.502  -0.236  -1.436  0.00  0.00    +0.006 A 
ATOM     33  C   UNL     1      -1.249   0.037  -0.306  0.00  0.00    -0.025 A 
ENDBRANCH  25  33
ENDBRANCH  21  25
ENDBRANCH  20  22
ENDBRANCH   6  20
TORSDOF 7
