REMARK  Name = ZINC66527699
REMARK  7 active torsions:
REMARK  status: ('A' for Active; 'I' for Inactive)
REMARK    1  A    between atoms: C_1  and  C_2
REMARK    2  A    between atoms: C_2  and  C_3
REMARK    3  A    between atoms: C_2  and  C_4
REMARK    4  A    between atoms: C_2  and  N_11
REMARK    5  A    between atoms: C_12  and  C_14
REMARK    6  A    between atoms: C_14  and  C_15
REMARK    7  A    between atoms: C_20  and  N_21
REMARK                            x       y       z     vdW  Elec       q    Type
REMARK                         _______ _______ _______ _____ _____    ______ ____
ROOT
ATOM      1  N   UNL     1       0.838  -0.868  -1.338  0.00  0.00    -0.306 N 
ATOM      2  C   UNL     1       2.098  -0.481  -1.619  0.00  0.00    +0.218 C 
ATOM      3  O   UNL     1       2.836  -0.123  -0.726  0.00  0.00    -0.275 OA
ATOM      4  H   UNL     1       0.248  -1.154  -2.053  0.00  0.00    +0.150 HD
ENDROOT
BRANCH   1   6
ATOM      5  C   UNL     1       0.484   0.556   0.618  0.00  0.00    +0.036 C 
ATOM      6  C   UNL     1       0.360  -0.857   0.046  0.00  0.00    +0.054 C 
ATOM      7  C   UNL     1       1.202  -1.822   0.884  0.00  0.00    +0.036 C 
BRANCH   6   8
ATOM      8  C   UNL     1      -1.084  -1.288   0.083  0.00  0.00    -0.025 A 
ATOM      9  C   UNL     1      -1.614  -1.829   1.239  0.00  0.00    +0.007 A 
ATOM     10  C   UNL     1      -2.938  -2.225   1.273  0.00  0.00    +0.020 A 
ATOM     11  C   UNL     1      -3.732  -2.079   0.149  0.00  0.00    +0.041 A 
ATOM     12  C   UNL     1      -3.201  -1.538  -1.008  0.00  0.00    +0.020 A 
ATOM     13  C   UNL     1      -1.878  -1.137  -1.038  0.00  0.00    +0.007 A 
ATOM     14 CL   UNL     1      -5.395  -2.577   0.191  0.00  0.00    -0.084 Cl
ENDBRANCH   6   8
ENDBRANCH   1   6
BRANCH   2  15
ATOM     15  C   UNL     1       2.590  -0.492  -3.044  0.00  0.00    +0.133 C 
BRANCH  15  16
ATOM     16  C   UNL     1       4.020  -0.018  -3.085  0.00  0.00    -0.008 A 
ATOM     17  C   UNL     1       4.306   1.286  -3.444  0.00  0.00    +0.006 A 
ATOM     18  C   UNL     1       5.617   1.721  -3.482  0.00  0.00    +0.000 A 
ATOM     19  C   UNL     1       6.643   0.851  -3.160  0.00  0.00    +0.002 A 
ATOM     20  C   UNL     1       6.357  -0.452  -2.801  0.00  0.00    +0.033 A 
ATOM     21  C   UNL     1       5.045  -0.886  -2.759  0.00  0.00    +0.130 A 
BRANCH  21  22
ATOM     22  N   UNL     1       4.738  -2.280  -2.369  0.00  0.00    +0.057 N 
ATOM     23  O   UNL     1       5.637  -3.063  -2.167  0.00  0.00    -0.126 OA
ATOM     24  O   UNL     1       3.589  -2.636  -2.251  0.00  0.00    -0.126 OA
ENDBRANCH  21  22
ENDBRANCH  15  16
ENDBRANCH   2  15
TORSDOF 5
