REMARK  Name = ZINC39853965
REMARK  8 active torsions:
REMARK  status: ('A' for Active; 'I' for Inactive)
REMARK    1  A    between atoms: C_1  and  C_2
REMARK    2  A    between atoms: N_8  and  C_14
REMARK    3  A    between atoms: N_12  and  O_13
REMARK    4  A    between atoms: C_14  and  C_15
REMARK    5  A    between atoms: C_18  and  O_21
REMARK    6  A    between atoms: O_21  and  C_22
REMARK    7  A    between atoms: C_22  and  C_23
REMARK    8  A    between atoms: C_22  and  C_24
REMARK                            x       y       z     vdW  Elec       q    Type
REMARK                         _______ _______ _______ _____ _____    ______ ____
ROOT
ATOM      1  C   UNL     1       0.888  -0.217   5.488  0.00  0.00    +0.046 C 
ATOM      2  C   UNL     1       0.700  -1.558   4.828  0.00  0.00    -0.028 A 
ATOM      3  C   UNL     1       1.082  -2.710   5.487  0.00  0.00    +0.005 A 
ATOM      4  C   UNL     1       0.916  -3.950   4.895  0.00  0.00    +0.001 A 
ATOM      5  C   UNL     1       0.364  -4.044   3.632  0.00  0.00    +0.012 A 
ATOM      6  C   UNL     1      -0.023  -2.890   2.960  0.00  0.00    +0.030 A 
ATOM      7  C   UNL     1       0.138  -1.634   3.559  0.00  0.00    +0.049 A 
ATOM      8  N   UNL     1      -0.327  -0.646   2.696  0.00  0.00    -0.261 N 
ATOM      9  C   UNL     1      -0.797  -1.173   1.552  0.00  0.00    +0.273 C 
ATOM     10  O   UNL     1      -1.265  -0.553   0.617  0.00  0.00    -0.268 OA
ATOM     11  C   UNL     1      -0.631  -2.647   1.630  0.00  0.00    +0.173 C 
ATOM     12  N   UNL     1      -0.959  -3.532   0.733  0.00  0.00    -0.082 NA
ENDROOT
BRANCH  12  13
ATOM     13  O   UNL     1      -1.534  -3.118  -0.493  0.00  0.00    -0.409 OA
ATOM     14  H   UNL     1      -1.743  -3.845  -1.095  0.00  0.00    +0.328 HD
ENDBRANCH  12  13
BRANCH   8  15
ATOM     15  C   UNL     1      -0.308   0.787   2.997  0.00  0.00    +0.149 C 
BRANCH  15  16
ATOM     16  C   UNL     1      -1.690   1.236   3.395  0.00  0.00    -0.029 A 
ATOM     17  C   UNL     1      -2.597   1.620   2.425  0.00  0.00    +0.009 A 
ATOM     18  C   UNL     1      -3.865   2.032   2.788  0.00  0.00    +0.046 A 
ATOM     19  C   UNL     1      -4.228   2.059   4.126  0.00  0.00    +0.121 A 
ATOM     20  C   UNL     1      -3.316   1.673   5.098  0.00  0.00    +0.046 A 
ATOM     21  C   UNL     1      -2.051   1.257   4.730  0.00  0.00    +0.009 A 
BRANCH  19  22
ATOM     22  O   UNL     1      -5.474   2.465   4.486  0.00  0.00    -0.489 OA
BRANCH  22  23
ATOM     23  C   UNL     1      -6.316   2.971   3.448  0.00  0.00    +0.167 C 
ATOM     24  C   UNL     1      -7.141   1.825   2.856  0.00  0.00    +0.051 C 
ATOM     25  C   UNL     1      -7.256   4.031   4.025  0.00  0.00    +0.051 C 
ENDBRANCH  22  23
ENDBRANCH  19  22
ENDBRANCH  15  16
ENDBRANCH   8  15
TORSDOF 5
