REMARK  Name = ZINC13370958
REMARK  8 active torsions:
REMARK  status: ('A' for Active; 'I' for Inactive)
REMARK    1  A    between atoms: C_1  and  N_2
REMARK    2  A    between atoms: N_2  and  C_3
REMARK    3  A    between atoms: N_2  and  C_4
REMARK    4  A    between atoms: C_7  and  C_10
REMARK    5  A    between atoms: N_11  and  N_12
REMARK    6  A    between atoms: C_17  and  C_20
REMARK    7  A    between atoms: C_20  and  C_21
REMARK    8  A    between atoms: C_26  and  N_27
REMARK                            x       y       z     vdW  Elec       q    Type
REMARK                         _______ _______ _______ _____ _____    ______ ____
ROOT
ATOM      1  N   UNL     1      -1.154  -3.139  -7.638  0.00  0.00    -0.127 NA
ATOM      2  C   UNL     1      -0.979  -2.389  -8.706  0.00  0.00    +0.183 C 
ATOM      3  N   UNL     1      -0.949  -2.782 -10.027  0.00  0.00    -0.263 N 
ATOM      4  C   UNL     1      -0.763  -1.927 -11.018  0.00  0.00    +0.232 C 
ATOM      5  O   UNL     1      -0.738  -2.280 -12.178  0.00  0.00    -0.274 OA
ATOM      6  C   UNL     1      -0.585  -0.472 -10.612  0.00  0.00    +0.144 C 
ATOM      7  S   UNL     1      -0.733  -0.621  -8.784  0.00  0.00    -0.075 S 
ATOM      8  H   UNL     1      -1.067  -3.722 -10.237  0.00  0.00    +0.157 HD
ENDROOT
BRANCH   1  10
ATOM      9  C   UNL     1      -1.334  -3.344  -5.407  0.00  0.00    +0.143 C 
ATOM     10  N   UNL     1      -1.161  -2.600  -6.466  0.00  0.00    -0.155 NA
BRANCH   9  14
ATOM     11  C   UNL     1      -1.356  -1.574  -1.551  0.00  0.00    +0.029 A 
ATOM     12  C   UNL     1      -1.534  -2.947  -1.685  0.00  0.00    +0.024 A 
ATOM     13  C   UNL     1      -1.528  -3.526  -2.934  0.00  0.00    +0.011 A 
ATOM     14  C   UNL     1      -1.342  -2.731  -4.070  0.00  0.00    -0.005 A 
ATOM     15  C   UNL     1      -1.163  -1.350  -3.931  0.00  0.00    +0.011 A 
ATOM     16  C   UNL     1      -1.176  -0.779  -2.678  0.00  0.00    +0.024 A 
BRANCH  11  18
ATOM     17  C   UNL     1      -1.182   0.455  -0.140  0.00  0.00    +0.129 C 
ATOM     18  N   UNL     1      -1.363  -0.992  -0.283  0.00  0.00    -0.336 N 
ATOM     19  C   UNL     1      -1.552  -1.827   0.906  0.00  0.00    +0.129 C 
ENDBRANCH  11  18
ENDBRANCH   9  14
ENDBRANCH   1  10
BRANCH   6  20
ATOM     20  C   UNL     1      -1.701   0.404 -11.185  0.00  0.00    +0.061 C 
BRANCH  20  21
ATOM     21  C   UNL     1      -1.419   1.849 -10.864  0.00  0.00    -0.016 A 
ATOM     22  C   UNL     1      -2.065   2.460  -9.805  0.00  0.00    +0.006 A 
ATOM     23  C   UNL     1      -1.807   3.785  -9.510  0.00  0.00    +0.000 A 
ATOM     24  C   UNL     1      -0.904   4.500 -10.274  0.00  0.00    +0.002 A 
ATOM     25  C   UNL     1      -0.258   3.890 -11.332  0.00  0.00    +0.033 A 
ATOM     26  C   UNL     1      -0.512   2.562 -11.624  0.00  0.00    +0.129 A 
BRANCH  26  27
ATOM     27  N   UNL     1       0.183   1.907 -12.755  0.00  0.00    +0.057 N 
ATOM     28  O   UNL     1       0.895   2.556 -13.485  0.00  0.00    -0.126 OA
ATOM     29  O   UNL     1       0.040   0.722 -12.947  0.00  0.00    -0.126 OA
ENDBRANCH  26  27
ENDBRANCH  20  21
ENDBRANCH   6  20
TORSDOF 6
