REMARK  Name = ZINC59119346
REMARK  12 active torsions:
REMARK  status: ('A' for Active; 'I' for Inactive)
REMARK    1  A    between atoms: C_1  and  C_2
REMARK    2  A    between atoms: C_2  and  N_3
REMARK    3  A    between atoms: N_3  and  C_4
REMARK    4  A    between atoms: N_3  and  C_6
REMARK    5  A    between atoms: C_4  and  C_5
REMARK    6  A    between atoms: C_6  and  C_8
REMARK    7  A    between atoms: C_6  and  C_24
REMARK    8  A    between atoms: C_8  and  N_9
REMARK    9  A    between atoms: N_12  and  C_13
REMARK   10  A    between atoms: C_13  and  C_14
REMARK   11  A    between atoms: C_14  and  C_16
REMARK   12  A    between atoms: C_14  and  O_23
REMARK                            x       y       z     vdW  Elec       q    Type
REMARK                         _______ _______ _______ _____ _____    ______ ____
ROOT
ATOM      1  N   UNL     1       1.246  -2.453   3.398  0.00  0.00    -0.301 N 
ATOM      2  C   UNL     1       1.913  -2.751   4.531  0.00  0.00    +0.300 C 
ATOM      3  O   UNL     1       3.024  -3.240   4.471  0.00  0.00    -0.253 OA
ATOM      4  N   UNL     1       1.348  -2.505   5.729  0.00  0.00    -0.297 N 
ATOM      5  H   UNL     1       0.359  -2.063   3.445  0.00  0.00    +0.150 HD
ATOM      6  H   UNL     1       0.461  -2.115   5.777  0.00  0.00    +0.150 HD
ENDROOT
BRANCH   1   7
ATOM      7  C   UNL     1       1.860  -2.720   2.095  0.00  0.00    +0.095 C 
BRANCH   7   8
ATOM      8  C   UNL     1       0.974  -2.147   0.987  0.00  0.00    -0.020 C 
BRANCH   8   9
ATOM      9  C   UNL     1       1.493  -2.597  -0.355  0.00  0.00    -0.052 A 
ATOM     10  C   UNL     1       0.895  -3.651  -1.020  0.00  0.00    +0.009 A 
ATOM     11  C   UNL     1       1.386  -4.031  -2.225  0.00  0.00    +0.045 A 
ATOM     12  S   UNL     1       2.735  -2.884  -2.452  0.00  0.00    -0.105 S 
ATOM     13  C   UNL     1       2.549  -1.972  -0.929  0.00  0.00    +0.047 A 
ENDBRANCH   8   9
BRANCH   8  14
ATOM     14  N   UNL     1       0.995  -0.679   1.052  0.00  0.00    +0.385 N 
ATOM     15  H   UNL     1       1.951  -0.356   1.038  0.00  0.00    -0.081 HD
BRANCH  14  17
ATOM     16  C   UNL     1       0.415   1.396  -0.111  0.00  0.00    -0.017 C 
ATOM     17  C   UNL     1       0.274  -0.127  -0.102  0.00  0.00    -0.081 C 
ENDBRANCH  14  17
BRANCH  14  18
ATOM     18  C   UNL     1       0.346  -0.235   2.293  0.00  0.00    -0.081 C 
ATOM     19  C   UNL     1      -1.068  -0.815   2.364  0.00  0.00    -0.017 C 
ENDBRANCH  14  18
ENDBRANCH   8  14
ENDBRANCH   7   8
ENDBRANCH   1   7
BRANCH   4  20
ATOM     20  C   UNL     1       2.073  -2.828   6.961  0.00  0.00    +0.142 C 
BRANCH  20  21
ATOM     21  C   UNL     1       1.215  -2.454   8.171  0.00  0.00    +0.164 C 
BRANCH  21  22
ATOM     22  C   UNL     1       1.961  -2.787   9.438  0.00  0.00    +0.018 A 
ATOM     23  C   UNL     1       2.699  -1.811  10.082  0.00  0.00    +0.009 A 
ATOM     24  C   UNL     1       3.383  -2.116  11.243  0.00  0.00    +0.001 A 
ATOM     25  C   UNL     1       3.330  -3.396  11.763  0.00  0.00    +0.003 A 
ATOM     26  C   UNL     1       2.593  -4.373  11.121  0.00  0.00    +0.039 A 
ATOM     27  C   UNL     1       1.903  -4.067   9.960  0.00  0.00    +0.129 A 
ATOM     28  F   UNL     1       1.177  -5.020   9.334  0.00  0.00    -0.205 F 
ENDBRANCH  21  22
BRANCH  21  29
ATOM     29  O   UNL     1       0.931  -1.054   8.139  0.00  0.00    -0.386 OA
ATOM     30  H   UNL     1       1.718  -0.492   8.162  0.00  0.00    +0.210 HD
ENDBRANCH  21  29
ENDBRANCH  20  21
ENDBRANCH   4  20
TORSDOF 10
