REMARK  Name = ZINC08969948
REMARK  8 active torsions:
REMARK  status: ('A' for Active; 'I' for Inactive)
REMARK    1  A    between atoms: C_5  and  C_7
REMARK    2  A    between atoms: C_7  and  N_8
REMARK    3  A    between atoms: C_9  and  C_11
REMARK    4  A    between atoms: N_13  and  C_14
REMARK    5  A    between atoms: C_14  and  C_15
REMARK    6  A    between atoms: C_15  and  C_17
REMARK    7  A    between atoms: C_15  and  S_26
REMARK    8  A    between atoms: S_26  and  C_29
REMARK                            x       y       z     vdW  Elec       q    Type
REMARK                         _______ _______ _______ _____ _____    ______ ____
ROOT
ATOM      1  C   UNL     1      -1.333   2.112   0.020  0.00  0.00    +0.183 C 
ENDROOT
BRANCH   1   2
ATOM      2  C   UNL     1      -0.017   1.378   0.010  0.00  0.00    -0.018 A 
ATOM      3  C   UNL     1       0.002  -0.004   0.002  0.00  0.00    +0.009 A 
ATOM      4  C   UNL     1       1.207  -0.682  -0.013  0.00  0.00    +0.050 A 
ATOM      5  C   UNL     1       2.399   0.024  -0.021  0.00  0.00    +0.166 A 
ATOM      6  C   UNL     1       2.380   1.416  -0.014  0.00  0.00    +0.167 A 
ATOM      7  C   UNL     1       1.169   2.089   0.002  0.00  0.00    +0.055 A 
ATOM      8  O   UNL     1       3.668   1.870  -0.025  0.00  0.00    -0.453 OA
ATOM      9  C   UNL     1       4.466   0.750  -0.451  0.00  0.00    +0.466 C 
ATOM     10  O   UNL     1       3.698  -0.395  -0.036  0.00  0.00    -0.453 OA
ENDBRANCH   1   2
BRANCH   1  11
ATOM     11  S   UNL     1      -2.284   1.668  -1.459  0.00  0.00    +0.011 S 
ATOM     12  O   UNL     1      -3.596   2.209  -1.378  0.00  0.00    -0.168 OA
ATOM     13  O   UNL     1      -1.494   1.857  -2.625  0.00  0.00    -0.168 OA
BRANCH  11  14
ATOM     14  C   UNL     1      -2.510  -0.076  -1.346  0.00  0.00    +0.126 A 
ATOM     15  C   UNL     1      -3.513  -0.770  -0.754  0.00  0.00    +0.035 A 
ATOM     16  C   UNL     1      -3.485  -2.152  -0.793  0.00  0.00    +0.009 A 
ATOM     17  C   UNL     1      -2.450  -2.771  -1.411  0.00  0.00    +0.047 A 
ATOM     18  S   UNL     1      -1.473  -1.387  -1.973  0.00  0.00    -0.078 S 
ENDBRANCH  11  14
ENDBRANCH   1  11
BRANCH   1  19
ATOM     19  C   UNL     1      -2.124   1.724   1.271  0.00  0.00    +0.136 C 
BRANCH  19  22
ATOM     20  C   UNL     1      -4.271   2.251   2.295  0.00  0.00    +0.299 C 
ATOM     21  O   UNL     1      -3.993   1.491   3.199  0.00  0.00    -0.265 OA
ATOM     22  N   UNL     1      -3.403   2.438   1.281  0.00  0.00    -0.305 N 
ATOM     23  H   UNL     1      -3.625   3.045   0.557  0.00  0.00    +0.149 HD
BRANCH  20  25
ATOM     24  N   UNL     1      -6.444   2.792   3.319  0.00  0.00    -0.303 N 
ATOM     25  C   UNL     1      -5.576   2.979   2.305  0.00  0.00    +0.299 C 
ATOM     26  O   UNL     1      -5.854   3.738   1.400  0.00  0.00    -0.265 OA
ATOM     27  H   UNL     1      -6.222   2.185   4.042  0.00  0.00    +0.149 HD
BRANCH  24  28
ATOM     28  C   UNL     1      -7.724   3.505   3.329  0.00  0.00    +0.141 C 
BRANCH  28  33
ATOM     29  C   UNL     1     -10.230   1.835   5.605  0.00  0.00    +0.000 A 
ATOM     30  C   UNL     1      -9.933   2.422   6.822  0.00  0.00    +0.001 A 
ATOM     31  C   UNL     1      -8.921   3.359   6.908  0.00  0.00    +0.020 A 
ATOM     32  C   UNL     1      -8.205   3.710   5.777  0.00  0.00    +0.046 A 
ATOM     33  C   UNL     1      -8.503   3.123   4.561  0.00  0.00    -0.012 A 
ATOM     34  C   UNL     1      -9.518   2.189   4.474  0.00  0.00    +0.006 A 
ATOM     35 CL   UNL     1      -6.934   4.888   5.885  0.00  0.00    -0.083 Cl
ENDBRANCH  28  33
ENDBRANCH  24  28
ENDBRANCH  20  25
ENDBRANCH  19  22
ENDBRANCH   1  19
TORSDOF 8
