REMARK  Name = ZINC24835046
REMARK  10 active torsions:
REMARK  status: ('A' for Active; 'I' for Inactive)
REMARK    1  A    between atoms: C_1  and  C_2
REMARK    2  A    between atoms: C_2  and  N_3
REMARK    3  A    between atoms: C_4  and  S_8
REMARK    4  A    between atoms: S_8  and  C_9
REMARK    5  A    between atoms: C_9  and  C_10
REMARK    6  A    between atoms: C_11  and  C_25
REMARK    7  A    between atoms: C_12  and  C_18
REMARK    8  A    between atoms: C_25  and  O_27
REMARK    9  A    between atoms: O_27  and  C_28
REMARK   10  A    between atoms: C_28  and  C_29
REMARK                            x       y       z     vdW  Elec       q    Type
REMARK                         _______ _______ _______ _____ _____    ______ ____
ROOT
ATOM      1  C   UNL     1      -1.727   2.341   1.234  0.00  0.00    +0.034 C 
ATOM      2  C   UNL     1      -0.583   1.627   1.302  0.00  0.00    +0.079 C 
ATOM      3  C   UNL     1       0.026   1.145   0.001  0.00  0.00    +0.144 C 
ATOM      4  N   UNL     1      -0.685   1.498  -1.239  0.00  0.00    -0.288 N 
ATOM      5  C   UNL     1      -1.819   2.219  -1.145  0.00  0.00    +0.304 C 
ATOM      6  O   UNL     1      -2.413   2.515  -2.164  0.00  0.00    -0.252 OA
ATOM      7  N   UNL     1      -2.313   2.619   0.033  0.00  0.00    -0.272 N 
ATOM      8  H   UNL     1      -0.288   1.173  -2.212  0.00  0.00    +0.151 HD
ATOM      9  H   UNL     1      -3.245   3.203  -0.002  0.00  0.00    +0.156 HD
ENDROOT
BRANCH   3  10
ATOM     10  C   UNL     1       1.424   1.700  -0.091  0.00  0.00    -0.022 A 
ATOM     11  C   UNL     1       1.629   2.979  -0.575  0.00  0.00    +0.007 A 
ATOM     12  C   UNL     1       2.911   3.491  -0.655  0.00  0.00    +0.020 A 
ATOM     13  C   UNL     1       3.989   2.720  -0.260  0.00  0.00    +0.041 A 
ATOM     14  C   UNL     1       3.784   1.438   0.219  0.00  0.00    +0.020 A 
ATOM     15  C   UNL     1       2.502   0.929   0.304  0.00  0.00    +0.007 A 
ATOM     16 CL   UNL     1       5.599   3.359  -0.367  0.00  0.00    -0.084 Cl
ENDBRANCH   3  10
BRANCH   2  17
ATOM     17  C   UNL     1       0.026   1.339   2.546  0.00  0.00    +0.339 C 
ATOM     18  O   UNL     1      -0.106   0.238   3.048  0.00  0.00    -0.245 OA
BRANCH  17  19
ATOM     19  O   UNL     1       0.754   2.284   3.176  0.00  0.00    -0.462 OA
BRANCH  19  20
ATOM     20  C   UNL     1       1.341   1.924   4.428  0.00  0.00    +0.229 C 
ATOM     21  C   UNL     1       2.122   3.115   4.987  0.00  0.00    +0.048 C 
ENDBRANCH  19  20
ENDBRANCH  17  19
ENDBRANCH   2  17
BRANCH   1  22
ATOM     22  C   UNL     1      -2.366   2.839   2.505  0.00  0.00    +0.128 C 
BRANCH  22  23
ATOM     23  S   UNL     1      -2.061   4.615   2.678  0.00  0.00    -0.079 S 
BRANCH  23  25
ATOM     24  N   UNL     1      -2.997   6.113   4.835  0.00  0.00    -0.220 N 
ATOM     25  C   UNL     1      -2.894   4.921   4.200  0.00  0.00    +0.210 A 
ATOM     26  N   UNL     1      -3.538   4.037   4.930  0.00  0.00    -0.102 NA
ATOM     27  N   UNL     1      -4.027   4.592   5.980  0.00  0.00    -0.022 NA
ATOM     28  N   UNL     1      -3.746   5.850   5.995  0.00  0.00    -0.043 NA
BRANCH  24  30
ATOM     29  C   UNL     1      -3.469   8.129   3.533  0.00  0.00    +0.029 C 
ATOM     30  C   UNL     1      -2.445   7.400   4.405  0.00  0.00    +0.145 C 
ENDBRANCH  24  30
ENDBRANCH  23  25
ENDBRANCH  22  23
ENDBRANCH   1  22
TORSDOF 8
