REMARK  Name = ZINC00944194
REMARK  9 active torsions:
REMARK  status: ('A' for Active; 'I' for Inactive)
REMARK    1  A    between atoms: C_1  and  C_2
REMARK    2  A    between atoms: C_2  and  C_3
REMARK    3  A    between atoms: C_2  and  C_4
REMARK    4  A    between atoms: C_4  and  C_6
REMARK    5  A    between atoms: C_4  and  N_19
REMARK    6  A    between atoms: N_8  and  C_9
REMARK    7  A    between atoms: N_19  and  S_20
REMARK    8  A    between atoms: S_20  and  C_23
REMARK    9  A    between atoms: C_28  and  N_29
REMARK                            x       y       z     vdW  Elec       q    Type
REMARK                         _______ _______ _______ _____ _____    ______ ____
ROOT
ATOM      1  C   UNL     1      -5.454   3.556   0.307  0.00  0.00    +0.165 C 
ENDROOT
BRANCH   1   2
ATOM      2  C   UNL     1      -4.290   3.005   1.090  0.00  0.00    +0.236 C 
ATOM      3  O   UNL     1      -4.174   1.807   1.242  0.00  0.00    -0.274 OA
ATOM      4  N   UNL     1      -3.377   3.843   1.620  0.00  0.00    -0.284 N 
ATOM      5  H   UNL     1      -3.503   4.802   1.554  0.00  0.00    +0.155 HD
BRANCH   4   6
ATOM      6  C   UNL     1      -2.250   3.330   2.265  0.00  0.00    +0.041 A 
ATOM      7  C   UNL     1      -2.315   2.120   2.923  0.00  0.00    +0.024 A 
ATOM      8  C   UNL     1      -1.199   1.603   3.574  0.00  0.00    +0.002 A 
ATOM      9  C   UNL     1      -0.012   2.269   3.569  0.00  0.00    +0.008 A 
ATOM     10  C   UNL     1       0.099   3.502   2.905  0.00  0.00    -0.016 A 
ATOM     11  C   UNL     1      -1.032   4.042   2.244  0.00  0.00    +0.003 A 
ATOM     12  C   UNL     1      -0.919   5.273   1.579  0.00  0.00    +0.010 A 
ATOM     13  C   UNL     1       0.272   5.933   1.580  0.00  0.00    +0.001 A 
ATOM     14  C   UNL     1       1.384   5.403   2.230  0.00  0.00    +0.001 A 
ATOM     15  C   UNL     1       1.312   4.212   2.883  0.00  0.00    +0.008 A 
ENDBRANCH   4   6
ENDBRANCH   1   2
BRANCH   1  17
ATOM     16  C   UNL     1      -3.888   4.743  -1.236  0.00  0.00    +0.009 C 
ATOM     17  C   UNL     1      -5.043   3.743  -1.155  0.00  0.00    +0.010 C 
ATOM     18  C   UNL     1      -4.595   2.399  -1.734  0.00  0.00    +0.009 C 
ENDBRANCH   1  17
BRANCH   1  19
ATOM     19  N   UNL     1      -6.579   2.621   0.383  0.00  0.00    -0.178 NA
ATOM     20  H   UNL     1      -6.453   1.690   0.143  0.00  0.00    +0.149 HD
BRANCH  19  21
ATOM     21  S   UNL     1      -8.067   3.155   0.877  0.00  0.00    +0.061 S 
ATOM     22  O   UNL     1      -8.944   2.040   0.800  0.00  0.00    -0.153 OA
ATOM     23  O   UNL     1      -7.859   3.879   2.082  0.00  0.00    -0.153 OA
BRANCH  21  24
ATOM     24  C   UNL     1      -8.627   4.320  -0.321  0.00  0.00    +0.135 A 
ATOM     25  C   UNL     1      -8.841   5.636   0.043  0.00  0.00    +0.031 A 
ATOM     26  C   UNL     1      -9.276   6.551  -0.897  0.00  0.00    +0.002 A 
ATOM     27  C   UNL     1      -9.506   6.148  -2.200  0.00  0.00    +0.002 A 
ATOM     28  C   UNL     1      -9.296   4.831  -2.562  0.00  0.00    +0.035 A 
ATOM     29  C   UNL     1      -8.856   3.917  -1.622  0.00  0.00    +0.152 A 
BRANCH  29  30
ATOM     30  N   UNL     1      -8.632   2.506  -2.011  0.00  0.00    +0.058 N 
ATOM     31  O   UNL     1      -8.925   2.129  -3.131  0.00  0.00    -0.126 OA
ATOM     32  O   UNL     1      -8.155   1.722  -1.209  0.00  0.00    -0.126 OA
ENDBRANCH  29  30
ENDBRANCH  21  24
ENDBRANCH  19  21
ENDBRANCH   1  19
TORSDOF 7
