REMARK  Name = ZINC16604828
REMARK  11 active torsions:
REMARK  status: ('A' for Active; 'I' for Inactive)
REMARK    1  A    between atoms: C_1  and  C_2
REMARK    2  A    between atoms: C_2  and  C_3
REMARK    3  A    between atoms: C_3  and  C_4
REMARK    4  A    between atoms: C_4  and  N_5
REMARK    5  A    between atoms: C_13  and  C_15
REMARK    6  A    between atoms: C_20  and  S_22
REMARK    7  A    between atoms: S_22  and  C_23
REMARK    8  A    between atoms: C_23  and  C_24
REMARK    9  A    between atoms: N_26  and  C_27
REMARK   10  A    between atoms: C_27  and  C_28
REMARK   11  A    between atoms: C_27  and  C_29
REMARK                            x       y       z     vdW  Elec       q    Type
REMARK                         _______ _______ _______ _____ _____    ______ ____
ROOT
ATOM      1  N   UNL     1       0.099   1.334  -0.850  0.00  0.00    -0.299 N 
ATOM      2  C   UNL     1       0.068   0.019  -0.557  0.00  0.00    +0.303 C 
ATOM      3  O   UNL     1      -0.999  -0.545  -0.405  0.00  0.00    -0.253 OA
ATOM      4  N   UNL     1       1.219  -0.671  -0.432  0.00  0.00    -0.280 N 
ATOM      5  C   UNL     1       2.519   0.013  -0.491  0.00  0.00    +0.128 C 
ATOM      6  C   UNL     1       3.404  -0.710  -1.512  0.00  0.00    +0.125 C 
ATOM      7  N   UNL     1       3.468  -2.138  -1.175  0.00  0.00    -0.312 N 
ATOM      8  C   UNL     1       2.144  -2.767  -1.266  0.00  0.00    +0.128 C 
ATOM      9  C   UNL     1       1.207  -2.127  -0.228  0.00  0.00    +0.092 C 
ATOM     10  C   UNL     1      -0.214  -2.662  -0.418  0.00  0.00    +0.030 C 
ATOM     11  C   UNL     1       4.386  -2.796  -1.977  0.00  0.00    +0.127 A 
ATOM     12  C   UNL     1       4.274  -2.750  -3.368  0.00  0.00    +0.083 A 
ATOM     13  C   UNL     1       5.216  -3.417  -4.129  0.00  0.00    +0.135 A 
ATOM     14  N   UNL     1       6.185  -4.086  -3.520  0.00  0.00    -0.210 NA
ATOM     15  C   UNL     1       6.264  -4.117  -2.198  0.00  0.00    +0.192 A 
ATOM     16  N   UNL     1       5.384  -3.486  -1.434  0.00  0.00    -0.207 NA
ATOM     17 CL   UNL     1       5.126  -3.385  -5.863  0.00  0.00    -0.062 Cl
ATOM     18  H   UNL     1       0.948   1.800  -0.899  0.00  0.00    +0.150 HD
ENDROOT
BRANCH   1  19
ATOM     19  C   UNL     1      -1.150   2.059  -1.099  0.00  0.00    +0.106 C 
BRANCH  19  20
ATOM     20  C   UNL     1      -0.836   3.525  -1.406  0.00  0.00    +0.018 C 
BRANCH  20  22
ATOM     21  C   UNL     1      -1.826   5.747  -1.973  0.00  0.00    +0.004 C 
ATOM     22  C   UNL     1      -2.140   4.282  -1.666  0.00  0.00    -0.002 C 
ENDBRANCH  20  22
ENDBRANCH  19  20
ENDBRANCH   1  19
BRANCH  15  23
ATOM     23  S   UNL     1       7.572  -5.019  -1.436  0.00  0.00    -0.077 S 
BRANCH  23  24
ATOM     24  C   UNL     1       8.422  -5.643  -2.907  0.00  0.00    +0.173 C 
BRANCH  24  25
ATOM     25  C   UNL     1       9.611  -6.468  -2.488  0.00  0.00    +0.224 C 
ATOM     26  O   UNL     1       9.860  -6.620  -1.311  0.00  0.00    -0.275 OA
ATOM     27  N   UNL     1      10.399  -7.038  -3.422  0.00  0.00    -0.312 N 
ATOM     28  H   UNL     1      10.200  -6.916  -4.364  0.00  0.00    +0.149 HD
BRANCH  27  29
ATOM     29  C   UNL     1      11.555  -7.840  -3.015  0.00  0.00    +0.067 C 
ATOM     30  C   UNL     1      11.105  -9.275  -2.730  0.00  0.00    +0.027 C 
ATOM     31  C   UNL     1      12.594  -7.845  -4.138  0.00  0.00    +0.027 C 
ENDBRANCH  27  29
ENDBRANCH  24  25
ENDBRANCH  23  24
ENDBRANCH  15  23
TORSDOF 7
