REMARK  Name = ZINC38999225
REMARK  10 active torsions:
REMARK  status: ('A' for Active; 'I' for Inactive)
REMARK    1  A    between atoms: C_1  and  C_2
REMARK    2  A    between atoms: C_2  and  C_3
REMARK    3  A    between atoms: C_2  and  C_4
REMARK    4  A    between atoms: C_4  and  C_5
REMARK    5  A    between atoms: C_8  and  C_11
REMARK    6  A    between atoms: C_13  and  C_17
REMARK    7  A    between atoms: N_19  and  N_20
REMARK    8  A    between atoms: C_21  and  C_22
REMARK    9  A    between atoms: C_21  and  C_23
REMARK   10  A    between atoms: C_27  and  N_29
REMARK                            x       y       z     vdW  Elec       q    Type
REMARK                         _______ _______ _______ _____ _____    ______ ____
ROOT
ATOM      1  C   UNL     1      -0.064  -9.254   0.215  0.00  0.00    +0.263 C 
ATOM      2  O   UNL     1       0.850  -9.294  -0.581  0.00  0.00    -0.271 OA
ATOM      3  N   UNL     1       0.046  -9.884   1.401  0.00  0.00    -0.205 N 
ATOM      4  H   UNL     1      -0.685  -9.852   2.038  0.00  0.00    +0.177 HD
ENDROOT
BRANCH   1   7
ATOM      5  C   UNL     1      -1.366  -6.270  -0.492  0.00  0.00    +0.092 C 
ATOM      6  C   UNL     1      -1.323  -7.132   0.542  0.00  0.00    +0.041 C 
ATOM      7  C   UNL     1      -1.324  -8.498  -0.122  0.00  0.00    +0.240 C 
ATOM      8  N   UNL     1      -1.370  -8.173  -1.557  0.00  0.00    -0.170 NA
ATOM      9  N   UNL     1      -1.397  -6.945  -1.671  0.00  0.00    -0.153 NA
BRANCH   5  13
ATOM     10  C   UNL     1      -1.416  -2.035  -0.119  0.00  0.00    -0.047 A 
ATOM     11  C   UNL     1      -1.450  -2.616  -1.374  0.00  0.00    +0.004 A 
ATOM     12  C   UNL     1      -1.434  -3.991  -1.501  0.00  0.00    +0.010 A 
ATOM     13  C   UNL     1      -1.383  -4.792  -0.362  0.00  0.00    +0.002 A 
ATOM     14  C   UNL     1      -1.349  -4.201   0.899  0.00  0.00    +0.010 A 
ATOM     15  C   UNL     1      -1.360  -2.826   1.014  0.00  0.00    +0.004 A 
BRANCH  10  16
ATOM     16  C   UNL     1      -1.433  -0.534   0.013  0.00  0.00    +0.038 C 
BRANCH  16  18
ATOM     17  C   UNL     1      -0.019   1.526   0.010  0.00  0.00    +0.007 C 
ATOM     18  C   UNL     1       0.002  -0.004   0.002  0.00  0.00    -0.013 C 
ATOM     19  C   UNL     1       0.742  -0.511   1.242  0.00  0.00    +0.007 C 
ENDBRANCH  16  18
ENDBRANCH  10  16
ENDBRANCH   5  13
ENDBRANCH   1   7
BRANCH   3  20
ATOM     20  N   UNL     1       1.216 -10.587   1.715  0.00  0.00    -0.184 NA
ATOM     21  C   UNL     1       1.322 -11.194   2.857  0.00  0.00    +0.063 C 
ATOM     22  C   UNL     1       0.186 -11.144   3.845  0.00  0.00    +0.068 C 
BRANCH  21  23
ATOM     23  C   UNL     1       2.555 -11.934   3.187  0.00  0.00    -0.000 A 
ATOM     24  C   UNL     1       2.670 -12.594   4.413  0.00  0.00    +0.010 A 
ATOM     25  C   UNL     1       3.825 -13.284   4.715  0.00  0.00    +0.003 A 
ATOM     26  C   UNL     1       4.869 -13.323   3.807  0.00  0.00    +0.033 A 
ATOM     27  C   UNL     1       4.762 -12.672   2.591  0.00  0.00    +0.127 A 
ATOM     28  C   UNL     1       3.610 -11.983   2.273  0.00  0.00    +0.042 A 
BRANCH  27  29
ATOM     29  N   UNL     1       5.884 -12.719   1.627  0.00  0.00    +0.056 N 
ATOM     30  O   UNL     1       6.893 -13.326   1.903  0.00  0.00    -0.126 OA
ATOM     31  O   UNL     1       5.792 -12.150   0.564  0.00  0.00    -0.126 OA
ENDBRANCH  27  29
ENDBRANCH  21  23
ENDBRANCH   3  20
TORSDOF 7
