REMARK  Name = ZINC13365151
REMARK  9 active torsions:
REMARK  status: ('A' for Active; 'I' for Inactive)
REMARK    1  A    between atoms: C_1  and  C_2
REMARK    2  A    between atoms: C_2  and  C_3
REMARK    3  A    between atoms: C_2  and  C_4
REMARK    4  A    between atoms: C_4  and  C_5
REMARK    5  A    between atoms: C_5  and  N_6
REMARK    6  A    between atoms: C_19  and  S_20
REMARK    7  A    between atoms: S_20  and  C_21
REMARK    8  A    between atoms: C_21  and  C_22
REMARK    9  A    between atoms: C_30  and  C_34
REMARK                            x       y       z     vdW  Elec       q    Type
REMARK                         _______ _______ _______ _____ _____    ______ ____
ROOT
ATOM      1  N   UNL     1       0.667  -0.609   3.684  0.00  0.00    -0.277 N 
ATOM      2  C   UNL     1       0.398  -1.842   4.160  0.00  0.00    +0.263 A 
ATOM      3  O   UNL     1      -0.425  -2.550   3.612  0.00  0.00    -0.267 OA
ATOM      4  C   UNL     1       1.120  -2.316   5.355  0.00  0.00    +0.064 A 
ATOM      5  C   UNL     1       0.882  -3.582   5.889  0.00  0.00    +0.015 A 
ATOM      6  C   UNL     1       1.577  -3.990   7.008  0.00  0.00    +0.001 A 
ATOM      7  C   UNL     1       2.507  -3.150   7.600  0.00  0.00    +0.002 A 
ATOM      8  C   UNL     1       2.751  -1.894   7.080  0.00  0.00    +0.027 A 
ATOM      9  C   UNL     1       2.062  -1.468   5.955  0.00  0.00    +0.064 A 
ATOM     10  N   UNL     1       2.289  -0.206   5.410  0.00  0.00    -0.256 N 
ATOM     11  C   UNL     1       1.608   0.204   4.297  0.00  0.00    +0.240 A 
ATOM     12  N   UNL     1       2.018   1.417   4.000  0.00  0.00    -0.109 NA
ATOM     13  N   UNL     1       2.987   1.792   4.938  0.00  0.00    -0.120 NA
ATOM     14  C   UNL     1       3.134   0.804   5.787  0.00  0.00    +0.198 A 
ENDROOT
BRANCH   1  15
ATOM     15  C   UNL     1      -0.042  -0.124   2.497  0.00  0.00    +0.128 C 
BRANCH  15  16
ATOM     16  C   UNL     1       0.742  -0.511   1.242  0.00  0.00    +0.025 C 
BRANCH  16  18
ATOM     17  C   UNL     1      -0.019   1.526   0.010  0.00  0.00    +0.007 C 
ATOM     18  C   UNL     1       0.002  -0.004   0.002  0.00  0.00    -0.016 C 
ATOM     19  C   UNL     1       0.718  -0.497  -1.257  0.00  0.00    +0.007 C 
ENDBRANCH  16  18
ENDBRANCH  15  16
ENDBRANCH   1  15
BRANCH  14  20
ATOM     20  S   UNL     1       4.237   0.774   7.161  0.00  0.00    -0.078 S 
BRANCH  20  21
ATOM     21  C   UNL     1       5.053   2.393   7.104  0.00  0.00    +0.151 C 
BRANCH  21  22
ATOM     22  C   UNL     1       6.036   2.500   8.241  0.00  0.00    +0.121 A 
ATOM     23  N   UNL     1       6.747   3.650   8.371  0.00  0.00    -0.310 N 
ATOM     24  H   UNL     1       6.612   4.373   7.739  0.00  0.00    +0.170 HD
ATOM     25  C   UNL     1       7.643   3.796   9.376  0.00  0.00    +0.259 A 
ATOM     26  O   UNL     1       8.286   4.821   9.505  0.00  0.00    -0.267 OA
ATOM     27  C   UNL     1       7.807   2.667  10.307  0.00  0.00    +0.065 A 
ATOM     28  C   UNL     1       8.703   2.720  11.374  0.00  0.00    +0.016 A 
ATOM     29  C   UNL     1       8.823   1.650  12.214  0.00  0.00    +0.016 A 
ATOM     30  C   UNL     1       8.054   0.496  12.014  0.00  0.00    +0.065 A 
ATOM     31  C   UNL     1       7.155   0.423  10.956  0.00  0.00    +0.043 A 
ATOM     32  C   UNL     1       7.024   1.512  10.091  0.00  0.00    +0.079 A 
ATOM     33  N   UNL     1       6.156   1.491   9.048  0.00  0.00    -0.233 NA
BRANCH  30  34
ATOM     34  C   UNL     1       8.199  -0.652  12.934  0.00  0.00    +0.387 C 
ATOM     35  O   UNL     1       8.988  -0.592  13.866  0.00  0.00    -0.241 OA
ATOM     36  O   UNL     1       7.529  -1.660  12.763  0.00  0.00    -0.241 OA
ENDBRANCH  30  34
ENDBRANCH  21  22
ENDBRANCH  20  21
ENDBRANCH  14  20
TORSDOF 7
