REMARK  Name = ZINC39462717
REMARK  9 active torsions:
REMARK  status: ('A' for Active; 'I' for Inactive)
REMARK    1  A    between atoms: C_4  and  C_7
REMARK    2  A    between atoms: C_7  and  C_8
REMARK    3  A    between atoms: C_7  and  C_14
REMARK    4  A    between atoms: N_16  and  C_17
REMARK    5  A    between atoms: C_17  and  C_19
REMARK    6  A    between atoms: C_17  and  N_23
REMARK    7  A    between atoms: N_23  and  C_24
REMARK    8  A    between atoms: C_24  and  N_26
REMARK    9  A    between atoms: N_26  and  C_27
REMARK                            x       y       z     vdW  Elec       q    Type
REMARK                         _______ _______ _______ _____ _____    ______ ____
ROOT
ATOM      1  C   UNL     1       3.652  -1.665  -1.200  0.00  0.00    +0.226 C 
ATOM      2  O   UNL     1       2.672  -1.691  -1.914  0.00  0.00    -0.275 OA
ATOM      3  N   UNL     1       4.687  -2.491  -1.446  0.00  0.00    -0.293 N 
ATOM      4  H   UNL     1       5.471  -2.470  -0.874  0.00  0.00    +0.151 HD
ENDROOT
BRANCH   1   5
ATOM      5  C   UNL     1       3.711  -0.707  -0.038  0.00  0.00    +0.135 C 
BRANCH   5   9
ATOM      6  C   UNL     1       0.102   1.573   0.113  0.00  0.00    +0.000 A 
ATOM      7  C   UNL     1       1.325   2.216   0.082  0.00  0.00    +0.000 A 
ATOM      8  C   UNL     1       2.493   1.478   0.034  0.00  0.00    +0.005 A 
ATOM      9  C   UNL     1       2.438   0.097   0.016  0.00  0.00    -0.031 A 
ATOM     10  C   UNL     1       1.215  -0.546   0.048  0.00  0.00    +0.005 A 
ATOM     11  C   UNL     1       0.047   0.192   0.095  0.00  0.00    +0.000 A 
ENDBRANCH   5   9
BRANCH   5  12
ATOM     12  C   UNL     1       3.870  -1.483   1.245  0.00  0.00    -0.031 A 
ATOM     13  C   UNL     1       3.012  -2.528   1.531  0.00  0.00    +0.005 A 
ATOM     14  C   UNL     1       3.158  -3.240   2.707  0.00  0.00    +0.000 A 
ATOM     15  C   UNL     1       4.161  -2.906   3.597  0.00  0.00    +0.000 A 
ATOM     16  C   UNL     1       5.020  -1.861   3.310  0.00  0.00    +0.000 A 
ATOM     17  C   UNL     1       4.877  -1.153   2.132  0.00  0.00    +0.005 A 
ENDBRANCH   5  12
ENDBRANCH   1   5
BRANCH   3  18
ATOM     18  C   UNL     1       4.630  -3.422  -2.575  0.00  0.00    +0.211 C 
BRANCH  18  19
ATOM     19  C   UNL     1       5.958  -3.388  -3.333  0.00  0.00    +0.225 C 
ATOM     20 CL   UNL     1       7.295  -3.872  -2.223  0.00  0.00    -0.080 Cl
ATOM     21 CL   UNL     1       5.887  -4.534  -4.723  0.00  0.00    -0.080 Cl
ATOM     22 CL   UNL     1       6.259  -1.719  -3.944  0.00  0.00    -0.080 Cl
ENDBRANCH  18  19
BRANCH  18  23
ATOM     23  N   UNL     1       4.385  -4.779  -2.079  0.00  0.00    -0.305 N 
ATOM     24  H   UNL     1       5.101  -5.274  -1.651  0.00  0.00    +0.150 HD
BRANCH  23  25
ATOM     25  C   UNL     1       3.167  -5.337  -2.216  0.00  0.00    +0.135 C 
ATOM     26  S   UNL     1       1.904  -4.462  -2.972  0.00  0.00    -0.019 S 
BRANCH  25  27
ATOM     27  N   UNL     1       2.942  -6.585  -1.760  0.00  0.00    -0.286 N 
ATOM     28  H   UNL     1       3.657  -7.081  -1.331  0.00  0.00    +0.152 HD
BRANCH  27  29
ATOM     29  C   UNL     1       1.617  -7.193  -1.909  0.00  0.00    +0.335 C 
ATOM     30  N   UNL     1       1.674  -8.639  -1.628  0.00  0.00    -0.225 NA
ATOM     31  C   UNL     1       0.893  -8.818  -0.613  0.00  0.00    +0.243 C 
ATOM     32  N   UNL     1       0.335  -7.648  -0.205  0.00  0.00    -0.139 NA
ATOM     33  N   UNL     1       0.691  -6.676  -0.887  0.00  0.00    -0.139 NA
ENDBRANCH  27  29
ENDBRANCH  25  27
ENDBRANCH  23  25
ENDBRANCH  18  23
ENDBRANCH   3  18
TORSDOF 9
