REMARK  Name = ZINC07602485
REMARK  8 active torsions:
REMARK  status: ('A' for Active; 'I' for Inactive)
REMARK    1  A    between atoms: C_1  and  C_2
REMARK    2  A    between atoms: C_2  and  C_4
REMARK    3  A    between atoms: C_9  and  N_10
REMARK    4  A    between atoms: C_11  and  C_13
REMARK    5  A    between atoms: C_13  and  O_14
REMARK    6  A    between atoms: O_14  and  C_15
REMARK    7  A    between atoms: C_15  and  C_17
REMARK    8  A    between atoms: C_18  and  C_19
REMARK                            x       y       z     vdW  Elec       q    Type
REMARK                         _______ _______ _______ _____ _____    ______ ____
ROOT
ATOM      1  N   UNL     1       4.791   1.574  -0.029  0.00  0.00    -0.282 N 
ATOM      2  C   UNL     1       3.538   2.070  -0.016  0.00  0.00    +0.255 C 
ATOM      3  O   UNL     1       3.361   3.270  -0.021  0.00  0.00    -0.272 OA
ATOM      4  H   UNL     1       4.935   0.617   0.041  0.00  0.00    +0.155 HD
ENDROOT
BRANCH   1  10
ATOM      5  C   UNL     1       7.023   2.037  -0.860  0.00  0.00    +0.042 A 
ATOM      6  C   UNL     1       8.111   2.914  -0.974  0.00  0.00    +0.062 A 
ATOM      7  C   UNL     1       8.062   4.154  -0.375  0.00  0.00    +0.167 A 
ATOM      8  C   UNL     1       6.926   4.544   0.341  0.00  0.00    +0.168 A 
ATOM      9  C   UNL     1       5.843   3.685   0.454  0.00  0.00    +0.073 A 
ATOM     10  C   UNL     1       5.880   2.435  -0.143  0.00  0.00    +0.048 A 
ATOM     11  O   UNL     1       7.130   5.801   0.828  0.00  0.00    -0.453 OA
ATOM     12  C   UNL     1       8.226   6.337   0.064  0.00  0.00    +0.466 C 
ATOM     13  O   UNL     1       8.972   5.172  -0.333  0.00  0.00    -0.453 OA
BRANCH   5  15
ATOM     14  C   UNL     1       8.342   0.246  -2.154  0.00  0.00    +0.091 C 
ATOM     15  C   UNL     1       7.074   0.715  -1.488  0.00  0.00    +0.162 C 
ATOM     16  O   UNL     1       6.096  -0.003  -1.472  0.00  0.00    -0.292 OA
ENDBRANCH   5  15
ENDBRANCH   1  10
BRANCH   2  17
ATOM     17  C   UNL     1       2.357   1.134   0.005  0.00  0.00    +0.328 C 
BRANCH  17  18
ATOM     18  O   UNL     1       1.147   1.894   0.016  0.00  0.00    -0.452 OA
BRANCH  18  19
ATOM     19  C   UNL     1      -0.011   1.201   0.035  0.00  0.00    +0.332 C 
ATOM     20  O   UNL     1       0.008  -0.015   0.042  0.00  0.00    -0.246 OA
BRANCH  19  21
ATOM     21  C   UNL     1      -1.249   1.891   0.041  0.00  0.00    +0.092 C 
ATOM     22  C   UNL     1      -2.409   1.198   0.054  0.00  0.00    +0.015 C 
BRANCH  22  23
ATOM     23  C   UNL     1      -3.692   1.913   0.060  0.00  0.00    -0.021 A 
ATOM     24  C   UNL     1      -3.716   3.313   0.052  0.00  0.00    +0.012 A 
ATOM     25  C   UNL     1      -4.921   3.980   0.058  0.00  0.00    +0.050 A 
ATOM     26  C   UNL     1      -6.115   3.270   0.071  0.00  0.00    +0.166 A 
ATOM     27  C   UNL     1      -6.098   1.874   0.079  0.00  0.00    +0.167 A 
ATOM     28  C   UNL     1      -4.895   1.197   0.068  0.00  0.00    +0.057 A 
ATOM     29  O   UNL     1      -7.388   1.424   0.091  0.00  0.00    -0.453 OA
ATOM     30  C   UNL     1      -8.190   2.546  -0.323  0.00  0.00    +0.466 C 
ATOM     31  O   UNL     1      -7.412   3.689   0.078  0.00  0.00    -0.453 OA
ENDBRANCH  22  23
ENDBRANCH  19  21
ENDBRANCH  18  19
ENDBRANCH  17  18
ENDBRANCH   2  17
TORSDOF 7
