REMARK  Name = ZINC64197388
REMARK  9 active torsions:
REMARK  status: ('A' for Active; 'I' for Inactive)
REMARK    1  A    between atoms: C_1  and  C_2
REMARK    2  A    between atoms: C_2  and  C_3
REMARK    3  A    between atoms: C_2  and  C_4
REMARK    4  A    between atoms: C_4  and  C_5
REMARK    5  A    between atoms: C_5  and  C_6
REMARK    6  A    between atoms: C_6  and  N_7
REMARK    7  A    between atoms: C_8  and  O_32
REMARK    8  A    between atoms: C_10  and  C_16
REMARK    9  A    between atoms: N_30  and  C_31
REMARK                            x       y       z     vdW  Elec       q    Type
REMARK                         _______ _______ _______ _____ _____    ______ ____
ROOT
ATOM      1  N   UNL     1      -2.834  -4.046  -0.239  0.00  0.00    -0.256 N 
ATOM      2  C   UNL     1      -2.869  -4.687  -1.564  0.00  0.00    +0.240 C 
ATOM      3  C   UNL     1      -2.848  -6.200  -1.601  0.00  0.00    +0.058 C 
ATOM      4  C   UNL     1      -2.799  -6.853  -0.445  0.00  0.00    +0.249 C 
ATOM      5  N   UNL     1      -2.769  -6.171   0.762  0.00  0.00    -0.236 N 
ATOM      6  C   UNL     1      -2.780  -4.835   0.854  0.00  0.00    +0.311 C 
ATOM      7  O   UNL     1      -2.746  -4.318   1.954  0.00  0.00    -0.252 OA
ATOM      8  O   UNL     1      -2.780  -8.209  -0.444  0.00  0.00    -0.270 OA
ATOM      9  H   UNL     1      -2.733  -6.688   1.582  0.00  0.00    +0.159 HD
ENDROOT
BRANCH   3  10
ATOM     10  C   UNL     1      -2.882  -6.945  -2.911  0.00  0.00    +0.118 C 
ATOM     11  C   UNL     1      -1.613  -6.640  -3.711  0.00  0.00    +0.128 C 
ATOM     12  C   UNL     1      -1.804  -7.287  -5.078  0.00  0.00    -0.035 C 
ATOM     13  C   UNL     1      -0.750  -8.066  -5.275  0.00  0.00    -0.001 A 
ATOM     14  C   UNL     1      -0.329  -8.873  -6.431  0.00  0.00    +0.010 A 
ATOM     15  C   UNL     1       0.825  -9.577  -6.283  0.00  0.00    +0.001 A 
ATOM     16  C   UNL     1       1.592  -9.559  -5.114  0.00  0.00    +0.002 A 
ATOM     17  C   UNL     1       1.283  -8.841  -4.005  0.00  0.00    +0.026 A 
ATOM     18  C   UNL     1       0.095  -8.056  -4.042  0.00  0.00    +0.043 A 
ATOM     19  N   UNL     1      -0.420  -7.254  -3.129  0.00  0.00    -0.376 N 
ATOM     20  C   UNL     1      -3.057  -7.066  -5.890  0.00  0.00    +0.049 C 
ATOM     21  C   UNL     1      -4.238  -7.287  -4.926  0.00  0.00    +0.089 C 
ATOM     22  N   UNL     1      -4.043  -6.506  -3.701  0.00  0.00    -0.296 NA
ATOM     23  C   UNL     1      -5.263  -6.497  -2.883  0.00  0.00    +0.105 C 
ATOM     24  H   UNL     1      -0.081  -7.099  -2.234  0.00  0.00    +0.160 HD
ENDBRANCH   3  10
BRANCH   2  25
ATOM     25  O   UNL     1      -1.747  -4.213  -2.311  0.00  0.00    -0.370 OA
ATOM     26  H   UNL     1      -1.737  -3.255  -2.441  0.00  0.00    +0.212 HD
ENDBRANCH   2  25
BRANCH   1  27
ATOM     27  C   UNL     1      -2.851  -2.587  -0.110  0.00  0.00    +0.112 C 
BRANCH  27  28
ATOM     28  C   UNL     1      -1.416  -2.058  -0.121  0.00  0.00    +0.019 C 
BRANCH  28  29
ATOM     29  C   UNL     1      -1.433  -0.534   0.013  0.00  0.00    +0.004 C 
BRANCH  29  31
ATOM     30  C   UNL     1      -0.019   1.526   0.010  0.00  0.00    +0.007 C 
ATOM     31  C   UNL     1       0.002  -0.004   0.002  0.00  0.00    -0.017 C 
ATOM     32  C   UNL     1       0.742  -0.511   1.242  0.00  0.00    +0.007 C 
ENDBRANCH  29  31
ENDBRANCH  28  29
ENDBRANCH  27  28
ENDBRANCH   1  27
TORSDOF 6
