REMARK  Name = ZINC06715298
REMARK  7 active torsions:
REMARK  status: ('A' for Active; 'I' for Inactive)
REMARK    1  A    between atoms: C_1  and  C_2
REMARK    2  A    between atoms: C_5  and  N_8
REMARK    3  A    between atoms: C_9  and  C_11
REMARK    4  A    between atoms: C_11  and  S_12
REMARK    5  A    between atoms: S_12  and  C_13
REMARK    6  A    between atoms: C_18  and  N_27
REMARK    7  A    between atoms: N_19  and  C_20
REMARK                            x       y       z     vdW  Elec       q    Type
REMARK                         _______ _______ _______ _____ _____    ______ ____
ROOT
ATOM      1  C   UNL     1       0.927  -8.718   2.595  0.00  0.00    +0.179 A 
ATOM      2  N   UNL     1       0.902  -9.279   1.405  0.00  0.00    -0.185 NA
ATOM      3  C   UNL     1       0.690 -10.598   1.267  0.00  0.00    +0.276 A 
ATOM      4  O   UNL     1       0.671 -11.103   0.153  0.00  0.00    -0.266 OA
ATOM      5  C   UNL     1       0.491 -11.398   2.410  0.00  0.00    +0.114 A 
ATOM      6  C   UNL     1       0.518 -10.808   3.640  0.00  0.00    +0.108 A 
ATOM      7  N   UNL     1       0.744  -9.458   3.728  0.00  0.00    -0.277 N 
ENDROOT
BRANCH   7   8
ATOM      8  C   UNL     1       0.781  -8.835   4.983  0.00  0.00    +0.050 A 
ATOM      9  C   UNL     1      -0.245  -7.983   5.367  0.00  0.00    +0.028 A 
ATOM     10  C   UNL     1      -0.206  -7.370   6.604  0.00  0.00    +0.022 A 
ATOM     11  C   UNL     1       0.855  -7.605   7.460  0.00  0.00    +0.041 A 
ATOM     12  C   UNL     1       1.879  -8.454   7.080  0.00  0.00    +0.022 A 
ATOM     13  C   UNL     1       1.842  -9.073   5.846  0.00  0.00    +0.028 A 
ATOM     14 CL   UNL     1       0.902  -6.832   9.014  0.00  0.00    -0.084 Cl
ENDBRANCH   7   8
BRANCH   6  15
ATOM     15  N   UNL     1       0.327 -11.559   4.778  0.00  0.00    -0.344 N 
ATOM     16  H   UNL     1       0.263 -12.525   4.716  0.00  0.00    +0.144 HD
ATOM     17  H   UNL     1       0.257 -11.122   5.641  0.00  0.00    +0.144 HD
ENDBRANCH   6  15
BRANCH   1  18
ATOM     18  S   UNL     1       1.208  -6.984   2.729  0.00  0.00    -0.078 S 
BRANCH  18  19
ATOM     19  C   UNL     1       1.390  -6.435   1.010  0.00  0.00    +0.173 C 
BRANCH  19  21
ATOM     20  N   UNL     1       1.806  -4.316  -0.197  0.00  0.00    -0.285 N 
ATOM     21  C   UNL     1       1.638  -4.949   0.982  0.00  0.00    +0.227 C 
ATOM     22  O   UNL     1       1.688  -4.322   2.019  0.00  0.00    -0.275 OA
ATOM     23  H   UNL     1       1.698  -4.804  -1.028  0.00  0.00    +0.155 HD
BRANCH  20  28
ATOM     24  C   UNL     1       3.140   1.197  -0.293  0.00  0.00    +0.044 C 
ATOM     25  C   UNL     1       2.786  -0.268  -0.268  0.00  0.00    -0.050 A 
ATOM     26  C   UNL     1       3.252  -1.073   0.756  0.00  0.00    +0.005 A 
ATOM     27  C   UNL     1       2.929  -2.415   0.782  0.00  0.00    +0.023 A 
ATOM     28  C   UNL     1       2.135  -2.956  -0.220  0.00  0.00    +0.033 A 
ATOM     29  C   UNL     1       1.668  -2.145  -1.246  0.00  0.00    +0.023 A 
ATOM     30  C   UNL     1       1.990  -0.802  -1.264  0.00  0.00    +0.005 A 
ENDBRANCH  20  28
ENDBRANCH  19  21
ENDBRANCH  18  19
ENDBRANCH   1  18
TORSDOF 6
