REMARK  Name = ZINC28675225
REMARK  11 active torsions:
REMARK  status: ('A' for Active; 'I' for Inactive)
REMARK    1  A    between atoms: C_1  and  C_2
REMARK    2  A    between atoms: C_2  and  C_3
REMARK    3  A    between atoms: C_2  and  C_4
REMARK    4  A    between atoms: C_2  and  C_5
REMARK    5  A    between atoms: C_8  and  O_11
REMARK    6  A    between atoms: O_11  and  C_12
REMARK    7  A    between atoms: C_12  and  C_13
REMARK    8  A    between atoms: C_13  and  O_15
REMARK    9  A    between atoms: O_15  and  C_16
REMARK   10  A    between atoms: C_16  and  C_17
REMARK   11  A    between atoms: N_22  and  C_23
REMARK                            x       y       z     vdW  Elec       q    Type
REMARK                         _______ _______ _______ _____ _____    ______ ____
ROOT
ATOM      1  C   UNL     1       4.832  -4.006   0.226  0.00  0.00    +0.258 C 
ATOM      2  O   UNL     1       3.790  -4.627   0.235  0.00  0.00    -0.272 OA
ATOM      3  N   UNL     1       4.814  -2.662   0.133  0.00  0.00    -0.237 N 
ATOM      4  C   UNL     1       3.639  -2.008   0.049  0.00  0.00    +0.310 C 
ATOM      5  O   UNL     1       2.595  -2.630   0.058  0.00  0.00    -0.252 OA
ATOM      6  N   UNL     1       3.622  -0.663  -0.045  0.00  0.00    -0.269 N 
ATOM      7  H   UNL     1       5.759  -2.099   0.124  0.00  0.00    +0.159 HD
ATOM      8  H   UNL     1       4.565  -0.106  -0.141  0.00  0.00    +0.156 HD
ENDROOT
BRANCH   6   9
ATOM      9  C   UNL     1       2.401   0.025  -0.019  0.00  0.00    +0.038 A 
ATOM     10  C   UNL     1       1.346  -0.460   0.741  0.00  0.00    +0.027 A 
ATOM     11  C   UNL     1       0.142   0.218   0.766  0.00  0.00    +0.051 A 
ATOM     12  C   UNL     1      -0.016   1.384   0.032  0.00  0.00    +0.162 A 
ATOM     13  C   UNL     1       1.040   1.873  -0.728  0.00  0.00    +0.164 A 
ATOM     14  C   UNL     1       2.247   1.192  -0.754  0.00  0.00    +0.072 A 
ATOM     15  O   UNL     1       0.906   3.021  -1.448  0.00  0.00    -0.485 OA
ATOM     16  C   UNL     1      -0.429   3.474  -1.696  0.00  0.00    +0.270 C 
ATOM     17  C   UNL     1      -1.215   3.396  -0.380  0.00  0.00    +0.270 C 
ATOM     18  O   UNL     1      -1.212   2.034   0.062  0.00  0.00    -0.485 OA
ENDBRANCH   6   9
BRANCH   1  19
ATOM     19  C   UNL     1       6.146  -4.738   0.320  0.00  0.00    +0.328 C 
BRANCH  19  20
ATOM     20  O   UNL     1       5.899  -6.166   0.411  0.00  0.00    -0.453 OA
BRANCH  20  21
ATOM     21  C   UNL     1       6.973  -6.966   0.501  0.00  0.00    +0.346 C 
ATOM     22  O   UNL     1       8.083  -6.488   0.504  0.00  0.00    -0.247 OA
BRANCH  21  23
ATOM     23  C   UNL     1       6.795  -8.459   0.599  0.00  0.00    +0.349 C 
BRANCH  23  24
ATOM     24  O   UNL     1       8.076  -9.087   0.684  0.00  0.00    -0.481 OA
BRANCH  24  28
ATOM     25  C   UNL     1       8.130 -13.202   0.970  0.00  0.00    -0.042 A 
ATOM     26  C   UNL     1       9.318 -12.495   0.960  0.00  0.00    +0.008 A 
ATOM     27  C   UNL     1       9.303 -11.117   0.864  0.00  0.00    +0.046 A 
ATOM     28  C   UNL     1       8.094 -10.443   0.778  0.00  0.00    +0.121 A 
ATOM     29  C   UNL     1       6.903 -11.153   0.794  0.00  0.00    +0.046 A 
ATOM     30  C   UNL     1       6.923 -12.532   0.884  0.00  0.00    +0.008 A 
BRANCH  25  32
ATOM     31  C   UNL     1       8.836 -15.117   2.379  0.00  0.00    +0.015 C 
ATOM     32  C   UNL     1       8.149 -14.705   1.075  0.00  0.00    -0.013 C 
ATOM     33  C   UNL     1       6.714 -15.236   1.065  0.00  0.00    +0.015 C 
ATOM     34  C   UNL     1       8.917 -15.289  -0.112  0.00  0.00    +0.015 C 
ENDBRANCH  25  32
ENDBRANCH  24  28
ENDBRANCH  23  24
ENDBRANCH  21  23
ENDBRANCH  20  21
ENDBRANCH  19  20
ENDBRANCH   1  19
TORSDOF 8
