REMARK  Name = ZINC02640083
REMARK  8 active torsions:
REMARK  status: ('A' for Active; 'I' for Inactive)
REMARK    1  A    between atoms: C_1  and  C_2
REMARK    2  A    between atoms: C_2  and  C_4
REMARK    3  A    between atoms: C_2  and  S_17
REMARK    4  A    between atoms: N_6  and  C_7
REMARK    5  A    between atoms: C_10  and  N_13
REMARK    6  A    between atoms: C_14  and  C_16
REMARK    7  A    between atoms: S_17  and  C_18
REMARK    8  A    between atoms: C_21  and  C_23
REMARK                            x       y       z     vdW  Elec       q    Type
REMARK                         _______ _______ _______ _____ _____    ______ ____
ROOT
ATOM      1  C   UNL     1      -0.172  10.422   1.821  0.00  0.00    +0.029 C 
ATOM      2  C   UNL     1      -0.166   9.921   0.376  0.00  0.00    +0.139 C 
ENDROOT
BRANCH   2   3
ATOM      3  C   UNL     1      -0.131   8.414   0.367  0.00  0.00    +0.230 C 
ATOM      4  O   UNL     1       0.929   7.833   0.268  0.00  0.00    -0.274 OA
ATOM      5  N   UNL     1      -1.277   7.713   0.470  0.00  0.00    -0.285 N 
ATOM      6  H   UNL     1      -2.117   8.175   0.617  0.00  0.00    +0.155 HD
BRANCH   5   7
ATOM      7  C   UNL     1      -1.255   6.316   0.364  0.00  0.00    +0.034 A 
ATOM      8  C   UNL     1      -2.312   5.649  -0.242  0.00  0.00    +0.025 A 
ATOM      9  C   UNL     1      -2.290   4.273  -0.347  0.00  0.00    +0.025 A 
ATOM     10  C   UNL     1      -1.212   3.555   0.154  0.00  0.00    +0.033 A 
ATOM     11  C   UNL     1      -0.158   4.222   0.766  0.00  0.00    +0.025 A 
ATOM     12  C   UNL     1      -0.177   5.598   0.865  0.00  0.00    +0.025 A 
BRANCH  10  13
ATOM     13  N   UNL     1      -1.190   2.159   0.048  0.00  0.00    -0.286 N 
ATOM     14  C   UNL     1      -0.013   1.503   0.029  0.00  0.00    +0.214 C 
ATOM     15  O   UNL     1       1.028   2.125  -0.005  0.00  0.00    -0.276 OA
ATOM     16  C   UNL     1       0.011  -0.004   0.044  0.00  0.00    +0.109 C 
ATOM     17  H   UNL     1      -2.022   1.664  -0.012  0.00  0.00    +0.155 HD
ENDBRANCH  10  13
ENDBRANCH   5   7
ENDBRANCH   2   3
BRANCH   2  18
ATOM     18  S   UNL     1       1.294  10.563  -0.480  0.00  0.00    -0.053 S 
BRANCH  18  19
ATOM     19  C   UNL     1       0.928  12.287  -0.456  0.00  0.00    +0.278 A 
ATOM     20  N   UNL     1      -0.138  12.848   0.065  0.00  0.00    -0.101 NA
ATOM     21  N   UNL     1      -0.074  14.122  -0.097  0.00  0.00    -0.106 NA
ATOM     22  C   UNL     1       1.034  14.426  -0.728  0.00  0.00    +0.249 A 
ATOM     23  O   UNL     1       1.694  13.271  -0.965  0.00  0.00    -0.411 OA
BRANCH  22  24
ATOM     24  C   UNL     1       1.482  15.782  -1.106  0.00  0.00    +0.042 A 
ATOM     25  C   UNL     1       2.695  15.958  -1.774  0.00  0.00    +0.017 A 
ATOM     26  C   UNL     1       3.108  17.225  -2.131  0.00  0.00    +0.050 A 
ATOM     27  C   UNL     1       2.328  18.328  -1.818  0.00  0.00    +0.166 A 
ATOM     28  C   UNL     1       1.117  18.160  -1.146  0.00  0.00    +0.167 A 
ATOM     29  C   UNL     1       0.695  16.892  -0.791  0.00  0.00    +0.062 A 
ATOM     30  O   UNL     1       0.548  19.387  -0.960  0.00  0.00    -0.453 OA
ATOM     31  C   UNL     1       1.219  20.265  -1.882  0.00  0.00    +0.466 C 
ATOM     32  O   UNL     1       2.514  19.660  -2.051  0.00  0.00    -0.453 OA
ENDBRANCH  22  24
ENDBRANCH  18  19
ENDBRANCH   2  18
TORSDOF 6
