REMARK  Name = ZINC19417537
REMARK  12 active torsions:
REMARK  status: ('A' for Active; 'I' for Inactive)
REMARK    1  A    between atoms: C_1  and  C_2
REMARK    2  A    between atoms: C_2  and  O_3
REMARK    3  A    between atoms: O_3  and  C_4
REMARK    4  A    between atoms: C_4  and  C_6
REMARK    5  A    between atoms: C_7  and  C_19
REMARK    6  A    between atoms: C_12  and  C_14
REMARK    7  A    between atoms: C_19  and  O_20
REMARK    8  A    between atoms: O_20  and  C_21
REMARK    9  A    between atoms: C_21  and  C_23
REMARK   10  A    between atoms: C_24  and  C_34
REMARK   11  A    between atoms: C_25  and  C_33
REMARK   12  A    between atoms: C_27  and  N_28
REMARK                            x       y       z     vdW  Elec       q    Type
REMARK                         _______ _______ _______ _____ _____    ______ ____
ROOT
ATOM      1  C   UNL     1       2.215  -2.036  -1.466  0.00  0.00    +0.084 C 
ATOM      2  C   UNL     1       3.457  -2.519  -1.687  0.00  0.00    +0.061 C 
ATOM      3  N   UNL     1       4.337  -2.699  -0.659  0.00  0.00    -0.269 N 
ATOM      4  C   UNL     1       4.053  -2.421   0.619  0.00  0.00    +0.305 C 
ATOM      5  O   UNL     1       4.902  -2.615   1.466  0.00  0.00    -0.252 OA
ATOM      6  N   UNL     1       2.854  -1.934   0.998  0.00  0.00    -0.285 N 
ATOM      7  C   UNL     1       1.833  -1.702  -0.038  0.00  0.00    +0.179 C 
ATOM      8  H   UNL     1       5.344  -3.094  -0.860  0.00  0.00    +0.156 HD
ATOM      9  H   UNL     1       2.630  -1.709   2.051  0.00  0.00    +0.151 HD
ENDROOT
BRANCH   7  10
ATOM     10  C   UNL     1       1.443  -0.248   0.011  0.00  0.00    +0.130 A 
ATOM     11  C   UNL     1       0.186   0.230   0.011  0.00  0.00    +0.047 A 
ATOM     12  C   UNL     1       0.283   1.640   0.064  0.00  0.00    +0.041 A 
ATOM     13  C   UNL     1       1.594   1.939   0.093  0.00  0.00    +0.195 A 
ATOM     14  O   UNL     1       2.292   0.792   0.060  0.00  0.00    -0.466 OA
ENDBRANCH   7  10
BRANCH   1  15
ATOM     15  C   UNL     1       1.303  -1.848  -2.530  0.00  0.00    +0.339 C 
ATOM     16  O   UNL     1       0.428  -2.669  -2.734  0.00  0.00    -0.245 OA
BRANCH  15  17
ATOM     17  O   UNL     1       1.402  -0.758  -3.319  0.00  0.00    -0.462 OA
BRANCH  17  19
ATOM     18  C   UNL     1       0.717   0.655  -5.156  0.00  0.00    +0.048 C 
ATOM     19  C   UNL     1       0.447  -0.633  -4.375  0.00  0.00    +0.229 C 
ENDBRANCH  17  19
ENDBRANCH  15  17
ENDBRANCH   1  15
BRANCH   2  20
ATOM     20  C   UNL     1       3.878  -2.864  -3.093  0.00  0.00    +0.283 C 
BRANCH  20  21
ATOM     21  O   UNL     1       4.947  -1.975  -3.510  0.00  0.00    -0.455 OA
BRANCH  21  22
ATOM     22  C   UNL     1       5.442  -2.152  -4.752  0.00  0.00    +0.342 C 
ATOM     23  O   UNL     1       4.990  -3.026  -5.467  0.00  0.00    -0.245 OA
BRANCH  22  24
ATOM     24  C   UNL     1       6.522  -1.291  -5.240  0.00  0.00    +0.093 A 
ATOM     25  C   UNL     1       6.251  -0.055  -5.935  0.00  0.00    -0.024 A 
ATOM     26  C   UNL     1       7.311   0.665  -6.344  0.00  0.00    -0.008 A 
ATOM     27  S   UNL     1       8.701  -0.306  -5.800  0.00  0.00    -0.075 S 
ATOM     28  C   UNL     1       7.859  -1.621  -5.051  0.00  0.00    +0.099 A 
ATOM     29  C   UNL     1       7.319   1.979  -7.083  0.00  0.00    +0.052 C 
ATOM     30  C   UNL     1       4.840   0.407  -6.192  0.00  0.00    +0.045 C 
BRANCH  28  31
ATOM     31  N   UNL     1       8.392  -2.738  -4.417  0.00  0.00    -0.317 N 
ATOM     32  C   UNL     1       7.671  -3.745  -3.838  0.00  0.00    +0.092 A 
ATOM     33  C   UNL     1       8.538  -4.646  -3.332  0.00  0.00    +0.019 A 
ATOM     34  C   UNL     1       9.841  -4.176  -3.599  0.00  0.00    +0.019 A 
ATOM     35  C   UNL     1       9.723  -3.008  -4.262  0.00  0.00    +0.092 A 
ENDBRANCH  28  31
ENDBRANCH  22  24
ENDBRANCH  21  22
ENDBRANCH  20  21
ENDBRANCH   2  20
TORSDOF 9
