REMARK  Name = ZINC08059695
REMARK  6 active torsions:
REMARK  status: ('A' for Active; 'I' for Inactive)
REMARK    1  A    between atoms: C_3  and  C_6
REMARK    2  A    between atoms: C_6  and  N_7
REMARK    3  A    between atoms: N_7  and  C_8
REMARK    4  A    between atoms: N_7  and  S_15
REMARK    5  A    between atoms: C_8  and  C_9
REMARK    6  A    between atoms: S_15  and  C_18
REMARK                            x       y       z     vdW  Elec       q    Type
REMARK                         _______ _______ _______ _____ _____    ______ ____
ROOT
ATOM      1  S   UNL     1       4.128   3.478   2.101  0.00  0.00    +0.061 S 
ATOM      2  O   UNL     1       5.114   3.485   3.124  0.00  0.00    -0.153 OA
ATOM      3  O   UNL     1       4.094   4.454   1.069  0.00  0.00    -0.153 OA
ENDROOT
BRANCH   1   4
ATOM      4  C   UNL     1       2.563   3.542   2.908  0.00  0.00    +0.108 A 
ATOM      5  C   UNL     1       1.458   4.029   2.231  0.00  0.00    +0.030 A 
ATOM      6  C   UNL     1       0.228   4.083   2.855  0.00  0.00    +0.030 A 
ATOM      7  C   UNL     1       0.098   3.648   4.165  0.00  0.00    +0.067 A 
ATOM      8  C   UNL     1       1.213   3.157   4.848  0.00  0.00    +0.069 A 
ATOM      9  C   UNL     1       2.443   3.101   4.211  0.00  0.00    +0.056 A 
ATOM     10  N   UNL     1       0.779   2.801   6.123  0.00  0.00    -0.306 N 
ATOM     11  H   UNL     1       1.332   2.428   6.827  0.00  0.00    +0.170 HD
ATOM     12  C   UNL     1      -0.538   3.064   6.212  0.00  0.00    +0.325 A 
ATOM     13  O   UNL     1      -1.227   2.869   7.196  0.00  0.00    -0.247 OA
ATOM     14  N   UNL     1      -0.978   3.576   5.046  0.00  0.00    -0.306 N 
ATOM     15  H   UNL     1      -1.889   3.848   4.854  0.00  0.00    +0.170 HD
ENDBRANCH   1   4
BRANCH   1  16
ATOM     16  N   UNL     1       4.234   2.004   1.353  0.00  0.00    -0.169 NA
BRANCH  16  17
ATOM     17  C   UNL     1       3.761   1.845  -0.024  0.00  0.00    +0.151 C 
BRANCH  17  20
ATOM     18  C   UNL     1      -0.016   1.351   0.009  0.00  0.00    +0.008 A 
ATOM     19  C   UNL     1       1.183   2.038   0.002  0.00  0.00    +0.012 A 
ATOM     20  C   UNL     1       2.343   1.336  -0.013  0.00  0.00    +0.005 A 
ATOM     21  S   UNL     1       1.754  -0.349  -0.017  0.00  0.00    -0.100 S 
ATOM     22  C   UNL     1       0.002  -0.004   0.002  0.00  0.00    +0.045 A 
ENDBRANCH  17  20
ENDBRANCH  16  17
BRANCH  16  23
ATOM     23  C   UNL     1       4.800   0.858   2.069  0.00  0.00    +0.141 C 
BRANCH  23  24
ATOM     24  C   UNL     1       6.286   0.728   1.729  0.00  0.00    +0.134 C 
ATOM     25  C   UNL     1       6.863  -0.546   2.383  0.00  0.00    +0.035 C 
ATOM     26  C   UNL     1       8.266  -0.071   2.849  0.00  0.00    +0.031 C 
ATOM     27  C   UNL     1       7.968   1.402   3.224  0.00  0.00    +0.160 C 
ATOM     28  O   UNL     1       7.005   1.849   2.255  0.00  0.00    -0.375 OA
ENDBRANCH  23  24
ENDBRANCH  16  23
ENDBRANCH   1  16
TORSDOF 6
