REMARK  Name = ZINC12737565
REMARK  8 active torsions:
REMARK  status: ('A' for Active; 'I' for Inactive)
REMARK    1  A    between atoms: C_1  and  C_2
REMARK    2  A    between atoms: N_4  and  C_5
REMARK    3  A    between atoms: C_8  and  N_12
REMARK    4  A    between atoms: C_13  and  C_15
REMARK    5  A    between atoms: C_15  and  C_16
REMARK    6  A    between atoms: C_16  and  C_17
REMARK    7  A    between atoms: C_17  and  N_18
REMARK    8  A    between atoms: C_22  and  N_28
REMARK                            x       y       z     vdW  Elec       q    Type
REMARK                         _______ _______ _______ _____ _____    ______ ____
ROOT
ATOM      1  N   UNL     1      -4.462   8.584  -3.009  0.00  0.00    -0.285 N 
ATOM      2  C   UNL     1      -4.005   7.340  -2.765  0.00  0.00    +0.217 C 
ATOM      3  O   UNL     1      -3.731   6.603  -3.688  0.00  0.00    -0.275 OA
ATOM      4  H   UNL     1      -4.743   9.150  -2.273  0.00  0.00    +0.155 HD
ENDROOT
BRANCH   1   8
ATOM      5  C   UNL     1      -4.667  10.002  -6.926  0.00  0.00    +0.052 A 
ATOM      6  C   UNL     1      -4.346  10.869  -5.889  0.00  0.00    +0.026 A 
ATOM      7  C   UNL     1      -4.284  10.400  -4.592  0.00  0.00    +0.025 A 
ATOM      8  C   UNL     1      -4.530   9.060  -4.324  0.00  0.00    +0.035 A 
ATOM      9  C   UNL     1      -4.851   8.193  -5.360  0.00  0.00    +0.045 A 
ATOM     10  C   UNL     1      -4.919   8.662  -6.658  0.00  0.00    +0.064 A 
ATOM     11 CL   UNL     1      -5.319   7.578  -7.954  0.00  0.00    -0.082 Cl
BRANCH   5  15
ATOM     12  C   UNL     1      -3.898  11.890 -10.092  0.00  0.00    +0.109 C 
ATOM     13  C   UNL     1      -3.894  11.449  -8.651  0.00  0.00    +0.214 C 
ATOM     14  O   UNL     1      -3.135  11.968  -7.860  0.00  0.00    -0.276 OA
ATOM     15  N   UNL     1      -4.735  10.479  -8.242  0.00  0.00    -0.285 N 
ATOM     16  H   UNL     1      -5.387  10.110  -8.857  0.00  0.00    +0.155 HD
ENDBRANCH   5  15
ENDBRANCH   1   8
BRANCH   2  17
ATOM     17  C   UNL     1      -3.834   6.864  -1.345  0.00  0.00    +0.098 C 
BRANCH  17  18
ATOM     18  C   UNL     1      -3.306   5.428  -1.348  0.00  0.00    +0.031 C 
BRANCH  18  19
ATOM     19  C   UNL     1      -3.133   4.946   0.093  0.00  0.00    +0.129 C 
BRANCH  19  20
ATOM     20  N   UNL     1      -2.627   3.571   0.091  0.00  0.00    -0.274 N 
ATOM     21  C   UNL     1      -1.287   3.185   0.092  0.00  0.00    +0.090 A 
ATOM     22  C   UNL     1      -0.094   3.890   0.097  0.00  0.00    +0.032 A 
ATOM     23  C   UNL     1       1.107   3.208   0.098  0.00  0.00    +0.035 A 
ATOM     24  C   UNL     1       1.121   1.823   0.093  0.00  0.00    +0.130 A 
ATOM     25  C   UNL     1      -0.064   1.114   0.088  0.00  0.00    +0.081 A 
ATOM     26  C   UNL     1      -1.274   1.790   0.082  0.00  0.00    +0.159 A 
ATOM     27  O   UNL     1      -2.565   1.376   0.084  0.00  0.00    -0.407 OA
ATOM     28  C   UNL     1      -3.373   2.448   0.086  0.00  0.00    +0.421 A 
ATOM     29  O   UNL     1      -4.588   2.411   0.084  0.00  0.00    -0.223 OA
BRANCH  24  30
ATOM     30  N   UNL     1       2.412   1.100   0.093  0.00  0.00    +0.057 N 
ATOM     31  O   UNL     1       2.428  -0.118   0.089  0.00  0.00    -0.126 OA
ATOM     32  O   UNL     1       3.459   1.722   0.098  0.00  0.00    -0.126 OA
ENDBRANCH  24  30
ENDBRANCH  19  20
ENDBRANCH  18  19
ENDBRANCH  17  18
ENDBRANCH   2  17
TORSDOF 7
