REMARK  Name = ZINC45555392
REMARK  5 active torsions:
REMARK  status: ('A' for Active; 'I' for Inactive)
REMARK    1  A    between atoms: C_6  and  C_7
REMARK    2  A    between atoms: C_10  and  S_13
REMARK    3  A    between atoms: S_13  and  C_14
REMARK    4  A    between atoms: C_14  and  C_15
REMARK    5  A    between atoms: C_24  and  N_26
REMARK                            x       y       z     vdW  Elec       q    Type
REMARK                         _______ _______ _______ _____ _____    ______ ____
ROOT
ATOM      1  C   UNL     1      -1.797  -5.128  -0.007  0.00  0.00    +0.173 C 
ENDROOT
BRANCH   1   2
ATOM      2  C   UNL     1      -2.200  -6.579  -0.011  0.00  0.00    +0.230 C 
ATOM      3  O   UNL     1      -3.375  -6.882  -0.002  0.00  0.00    -0.274 OA
ATOM      4  N   UNL     1      -1.256  -7.541  -0.025  0.00  0.00    -0.270 N 
ATOM      5  C   UNL     1      -1.525  -8.982  -0.036  0.00  0.00    +0.118 C 
ATOM      6  C   UNL     1      -0.141  -9.650  -0.051  0.00  0.00    +0.056 C 
ATOM      7  C   UNL     1       0.838  -8.498  -0.047  0.00  0.00    -0.022 A 
ATOM      8  C   UNL     1       0.123  -7.311  -0.038  0.00  0.00    +0.040 A 
ATOM      9  C   UNL     1       0.818  -6.100  -0.038  0.00  0.00    +0.026 A 
ATOM     10  C   UNL     1       2.196  -6.090  -0.051  0.00  0.00    +0.034 A 
ATOM     11  C   UNL     1       2.901  -7.279  -0.064  0.00  0.00    +0.127 A 
ATOM     12  C   UNL     1       2.220  -8.482  -0.056  0.00  0.00    +0.038 A 
BRANCH  11  13
ATOM     13  N   UNL     1       4.381  -7.265  -0.078  0.00  0.00    +0.056 N 
ATOM     14  O   UNL     1       4.975  -6.212  -0.078  0.00  0.00    -0.126 OA
ATOM     15  O   UNL     1       4.996  -8.306  -0.090  0.00  0.00    -0.126 OA
ENDBRANCH  11  13
ENDBRANCH   1   2
BRANCH   1  16
ATOM     16  S   UNL     1      -3.283  -4.087   0.012  0.00  0.00    -0.077 S 
BRANCH  16  20
ATOM     17  C   UNL     1      -1.271  -0.766   0.010  0.00  0.00    +0.182 A 
ATOM     18  N   UNL     1      -1.381  -2.102   0.004  0.00  0.00    -0.201 NA
ATOM     19  H   UNL     1      -4.355  -1.245   0.038  0.00  0.00    +0.191 HD
ATOM     20  C   UNL     1      -2.651  -2.442   0.015  0.00  0.00    +0.185 A 
ATOM     21  N   UNL     1      -3.387  -1.309   0.028  0.00  0.00    -0.253 N 
ATOM     22  N   UNL     1      -2.475  -0.241   0.030  0.00  0.00    -0.152 NA
BRANCH  17  28
ATOM     23  C   UNL     1      -0.017   1.389   0.010  0.00  0.00    +0.013 A 
ATOM     24  C   UNL     1       1.170   2.093   0.002  0.00  0.00    +0.021 A 
ATOM     25  C   UNL     1       2.378   1.417  -0.013  0.00  0.00    +0.041 A 
ATOM     26  C   UNL     1       2.402   0.033  -0.021  0.00  0.00    +0.021 A 
ATOM     27  C   UNL     1       1.221  -0.680  -0.014  0.00  0.00    +0.013 A 
ATOM     28  C   UNL     1       0.002  -0.004   0.002  0.00  0.00    +0.021 A 
ATOM     29 CL   UNL     1       3.868   2.308  -0.023  0.00  0.00    -0.084 Cl
ENDBRANCH  17  28
ENDBRANCH  16  20
ENDBRANCH   1  16
TORSDOF 5
