REMARK  Name = ZINC39327229
REMARK  10 active torsions:
REMARK  status: ('A' for Active; 'I' for Inactive)
REMARK    1  A    between atoms: C_1  and  C_2
REMARK    2  A    between atoms: C_2  and  O_4
REMARK    3  A    between atoms: O_4  and  C_5
REMARK    4  A    between atoms: C_8  and  C_11
REMARK    5  A    between atoms: C_14  and  C_25
REMARK    6  A    between atoms: C_20  and  N_24
REMARK    7  A    between atoms: C_21  and  C_22
REMARK    8  A    between atoms: C_25  and  C_26
REMARK    9  A    between atoms: C_25  and  C_27
REMARK   10  A    between atoms: C_25  and  C_28
REMARK                            x       y       z     vdW  Elec       q    Type
REMARK                         _______ _______ _______ _____ _____    ______ ____
ROOT
ATOM      1  C   UNL     1       0.201  -6.753  -1.371  0.00  0.00    +0.101 C 
ATOM      2  C   UNL     1      -0.944  -6.981  -2.325  0.00  0.00    +0.050 A 
ATOM      3  C   UNL     1      -2.263  -6.835  -2.130  0.00  0.00    +0.049 A 
ATOM      4  N   UNL     1      -2.888  -7.157  -3.286  0.00  0.00    -0.277 N 
ATOM      5  H   UNL     1      -3.845  -7.143  -3.439  0.00  0.00    +0.189 HD
ATOM      6  N   UNL     1      -1.908  -7.513  -4.226  0.00  0.00    -0.135 NA
ATOM      7  C   UNL     1      -0.743  -7.410  -3.655  0.00  0.00    +0.245 A 
ATOM      8  O   UNL     1       0.499  -7.650  -4.156  0.00  0.00    -0.421 OA
ATOM      9  C   UNL     1       1.518  -7.727  -3.277  0.00  0.00    +0.201 C 
ATOM     10  C   UNL     1       1.448  -7.336  -1.986  0.00  0.00    +0.098 C 
ENDROOT
BRANCH   1  14
ATOM     11  C   UNL     1       0.732  -2.562  -0.728  0.00  0.00    +0.132 A 
ATOM     12  C   UNL     1       0.791  -3.442   0.343  0.00  0.00    +0.046 A 
ATOM     13  C   UNL     1       0.619  -4.797   0.132  0.00  0.00    +0.008 A 
ATOM     14  C   UNL     1       0.388  -5.275  -1.145  0.00  0.00    -0.034 A 
ATOM     15  C   UNL     1       0.329  -4.400  -2.213  0.00  0.00    +0.008 A 
ATOM     16  C   UNL     1       0.494  -3.044  -2.007  0.00  0.00    +0.046 A 
BRANCH  11  17
ATOM     17  O   UNL     1       0.900  -1.229  -0.523  0.00  0.00    -0.426 OA
BRANCH  17  19
ATOM     18  C   UNL     1       2.400   0.703  -0.182  0.00  0.00    +0.136 C 
ATOM     19  C   UNL     1       2.146  -0.777  -0.303  0.00  0.00    +0.309 C 
ATOM     20  O   UNL     1       3.062  -1.558  -0.202  0.00  0.00    -0.251 OA
ENDBRANCH  17  19
ENDBRANCH  11  17
ENDBRANCH   1  14
BRANCH   3  21
ATOM     21  C   UNL     1      -2.930  -6.394  -0.852  0.00  0.00    +0.004 C 
ATOM     22  C   UNL     1      -4.447  -6.524  -0.997  0.00  0.00    +0.017 C 
ATOM     23  C   UNL     1      -2.450  -7.274   0.304  0.00  0.00    +0.017 C 
ATOM     24  C   UNL     1      -2.568  -4.935  -0.566  0.00  0.00    +0.017 C 
ENDBRANCH   3  21
BRANCH   9  25
ATOM     25  N   UNL     1       2.710  -8.239  -3.724  0.00  0.00    -0.328 N 
ATOM     26  H   UNL     1       2.798  -8.530  -4.646  0.00  0.00    +0.145 HD
ATOM     27  H   UNL     1       3.465  -8.310  -3.120  0.00  0.00    +0.145 HD
ENDBRANCH   9  25
BRANCH  10  28
ATOM     28  C   UNL     1       2.611  -7.481  -1.163  0.00  0.00    +0.101 C 
ATOM     29  N   UNL     1       3.534  -7.596  -0.510  0.00  0.00    -0.191 NA
ENDBRANCH  10  28
TORSDOF 6
