REMARK  Name = ZINC13093773
REMARK  5 active torsions:
REMARK  status: ('A' for Active; 'I' for Inactive)
REMARK    1  A    between atoms: C_3  and  N_25
REMARK    2  A    between atoms: C_6  and  N_7
REMARK    3  A    between atoms: N_10  and  S_13
REMARK    4  A    between atoms: S_13  and  C_16
REMARK    5  A    between atoms: C_18  and  C_23
REMARK                            x       y       z     vdW  Elec       q    Type
REMARK                         _______ _______ _______ _____ _____    ______ ____
ROOT
ATOM      1  N   UNL     1       1.162   3.483   0.009  0.00  0.00    -0.327 N 
ATOM      2  C   UNL     1       0.373   4.006  -1.114  0.00  0.00    +0.122 C 
ATOM      3  C   UNL     1       0.230   5.525  -0.969  0.00  0.00    +0.128 C 
ATOM      4  N   UNL     1       1.572   6.110  -0.826  0.00  0.00    -0.174 NA
ATOM      5  C   UNL     1       2.473   5.544   0.190  0.00  0.00    +0.128 C 
ATOM      6  C   UNL     1       2.528   4.024  -0.001  0.00  0.00    +0.122 C 
ENDROOT
BRANCH   1  12
ATOM      7  C   UNL     1      -0.017   1.377   0.010  0.00  0.00    +0.025 A 
ATOM      8  C   UNL     1       0.002  -0.004   0.002  0.00  0.00    +0.034 A 
ATOM      9  C   UNL     1       1.208  -0.681  -0.014  0.00  0.00    +0.126 A 
ATOM     10  C   UNL     1       2.399   0.022  -0.021  0.00  0.00    +0.034 A 
ATOM     11  C   UNL     1       2.387   1.403  -0.012  0.00  0.00    +0.025 A 
ATOM     12  C   UNL     1       1.178   2.086   0.002  0.00  0.00    +0.030 A 
BRANCH   9  13
ATOM     13  N   UNL     1       1.224  -2.161  -0.022  0.00  0.00    +0.056 N 
ATOM     14  O   UNL     1       0.176  -2.781  -0.015  0.00  0.00    -0.126 OA
ATOM     15  O   UNL     1       2.286  -2.758  -0.036  0.00  0.00    -0.126 OA
ENDBRANCH   9  13
ENDBRANCH   1  12
BRANCH   4  16
ATOM     16  S   UNL     1       2.055   7.372  -1.782  0.00  0.00    +0.064 S 
ATOM     17  O   UNL     1       0.873   8.029  -2.217  0.00  0.00    -0.153 OA
ATOM     18  O   UNL     1       3.085   8.047  -1.073  0.00  0.00    -0.153 OA
BRANCH  16  19
ATOM     19  C   UNL     1       2.804   6.679  -3.219  0.00  0.00    +0.141 A 
ATOM     20  C   UNL     1       2.219   6.860  -4.454  0.00  0.00    +0.046 A 
ATOM     21  C   UNL     1       2.816   6.315  -5.593  0.00  0.00    +0.065 A 
ATOM     22  C   UNL     1       3.998   5.580  -5.472  0.00  0.00    +0.018 A 
ATOM     23  C   UNL     1       4.571   5.401  -4.232  0.00  0.00    +0.041 A 
ATOM     24  C   UNL     1       3.977   5.949  -3.105  0.00  0.00    +0.150 A 
ATOM     25  F   UNL     1       4.543   5.771  -1.891  0.00  0.00    -0.203 F 
BRANCH  21  26
ATOM     26  C   UNL     1       2.198   6.510  -6.919  0.00  0.00    +0.387 C 
ATOM     27  O   UNL     1       1.170   7.150  -7.022  0.00  0.00    -0.241 OA
ATOM     28  O   UNL     1       2.773   5.979  -8.016  0.00  0.00    -0.241 OA
ENDBRANCH  21  26
ENDBRANCH  16  19
ENDBRANCH   4  16
TORSDOF 5
