REMARK  Name = ZINC35493901
REMARK  8 active torsions:
REMARK  status: ('A' for Active; 'I' for Inactive)
REMARK    1  A    between atoms: C_1  and  C_2
REMARK    2  A    between atoms: C_9  and  O_20
REMARK    3  A    between atoms: C_12  and  C_14
REMARK    4  A    between atoms: C_23  and  O_40
REMARK    5  A    between atoms: C_24  and  C_31
REMARK    6  A    between atoms: C_27  and  O_30
REMARK    7  A    between atoms: N_32  and  N_33
REMARK    8  A    between atoms: N_33  and  C_34
REMARK                            x       y       z     vdW  Elec       q    Type
REMARK                         _______ _______ _______ _____ _____    ______ ____
ROOT
ATOM      1  C   UNL     1      -0.056   1.540  -0.036  0.00  0.00    +0.014 C 
ATOM      2  C   UNL     1      -0.023   0.010  -0.019  0.00  0.00    +0.004 C 
ATOM      3  C   UNL     1      -1.433  -0.585  -0.011  0.00  0.00    +0.010 C 
ATOM      4  C   UNL     1      -2.101  -0.374   1.345  0.00  0.00    +0.005 C 
ATOM      5  C   UNL     1      -1.288  -1.116   2.411  0.00  0.00    +0.009 C 
ATOM      6  C   UNL     1       0.104  -0.490   2.480  0.00  0.00    +0.025 C 
ATOM      7  C   UNL     1       0.802  -0.528   1.163  0.00  0.00    +0.075 C 
ATOM      8  C   UNL     1       1.141  -1.969   0.740  0.00  0.00    +0.036 C 
ATOM      9  C   UNL     1       1.440  -1.839  -0.772  0.00  0.00    +0.011 C 
ATOM     10  C   UNL     1       0.722  -0.564  -1.254  0.00  0.00    +0.027 C 
ATOM     11  C   UNL     1       0.932  -1.199   3.555  0.00  0.00    +0.009 C 
ATOM     12  C   UNL     1       0.238  -1.056   4.911  0.00  0.00    +0.036 C 
ATOM     13  C   UNL     1      -1.155  -1.686   4.839  0.00  0.00    +0.079 C 
ATOM     14  C   UNL     1      -1.990  -0.987   3.764  0.00  0.00    +0.039 C 
ATOM     15  C   UNL     1      -3.378  -1.624   3.681  0.00  0.00    +0.018 C 
ATOM     16  C   UNL     1      -4.080  -1.496   5.035  0.00  0.00    +0.032 C 
ATOM     17  C   UNL     1      -3.254  -2.211   6.107  0.00  0.00    +0.117 C 
ATOM     18  C   UNL     1      -1.848  -1.545   6.196  0.00  0.00    +0.067 C 
ENDROOT
BRANCH  10  19
ATOM     19  C   UNL     1       1.728   0.436  -1.762  0.00  0.00    -0.022 C 
ATOM     20  C   UNL     1       1.692   1.075  -2.930  0.00  0.00    +0.094 C 
ATOM     21  C   UNL     1       2.859   1.956  -3.029  0.00  0.00    +0.332 C 
ATOM     22  O   UNL     1       3.113   2.676  -3.975  0.00  0.00    -0.246 OA
ATOM     23  O   UNL     1       3.606   1.850  -1.915  0.00  0.00    -0.457 OA
ATOM     24  C   UNL     1       2.969   0.910  -1.043  0.00  0.00    +0.264 C 
ENDBRANCH  10  19
BRANCH   7  25
ATOM     25  O   UNL     1       2.019   0.214   1.262  0.00  0.00    -0.388 OA
ATOM     26  H   UNL     1       2.594  -0.068   1.987  0.00  0.00    +0.210 HD
ENDBRANCH   7  25
BRANCH  17  27
ATOM     27  O   UNL     1      -3.123  -3.592   5.766  0.00  0.00    -0.392 OA
ATOM     28  H   UNL     1      -3.966  -4.061   5.695  0.00  0.00    +0.210 HD
ENDBRANCH  17  27
BRANCH  14  29
ATOM     29  C   UNL     1      -2.127   0.471   4.122  0.00  0.00    +0.113 C 
ATOM     30  N   UNL     1      -3.288   0.979   4.303  0.00  0.00    -0.194 NA
BRANCH  30  31
ATOM     31  N   UNL     1      -3.415   2.334   4.636  0.00  0.00    -0.238 N 
ATOM     32  H   UNL     1      -2.623   2.887   4.729  0.00  0.00    +0.174 HD
BRANCH  31  33
ATOM     33  C   UNL     1      -4.681   2.888   4.833  0.00  0.00    +0.048 A 
ATOM     34  C   UNL     1      -5.816   2.096   4.706  0.00  0.00    +0.025 A 
ATOM     35  C   UNL     1      -7.066   2.648   4.902  0.00  0.00    +0.002 A 
ATOM     36  C   UNL     1      -7.190   3.987   5.224  0.00  0.00    +0.000 A 
ATOM     37  C   UNL     1      -6.063   4.778   5.352  0.00  0.00    +0.002 A 
ATOM     38  C   UNL     1      -4.809   4.232   5.163  0.00  0.00    +0.025 A 
ENDBRANCH  31  33
ENDBRANCH  30  31
ENDBRANCH  14  29
BRANCH  13  39
ATOM     39  O   UNL     1      -1.035  -3.070   4.507  0.00  0.00    -0.388 OA
ATOM     40  H   UNL     1      -0.522  -3.585   5.144  0.00  0.00    +0.210 HD
ENDBRANCH  13  39
TORSDOF 7
