REMARK  Name = ZINC62273531
REMARK  9 active torsions:
REMARK  status: ('A' for Active; 'I' for Inactive)
REMARK    1  A    between atoms: C_1  and  O_2
REMARK    2  A    between atoms: O_2  and  C_3
REMARK    3  A    between atoms: C_6  and  C_9
REMARK    4  A    between atoms: C_11  and  C_14
REMARK    5  A    between atoms: C_14  and  N_15
REMARK    6  A    between atoms: N_18  and  C_21
REMARK    7  A    between atoms: C_24  and  S_30
REMARK    8  A    between atoms: C_26  and  N_27
REMARK    9  A    between atoms: S_30  and  N_33
REMARK                            x       y       z     vdW  Elec       q    Type
REMARK                         _______ _______ _______ _____ _____    ______ ____
ROOT
ATOM      1  N   UNL     1       2.370  -6.267   6.501  0.00  0.00    -0.294 NA
ATOM      2  C   UNL     1       1.193  -6.187   5.626  0.00  0.00    +0.103 C 
ATOM      3  C   UNL     1      -0.057  -6.583   6.420  0.00  0.00    +0.120 C 
ATOM      4  N   UNL     1       0.176  -7.901   7.030  0.00  0.00    -0.326 N 
ATOM      5  C   UNL     1       1.407  -8.099   7.809  0.00  0.00    +0.120 C 
ATOM      6  C   UNL     1       2.599  -7.643   6.961  0.00  0.00    +0.103 C 
ENDROOT
BRANCH   4   7
ATOM      7  C   UNL     1      -0.748  -8.936   6.874  0.00  0.00    +0.060 A 
ATOM      8  C   UNL     1      -0.634  -9.816   5.804  0.00  0.00    +0.027 A 
ATOM      9  C   UNL     1      -1.550 -10.838   5.653  0.00  0.00    +0.030 A 
ATOM     10  C   UNL     1      -2.579 -10.988   6.564  0.00  0.00    +0.107 A 
ATOM     11  C   UNL     1      -2.695 -10.115   7.630  0.00  0.00    +0.063 A 
ATOM     12  C   UNL     1      -1.780  -9.093   7.790  0.00  0.00    +0.149 A 
BRANCH  12  13
ATOM     13  N   UNL     1      -1.902  -8.162   8.934  0.00  0.00    +0.058 N 
ATOM     14  O   UNL     1      -2.800  -8.298   9.732  0.00  0.00    -0.126 OA
ATOM     15  O   UNL     1      -1.103  -7.264   9.071  0.00  0.00    -0.126 OA
ENDBRANCH  12  13
BRANCH  10  16
ATOM     16  S   UNL     1      -3.744 -12.295   6.368  0.00  0.00    +0.056 S 
ATOM     17  O   UNL     1      -4.926 -11.890   7.044  0.00  0.00    -0.153 OA
ATOM     18  O   UNL     1      -3.736 -12.642   4.990  0.00  0.00    -0.153 OA
BRANCH  16  19
ATOM     19  N   UNL     1      -3.154 -13.606   7.189  0.00  0.00    -0.204 NA
ATOM     20  H   UNL     1      -3.766 -14.249   7.580  0.00  0.00    +0.144 HD
ATOM     21  H   UNL     1      -2.196 -13.730   7.280  0.00  0.00    +0.144 HD
ENDBRANCH  16  19
ENDBRANCH  10  16
ENDBRANCH   4   7
BRANCH   1  22
ATOM     22  C   UNL     1       3.562  -5.732   5.829  0.00  0.00    +0.140 C 
BRANCH  22  25
ATOM     23  C   UNL     1       2.576  -2.539   4.291  0.00  0.00    +0.109 A 
ATOM     24  N   UNL     1       2.747  -3.833   4.524  0.00  0.00    -0.243 NA
ATOM     25  C   UNL     1       3.384  -4.254   5.591  0.00  0.00    +0.063 A 
ATOM     26  C   UNL     1       3.881  -3.357   6.482  0.00  0.00    +0.071 A 
ATOM     27  S   UNL     1       3.394  -1.819   5.708  0.00  0.00    -0.075 S 
BRANCH  23  31
ATOM     28  C   UNL     1       0.626  -0.618   1.041  0.00  0.00    +0.120 A 
ATOM     29  C   UNL     1       1.202   0.142   2.050  0.00  0.00    +0.046 A 
ATOM     30  C   UNL     1       1.835  -0.477   3.106  0.00  0.00    +0.014 A 
ATOM     31  C   UNL     1       1.897  -1.871   3.160  0.00  0.00    +0.007 A 
ATOM     32  C   UNL     1       1.317  -2.631   2.144  0.00  0.00    +0.014 A 
ATOM     33  C   UNL     1       0.680  -2.005   1.094  0.00  0.00    +0.046 A 
BRANCH  28  35
ATOM     34  C   UNL     1      -0.017   1.425   0.010  0.00  0.00    +0.277 C 
ATOM     35  O   UNL     1       0.002  -0.004   0.002  0.00  0.00    -0.495 OA
ENDBRANCH  28  35
ENDBRANCH  23  31
ENDBRANCH  22  25
ENDBRANCH   1  22
TORSDOF 8
