REMARK  Name = ZINC13316670
REMARK  9 active torsions:
REMARK  status: ('A' for Active; 'I' for Inactive)
REMARK    1  A    between atoms: C_4  and  C_7
REMARK    2  A    between atoms: C_7  and  C_8
REMARK    3  A    between atoms: C_8  and  N_9
REMARK    4  A    between atoms: N_9  and  C_10
REMARK    5  A    between atoms: C_10  and  C_11
REMARK    6  A    between atoms: C_17  and  C_19
REMARK    7  A    between atoms: C_19  and  N_20
REMARK    8  A    between atoms: C_22  and  N_29
REMARK    9  A    between atoms: C_24  and  C_27
REMARK                            x       y       z     vdW  Elec       q    Type
REMARK                         _______ _______ _______ _____ _____    ______ ____
ROOT
ATOM      1  N   UNL     1      -2.807  -1.742  -1.652  0.00  0.00    -0.295 N 
ATOM      2  C   UNL     1      -1.711  -0.994  -1.416  0.00  0.00    +0.236 C 
ATOM      3  O   UNL     1      -1.094  -0.513  -2.342  0.00  0.00    -0.274 OA
ENDROOT
BRANCH   1   4
ATOM      4  C   UNL     1      -3.187  -2.071  -3.028  0.00  0.00    +0.113 C 
BRANCH   4   5
ATOM      5  C   UNL     1      -2.516  -3.382  -3.443  0.00  0.00    +0.054 C 
BRANCH   5   9
ATOM      6  C   UNL     1      -3.624  -4.340  -7.456  0.00  0.00    +0.000 A 
ATOM      7  C   UNL     1      -2.500  -3.573  -7.213  0.00  0.00    +0.000 A 
ATOM      8  C   UNL     1      -2.142  -3.263  -5.915  0.00  0.00    +0.004 A 
ATOM      9  C   UNL     1      -2.907  -3.720  -4.859  0.00  0.00    -0.046 A 
ATOM     10  C   UNL     1      -4.028  -4.492  -5.101  0.00  0.00    +0.004 A 
ATOM     11  C   UNL     1      -4.389  -4.798  -6.399  0.00  0.00    +0.000 A 
ENDBRANCH   5   9
ENDBRANCH   4   5
ENDBRANCH   1   4
BRANCH   1  12
ATOM     12  C   UNL     1      -3.618  -2.227  -0.532  0.00  0.00    +0.143 C 
BRANCH  12  13
ATOM     13  C   UNL     1      -4.765  -1.279  -0.296  0.00  0.00    -0.030 A 
ATOM     14  C   UNL     1      -4.655  -0.284   0.658  0.00  0.00    +0.005 A 
ATOM     15  C   UNL     1      -5.705   0.589   0.872  0.00  0.00    +0.000 A 
ATOM     16  C   UNL     1      -6.870   0.461   0.138  0.00  0.00    +0.000 A 
ATOM     17  C   UNL     1      -6.983  -0.537  -0.811  0.00  0.00    +0.000 A 
ATOM     18  C   UNL     1      -5.930  -1.407  -1.029  0.00  0.00    +0.005 A 
ENDBRANCH  12  13
ENDBRANCH   1  12
BRANCH   2  19
ATOM     19  C   UNL     1      -1.252  -0.756  -0.000  0.00  0.00    +0.220 C 
BRANCH  19  20
ATOM     20  N   UNL     1       0.016  -0.023  -0.015  0.00  0.00    -0.304 N 
ATOM     21  C   UNL     1       0.004   1.331  -0.003  0.00  0.00    +0.122 A 
ATOM     22  C   UNL     1       1.157   2.047  -0.015  0.00  0.00    +0.143 A 
ATOM     23  C   UNL     1       2.388   1.391  -0.041  0.00  0.00    +0.054 A 
ATOM     24  C   UNL     1       2.409  -0.003  -0.054  0.00  0.00    +0.130 A 
ATOM     25  C   UNL     1       1.176  -0.707  -0.040  0.00  0.00    +0.266 A 
ATOM     26  O   UNL     1       1.167  -1.925  -0.052  0.00  0.00    -0.267 OA
BRANCH  24  27
ATOM     27  C   UNL     1       3.685  -0.731  -0.083  0.00  0.00    +0.392 C 
ATOM     28  O   UNL     1       4.735  -0.118  -0.094  0.00  0.00    -0.240 OA
ATOM     29  O   UNL     1       3.692  -2.079  -0.095  0.00  0.00    -0.240 OA
ENDBRANCH  24  27
BRANCH  22  30
ATOM     30  N   UNL     1       1.109   3.526  -0.001  0.00  0.00    +0.058 N 
ATOM     31  O   UNL     1       0.036   4.100   0.022  0.00  0.00    -0.126 OA
ATOM     32  O   UNL     1       2.144   4.169  -0.012  0.00  0.00    -0.126 OA
ENDBRANCH  22  30
ENDBRANCH  19  20
ENDBRANCH   2  19
TORSDOF 9
