REMARK  Name = ZINC13230747
REMARK  9 active torsions:
REMARK  status: ('A' for Active; 'I' for Inactive)
REMARK    1  A    between atoms: C_1  and  N_2
REMARK    2  A    between atoms: N_2  and  C_3
REMARK    3  A    between atoms: C_3  and  C_4
REMARK    4  A    between atoms: C_15  and  C_17
REMARK    5  A    between atoms: C_17  and  S_18
REMARK    6  A    between atoms: S_18  and  C_19
REMARK    7  A    between atoms: C_23  and  C_33
REMARK    8  A    between atoms: N_29  and  C_30
REMARK    9  A    between atoms: C_30  and  C_31
REMARK                            x       y       z     vdW  Elec       q    Type
REMARK                         _______ _______ _______ _____ _____    ______ ____
ROOT
ATOM      1  S   UNL     1      -0.240   9.939  -4.221  0.00  0.00    -0.078 S 
ENDROOT
BRANCH   1   2
ATOM      2  C   UNL     1       1.167  10.687  -4.973  0.00  0.00    +0.173 A 
ATOM      3  N   UNL     1       2.318  10.617  -4.351  0.00  0.00    -0.223 NA
ATOM      4  C   UNL     1       3.439  11.170  -4.871  0.00  0.00    +0.080 A 
ATOM      5  C   UNL     1       4.666  11.094  -4.206  0.00  0.00    +0.043 A 
ATOM      6  C   UNL     1       5.790  11.676  -4.779  0.00  0.00    +0.065 A 
ATOM      7  C   UNL     1       5.699  12.335  -6.011  0.00  0.00    +0.016 A 
ATOM      8  C   UNL     1       4.506  12.416  -6.670  0.00  0.00    +0.016 A 
ATOM      9  C   UNL     1       3.365  11.838  -6.114  0.00  0.00    +0.065 A 
ATOM     10  C   UNL     1       2.059  11.902  -6.790  0.00  0.00    +0.263 A 
ATOM     11  O   UNL     1       1.930  12.463  -7.862  0.00  0.00    -0.267 OA
ATOM     12  N   UNL     1       1.008  11.309  -6.178  0.00  0.00    -0.283 N 
BRANCH   6  13
ATOM     13  C   UNL     1       7.093  11.600  -4.081  0.00  0.00    +0.387 C 
ATOM     14  O   UNL     1       7.176  11.030  -3.012  0.00  0.00    -0.241 OA
ATOM     15  O   UNL     1       8.185  12.164  -4.631  0.00  0.00    -0.241 OA
ENDBRANCH   6  13
BRANCH  12  16
ATOM     16  C   UNL     1      -0.313  11.338  -6.812  0.00  0.00    +0.154 C 
BRANCH  16  17
ATOM     17  C   UNL     1      -1.058  12.568  -6.362  0.00  0.00    -0.013 C 
ATOM     18  C   UNL     1      -1.537  13.405  -7.249  0.00  0.00    +0.005 C 
ENDBRANCH  16  17
ENDBRANCH  12  16
ENDBRANCH   1   2
BRANCH   1  19
ATOM     19  C   UNL     1       0.518   9.287  -2.713  0.00  0.00    +0.173 C 
BRANCH  19  22
ATOM     20  C   UNL     1       1.193   8.081  -0.239  0.00  0.00    +0.132 C 
ATOM     21  N   UNL     1      -0.191   8.015  -0.714  0.00  0.00    -0.300 N 
ATOM     22  C   UNL     1      -0.528   8.583  -1.888  0.00  0.00    +0.226 C 
ATOM     23  O   UNL     1      -1.675   8.528  -2.281  0.00  0.00    -0.275 OA
BRANCH  21  24
ATOM     24  C   UNL     1      -1.208   7.331   0.088  0.00  0.00    +0.155 C 
BRANCH  24  25
ATOM     25  C   UNL     1      -1.270   5.856  -0.315  0.00  0.00    +0.228 C 
ATOM     26  C   UNL     1      -2.417   5.163   0.432  0.00  0.00    +0.275 C 
ATOM     27  O   UNL     1      -2.437   3.785   0.043  0.00  0.00    -0.485 OA
ATOM     28  C   UNL     1      -1.241   3.136   0.031  0.00  0.00    +0.162 A 
ATOM     29  C   UNL     1      -1.219   1.749   0.017  0.00  0.00    +0.049 A 
ATOM     30  C   UNL     1      -0.013   1.076   0.008  0.00  0.00    +0.004 A 
ATOM     31  C   UNL     1       1.176   1.782   0.000  0.00  0.00    +0.004 A 
ATOM     32  C   UNL     1       1.161   3.164   0.009  0.00  0.00    +0.049 A 
ATOM     33  C   UNL     1      -0.046   3.846   0.026  0.00  0.00    +0.163 A 
ATOM     34  O   UNL     1      -0.045   5.207   0.043  0.00  0.00    -0.480 OA
ENDBRANCH  24  25
ENDBRANCH  21  24
ENDBRANCH  19  22
ENDBRANCH   1  19
TORSDOF 8
