REMARK  Name = ZINC13256237
REMARK  8 active torsions:
REMARK  status: ('A' for Active; 'I' for Inactive)
REMARK    1  A    between atoms: C_2  and  C_3
REMARK    2  A    between atoms: C_3  and  N_4
REMARK    3  A    between atoms: C_10  and  C_32
REMARK    4  A    between atoms: C_14  and  S_15
REMARK    5  A    between atoms: S_15  and  C_16
REMARK    6  A    between atoms: C_16  and  C_17
REMARK    7  A    between atoms: N_19  and  C_20
REMARK    8  A    between atoms: C_25  and  N_26
REMARK                            x       y       z     vdW  Elec       q    Type
REMARK                         _______ _______ _______ _____ _____    ______ ____
ROOT
ATOM      1  S   UNL     1       2.670   0.835   0.013  0.00  0.00    -0.078 S 
ENDROOT
BRANCH   1  12
ATOM      2  N   UNL     1       5.286   1.483   0.021  0.00  0.00    -0.283 N 
ATOM      3  C   UNL     1       6.348   2.322   0.024  0.00  0.00    +0.263 A 
ATOM      4  O   UNL     1       7.488   1.896   0.017  0.00  0.00    -0.267 OA
ATOM      5  C   UNL     1       6.074   3.768   0.043  0.00  0.00    +0.065 A 
ATOM      6  C   UNL     1       7.104   4.708   0.054  0.00  0.00    +0.016 A 
ATOM      7  C   UNL     1       6.808   6.041   0.072  0.00  0.00    +0.016 A 
ATOM      8  C   UNL     1       5.476   6.476   0.080  0.00  0.00    +0.065 A 
ATOM      9  C   UNL     1       4.435   5.556   0.070  0.00  0.00    +0.043 A 
ATOM     10  C   UNL     1       4.726   4.189   0.051  0.00  0.00    +0.080 A 
ATOM     11  N   UNL     1       3.743   3.258   0.041  0.00  0.00    -0.223 NA
ATOM     12  C   UNL     1       4.013   1.976   0.024  0.00  0.00    +0.173 A 
BRANCH   8  13
ATOM     13  C   UNL     1       5.177   7.925   0.099  0.00  0.00    +0.387 C 
ATOM     14  O   UNL     1       4.024   8.306   0.106  0.00  0.00    -0.241 OA
ATOM     15  O   UNL     1       6.183   8.820   0.109  0.00  0.00    -0.241 OA
ENDBRANCH   8  13
BRANCH   2  16
ATOM     16  C   UNL     1       5.505   0.035   0.008  0.00  0.00    +0.154 C 
BRANCH  16  18
ATOM     17  C   UNL     1       6.625  -1.129  -1.823  0.00  0.00    +0.005 C 
ATOM     18  C   UNL     1       5.581  -0.449  -1.417  0.00  0.00    -0.013 C 
ENDBRANCH  16  18
ENDBRANCH   2  16
ENDBRANCH   1  12
BRANCH   1  19
ATOM     19  C   UNL     1       1.276   1.990   0.030  0.00  0.00    +0.173 C 
BRANCH  19  20
ATOM     20  C   UNL     1      -0.017   1.216   0.022  0.00  0.00    +0.228 C 
ATOM     21  O   UNL     1       0.002   0.003   0.007  0.00  0.00    -0.275 OA
ATOM     22  N   UNL     1      -1.194   1.871   0.027  0.00  0.00    -0.283 N 
ATOM     23  H   UNL     1      -1.211   2.838   0.106  0.00  0.00    +0.155 HD
BRANCH  22  24
ATOM     24  C   UNL     1      -2.393   1.157  -0.081  0.00  0.00    +0.061 A 
ATOM     25  C   UNL     1      -2.512  -0.095   0.503  0.00  0.00    +0.045 A 
ATOM     26  C   UNL     1      -3.699  -0.797   0.398  0.00  0.00    +0.043 A 
ATOM     27  C   UNL     1      -4.767  -0.257  -0.297  0.00  0.00    +0.022 A 
ATOM     28  C   UNL     1      -4.655   0.988  -0.886  0.00  0.00    +0.031 A 
ATOM     29  C   UNL     1      -3.469   1.700  -0.782  0.00  0.00    +0.088 A 
ATOM     30 CL   UNL     1      -3.848  -2.361   1.135  0.00  0.00    -0.083 Cl
BRANCH  29  31
ATOM     31  N   UNL     1      -3.353   2.964  -1.380  0.00  0.00    -0.218 N 
ATOM     32  C   UNL     1      -4.327   3.655  -2.004  0.00  0.00    +0.225 A 
ATOM     33  N   UNL     1      -3.818   4.787  -2.419  0.00  0.00    -0.222 NA
ATOM     34  C   UNL     1      -2.529   4.851  -2.090  0.00  0.00    +0.245 A 
ATOM     35  N   UNL     1      -2.197   3.759  -1.452  0.00  0.00    -0.153 NA
ENDBRANCH  29  31
ENDBRANCH  22  24
ENDBRANCH  19  20
ENDBRANCH   1  19
TORSDOF 8
