REMARK  Name = ZINC04814859
REMARK  7 active torsions:
REMARK  status: ('A' for Active; 'I' for Inactive)
REMARK    1  A    between atoms: C_1  and  C_2
REMARK    2  A    between atoms: C_2  and  C_4
REMARK    3  A    between atoms: C_4  and  N_5
REMARK    4  A    between atoms: N_10  and  N_11
REMARK    5  A    between atoms: C_12  and  C_13
REMARK    6  A    between atoms: N_20  and  C_27
REMARK    7  A    between atoms: N_23  and  C_26
REMARK                            x       y       z     vdW  Elec       q    Type
REMARK                         _______ _______ _______ _____ _____    ______ ____
ROOT
ATOM      1  N   UNL     1      -4.882   8.007   0.089  0.00  0.00    -0.301 N 
ATOM      2  C   UNL     1      -4.453   9.326   0.093  0.00  0.00    +0.153 A 
ATOM      3  C   UNL     1      -3.062   9.286   0.080  0.00  0.00    +0.170 A 
ATOM      4  N   UNL     1      -2.697   8.004   0.075  0.00  0.00    -0.195 NA
ATOM      5  C   UNL     1      -3.765   7.231   0.075  0.00  0.00    +0.218 A 
ATOM      6  N   UNL     1      -3.751   5.855   0.068  0.00  0.00    -0.206 N 
ATOM      7  N   UNL     1      -2.360  10.481   0.080  0.00  0.00    -0.280 N 
ATOM      8  C   UNL     1      -3.023  11.653   0.092  0.00  0.00    +0.333 A 
ATOM      9  O   UNL     1      -2.391  12.692   0.092  0.00  0.00    -0.246 OA
ATOM     10  N   UNL     1      -4.366  11.703   0.104  0.00  0.00    -0.262 N 
ATOM     11  C   UNL     1      -5.104  10.573   0.105  0.00  0.00    +0.282 A 
ATOM     12  O   UNL     1      -6.321  10.633   0.116  0.00  0.00    -0.265 OA
ATOM     13  C   UNL     1      -5.039  13.004   0.118  0.00  0.00    +0.157 C 
ATOM     14  C   UNL     1      -0.895  10.469   0.066  0.00  0.00    +0.155 C 
ATOM     15  H   UNL     1      -4.587   5.362   0.073  0.00  0.00    +0.177 HD
ENDROOT
BRANCH   6  16
ATOM     16  N   UNL     1      -2.531   5.167   0.053  0.00  0.00    -0.188 NA
ATOM     17  C   UNL     1      -2.519   3.869   0.046  0.00  0.00    +0.139 C 
BRANCH  17  18
ATOM     18  C   UNL     1      -1.235   3.144   0.031  0.00  0.00    +0.013 A 
ATOM     19  C   UNL     1      -1.217   1.747   0.017  0.00  0.00    +0.011 A 
ATOM     20  C   UNL     1      -0.013   1.076   0.008  0.00  0.00    +0.001 A 
ATOM     21  C   UNL     1       1.178   1.782   0.000  0.00  0.00    +0.001 A 
ATOM     22  C   UNL     1       1.169   3.165   0.008  0.00  0.00    +0.020 A 
ATOM     23  C   UNL     1      -0.029   3.851   0.023  0.00  0.00    +0.050 A 
ATOM     24 CL   UNL     1      -0.038   5.587   0.032  0.00  0.00    -0.083 Cl
ENDBRANCH  17  18
ENDBRANCH   6  16
BRANCH   1  25
ATOM     25  C   UNL     1      -6.271   7.539   0.100  0.00  0.00    +0.155 C 
BRANCH  25  27
ATOM     26  C   UNL     1      -6.448   6.089   2.263  0.00  0.00    +0.040 C 
ATOM     27  C   UNL     1      -6.733   7.371   1.524  0.00  0.00    -0.060 C 
ATOM     28  C   UNL     1      -7.384   8.340   2.120  0.00  0.00    +0.009 C 
ENDBRANCH  25  27
ENDBRANCH   1  25
TORSDOF 4
