REMARK  Name = ZINC10889038
REMARK  12 active torsions:
REMARK  status: ('A' for Active; 'I' for Inactive)
REMARK    1  A    between atoms: C_3  and  C_6
REMARK    2  A    between atoms: C_6  and  N_7
REMARK    3  A    between atoms: N_7  and  C_8
REMARK    4  A    between atoms: C_11  and  S_17
REMARK    5  A    between atoms: C_13  and  N_14
REMARK    6  A    between atoms: S_17  and  N_20
REMARK    7  A    between atoms: N_20  and  C_21
REMARK    8  A    between atoms: C_21  and  C_22
REMARK    9  A    between atoms: C_22  and  O_24
REMARK   10  A    between atoms: O_24  and  C_25
REMARK   11  A    between atoms: C_25  and  C_26
REMARK   12  A    between atoms: C_28  and  C_33
REMARK                            x       y       z     vdW  Elec       q    Type
REMARK                         _______ _______ _______ _____ _____    ______ ____
ROOT
ATOM      1  S   UNL     1      -0.480   1.672  -0.298  0.00  0.00    +0.059 S 
ATOM      2  O   UNL     1      -0.618   0.273  -0.503  0.00  0.00    -0.153 OA
ATOM      3  O   UNL     1       0.776   2.333  -0.375  0.00  0.00    -0.153 OA
ENDROOT
BRANCH   1   7
ATOM      4  C   UNL     1      -2.151   2.547   3.820  0.00  0.00    +0.058 A 
ATOM      5  C   UNL     1      -1.221   3.407   3.249  0.00  0.00    +0.027 A 
ATOM      6  C   UNL     1      -0.710   3.134   1.996  0.00  0.00    +0.030 A 
ATOM      7  C   UNL     1      -1.130   2.012   1.304  0.00  0.00    +0.108 A 
ATOM      8  C   UNL     1      -2.055   1.154   1.870  0.00  0.00    +0.063 A 
ATOM      9  C   UNL     1      -2.567   1.418   3.126  0.00  0.00    +0.149 A 
BRANCH   9  10
ATOM     10  N   UNL     1      -3.556   0.499   3.730  0.00  0.00    +0.058 N 
ATOM     11  O   UNL     1      -3.453  -0.703   3.563  0.00  0.00    -0.126 OA
ATOM     12  O   UNL     1      -4.474   0.944   4.396  0.00  0.00    -0.126 OA
ENDBRANCH   9  10
BRANCH   4  13
ATOM     13  N   UNL     1      -2.667   2.817   5.090  0.00  0.00    -0.335 N 
ATOM     14  H   UNL     1      -3.249   2.174   5.523  0.00  0.00    +0.147 HD
BRANCH  13  15
ATOM     15  C   UNL     1      -2.327   4.071   5.766  0.00  0.00    +0.176 C 
BRANCH  15  18
ATOM     16  C   UNL     1      -3.461   3.901   9.269  0.00  0.00    +0.041 A 
ATOM     17  C   UNL     1      -2.493   3.659   8.267  0.00  0.00    +0.046 A 
ATOM     18  C   UNL     1      -3.007   4.116   7.111  0.00  0.00    +0.122 A 
ATOM     19  O   UNL     1      -4.225   4.624   7.359  0.00  0.00    -0.466 OA
ATOM     20  C   UNL     1      -4.508   4.491   8.665  0.00  0.00    +0.195 A 
ENDBRANCH  15  18
ENDBRANCH  13  15
ENDBRANCH   4  13
ENDBRANCH   1   7
BRANCH   1  21
ATOM     21  N   UNL     1      -1.473   2.412  -1.397  0.00  0.00    -0.179 NA
ATOM     22  H   UNL     1      -1.987   1.878  -2.022  0.00  0.00    +0.149 HD
BRANCH  21  23
ATOM     23  C   UNL     1      -1.576   3.873  -1.423  0.00  0.00    +0.226 C 
BRANCH  23  24
ATOM     24  C   UNL     1      -2.228   4.307  -2.711  0.00  0.00    +0.323 C 
ATOM     25  O   UNL     1      -2.573   3.481  -3.522  0.00  0.00    -0.249 OA
BRANCH  24  26
ATOM     26  O   UNL     1      -2.428   5.612  -2.955  0.00  0.00    -0.459 OA
BRANCH  26  27
ATOM     27  C   UNL     1      -3.062   5.957  -4.215  0.00  0.00    +0.270 C 
BRANCH  27  28
ATOM     28  C   UNL     1      -3.201   7.454  -4.314  0.00  0.00    +0.026 A 
ATOM     29  C   UNL     1      -2.756   8.256  -3.284  0.00  0.00    +0.028 A 
ATOM     30  C   UNL     1      -2.881   9.644  -3.380  0.00  0.00    +0.052 A 
ATOM     31  C   UNL     1      -3.467  10.211  -4.514  0.00  0.00    +0.021 A 
ATOM     32  C   UNL     1      -3.914   9.399  -5.535  0.00  0.00    +0.040 A 
ATOM     33  C   UNL     1      -3.782   8.023  -5.437  0.00  0.00    +0.130 A 
ATOM     34  F   UNL     1      -4.222   7.232  -6.440  0.00  0.00    -0.205 F 
BRANCH  30  35
ATOM     35  C   UNL     1      -2.415  10.482  -2.316  0.00  0.00    +0.099 C 
ATOM     36  N   UNL     1      -2.045  11.147  -1.473  0.00  0.00    -0.191 NA
ENDBRANCH  30  35
ENDBRANCH  27  28
ENDBRANCH  26  27
ENDBRANCH  24  26
ENDBRANCH  23  24
ENDBRANCH  21  23
ENDBRANCH   1  21
TORSDOF 12
