REMARK  Name = ZINC39656021
REMARK  9 active torsions:
REMARK  status: ('A' for Active; 'I' for Inactive)
REMARK    1  A    between atoms: C_1  and  C_2
REMARK    2  A    between atoms: C_8  and  C_11
REMARK    3  A    between atoms: C_11  and  C_12
REMARK    4  A    between atoms: C_12  and  N_13
REMARK    5  A    between atoms: C_14  and  C_16
REMARK    6  A    between atoms: C_27  and  C_29
REMARK    7  A    between atoms: C_33  and  N_35
REMARK    8  A    between atoms: N_35  and  C_36
REMARK    9  A    between atoms: N_35  and  C_37
REMARK                            x       y       z     vdW  Elec       q    Type
REMARK                         _______ _______ _______ _____ _____    ______ ____
ROOT
ATOM      1  C   UNL     1       4.078  -0.091  -7.933  0.00  0.00    +0.100 C 
ATOM      2  C   UNL     1       4.508   0.829  -9.098  0.00  0.00    +0.121 C 
ATOM      3  N   UNL     1       5.456   0.010  -9.891  0.00  0.00    -0.296 N 
ATOM      4  C   UNL     1       4.867  -1.350  -9.880  0.00  0.00    +0.115 C 
ATOM      5  C   UNL     1       4.314  -1.520  -8.450  0.00  0.00    -0.004 C 
ATOM      6  C   UNL     1       3.000  -2.294  -8.483  0.00  0.00    -0.010 C 
ATOM      7  C   UNL     1       3.269  -3.729  -8.944  0.00  0.00    -0.082 C 
ATOM      8  N   UNL     1       4.216  -4.372  -8.025  0.00  0.00    +0.379 N 
ATOM      9  C   UNL     1       5.508  -3.676  -8.071  0.00  0.00    -0.082 C 
ATOM     10  C   UNL     1       5.333  -2.239  -7.572  0.00  0.00    -0.010 C 
ATOM     11  C   UNL     1       6.596   0.412 -10.487  0.00  0.00    +0.247 C 
ATOM     12  O   UNL     1       7.017   1.537 -10.298  0.00  0.00    -0.270 OA
ATOM     13  H   UNL     1       3.849  -4.335  -7.086  0.00  0.00    -0.086 HD
ATOM     14  H   UNL     1       4.345  -5.335  -8.296  0.00  0.00    -0.086 HD
ENDROOT
BRANCH  11  15
ATOM     15  C   UNL     1       7.335  -0.515 -11.370  0.00  0.00    +0.039 A 
ATOM     16  C   UNL     1       6.683  -1.612 -11.936  0.00  0.00    +0.013 A 
ATOM     17  C   UNL     1       7.375  -2.476 -12.760  0.00  0.00    +0.003 A 
ATOM     18  C   UNL     1       8.714  -2.261 -13.027  0.00  0.00    +0.023 A 
ATOM     19  C   UNL     1       9.372  -1.172 -12.468  0.00  0.00    +0.030 A 
ATOM     20  C   UNL     1       8.684  -0.294 -11.644  0.00  0.00    +0.036 A 
BRANCH  19  21
ATOM     21  N   UNL     1      10.726  -0.959 -12.741  0.00  0.00    -0.336 N 
ATOM     22  C   UNL     1      11.451  -1.883 -13.616  0.00  0.00    +0.129 C 
ATOM     23  C   UNL     1      11.420   0.189 -12.152  0.00  0.00    +0.129 C 
ENDBRANCH  19  21
ENDBRANCH  11  15
BRANCH   1  25
ATOM     24  N   UNL     1       2.175  -0.067  -6.353  0.00  0.00    -0.315 N 
ATOM     25  C   UNL     1       2.620   0.117  -7.612  0.00  0.00    +0.218 C 
ATOM     26  O   UNL     1       1.848   0.449  -8.486  0.00  0.00    -0.275 OA
ATOM     27  H   UNL     1       2.793  -0.333  -5.654  0.00  0.00    +0.149 HD
BRANCH  24  28
ATOM     28  C   UNL     1       0.758   0.135  -6.040  0.00  0.00    +0.109 C 
BRANCH  28  29
ATOM     29  C   UNL     1       0.520  -0.137  -4.554  0.00  0.00    +0.056 C 
BRANCH  29  37
ATOM     30  C   UNL     1      -3.308  -4.327  -5.333  0.00  0.00    +0.044 C 
ATOM     31  C   UNL     1      -3.256  -2.899  -4.853  0.00  0.00    -0.050 A 
ATOM     32  C   UNL     1      -4.420  -2.270  -4.437  0.00  0.00    +0.005 A 
ATOM     33  C   UNL     1      -4.395  -0.965  -3.994  0.00  0.00    +0.026 A 
ATOM     34  C   UNL     1      -3.190  -0.270  -3.962  0.00  0.00    +0.047 A 
ATOM     35  N   UNL     1      -2.843   1.008  -3.585  0.00  0.00    -0.360 N 
ATOM     36  C   UNL     1      -1.497   1.192  -3.752  0.00  0.00    +0.087 A 
ATOM     37  C   UNL     1      -0.938   0.071  -4.232  0.00  0.00    -0.021 A 
ATOM     38  C   UNL     1      -2.012  -0.913  -4.385  0.00  0.00    +0.003 A 
ATOM     39  C   UNL     1      -2.061  -2.237  -4.824  0.00  0.00    +0.013 A 
ATOM     40  H   UNL     1      -3.460   1.677  -3.250  0.00  0.00    +0.165 HD
ENDBRANCH  29  37
ENDBRANCH  28  29
ENDBRANCH  24  28
ENDBRANCH   1  25
TORSDOF 6
