REMARK  Name = ZINC12374894
REMARK  4 active torsions:
REMARK  status: ('A' for Active; 'I' for Inactive)
REMARK    1  A    between atoms: C_3  and  C_6
REMARK    2  A    between atoms: C_9  and  C_35
REMARK    3  A    between atoms: C_13  and  C_16
REMARK    4  A    between atoms: N_21  and  C_24
REMARK                            x       y       z     vdW  Elec       q    Type
REMARK                         _______ _______ _______ _____ _____    ______ ____
ROOT
ATOM      1  C   UNL     1       3.517  -1.563   1.089  0.00  0.00    +0.140 C 
ATOM      2  C   UNL     1       4.565  -1.590   2.208  0.00  0.00    +0.066 C 
ATOM      3  C   UNL     1       5.716  -0.638   1.863  0.00  0.00    +0.215 C 
ATOM      4  N   UNL     1       6.165  -0.913   0.495  0.00  0.00    -0.238 N 
ATOM      5  C   UNL     1       5.417  -1.572  -0.422  0.00  0.00    +0.130 A 
ATOM      6  C   UNL     1       6.157  -1.648  -1.588  0.00  0.00    +0.096 A 
ATOM      7  C   UNL     1       7.391  -1.000  -1.331  0.00  0.00    +0.149 A 
ATOM      8  N   UNL     1       7.379  -0.572  -0.098  0.00  0.00    -0.177 NA
ATOM      9  N   UNL     1       4.143  -2.046  -0.157  0.00  0.00    -0.319 N 
ATOM     10  H   UNL     1       3.690  -2.663  -0.752  0.00  0.00    +0.148 HD
ENDROOT
BRANCH   6  11
ATOM     11  C   UNL     1       5.744  -2.278  -2.847  0.00  0.00    +0.251 C 
ATOM     12  O   UNL     1       4.588  -2.194  -3.219  0.00  0.00    -0.270 OA
ATOM     13  N   UNL     1       6.644  -2.950  -3.592  0.00  0.00    -0.301 N 
ATOM     14  C   UNL     1       8.015  -3.167  -3.106  0.00  0.00    +0.089 C 
ATOM     15  C   UNL     1       8.351  -4.656  -3.248  0.00  0.00    -0.059 C 
ATOM     16  N   UNL     1       8.125  -5.077  -4.637  0.00  0.00    +0.385 N 
ATOM     17  C   UNL     1       6.700  -4.959  -4.970  0.00  0.00    -0.059 C 
ATOM     18  C   UNL     1       6.282  -3.491  -4.911  0.00  0.00    +0.089 C 
ATOM     19  H   UNL     1       8.664  -4.490  -5.256  0.00  0.00    -0.081 HD
BRANCH  16  20
ATOM     20  C   UNL     1       8.550  -6.474  -4.798  0.00  0.00    -0.065 C 
ATOM     21  C   UNL     1       7.739  -7.366  -3.855  0.00  0.00    -0.009 C 
ATOM     22  C   UNL     1       8.182  -8.820  -4.023  0.00  0.00    -0.012 C 
ATOM     23  C   UNL     1       7.948  -9.261  -5.470  0.00  0.00    +0.007 C 
ATOM     24  C   UNL     1       8.759  -8.370  -6.412  0.00  0.00    -0.012 C 
ATOM     25  C   UNL     1       8.316  -6.915  -6.244  0.00  0.00    -0.009 C 
ATOM     26  C   UNL     1      10.247  -8.492  -6.075  0.00  0.00    +0.007 C 
ATOM     27  C   UNL     1      10.480  -8.051  -4.629  0.00  0.00    -0.012 C 
ATOM     28  C   UNL     1       9.669  -8.943  -3.687  0.00  0.00    +0.007 C 
ATOM     29  C   UNL     1      10.038  -6.596  -4.461  0.00  0.00    -0.009 C 
ENDBRANCH  16  20
ENDBRANCH   6  11
BRANCH   1  32
ATOM     30  C   UNL     1       0.399  -3.216   2.151  0.00  0.00    +0.041 A 
ATOM     31  C   UNL     1       1.180  -2.054   1.956  0.00  0.00    +0.046 A 
ATOM     32  C   UNL     1       2.362  -2.459   1.456  0.00  0.00    +0.125 A 
ATOM     33  O   UNL     1       2.337  -3.796   1.338  0.00  0.00    -0.466 OA
ATOM     34  C   UNL     1       1.149  -4.261   1.758  0.00  0.00    +0.195 A 
ENDBRANCH   1  32
BRANCH   3  35
ATOM     35  C   UNL     1       6.873  -0.860   2.839  0.00  0.00    +0.412 C 
ATOM     36  F   UNL     1       7.319  -2.183   2.743  0.00  0.00    -0.168 F 
ATOM     37  F   UNL     1       7.923   0.010   2.523  0.00  0.00    -0.168 F 
ATOM     38  F   UNL     1       6.437  -0.609   4.145  0.00  0.00    -0.168 F 
ENDBRANCH   3  35
TORSDOF 4
