REMARK  Name = ZINC05041093
REMARK  6 active torsions:
REMARK  status: ('A' for Active; 'I' for Inactive)
REMARK    1  A    between atoms: C_1  and  C_2
REMARK    2  A    between atoms: N_11  and  C_15
REMARK    3  A    between atoms: C_15  and  C_16
REMARK    4  A    between atoms: C_16  and  O_18
REMARK    5  A    between atoms: O_18  and  C_19
REMARK    6  A    between atoms: C_19  and  C_20
REMARK                            x       y       z     vdW  Elec       q    Type
REMARK                         _______ _______ _______ _____ _____    ______ ____
ROOT
ATOM      1  C   UNL     1      -1.220   2.162  -2.475  0.00  0.00    +0.010 C 
ATOM      2  C   UNL     1      -2.069   1.879  -1.234  0.00  0.00    +0.018 C 
ATOM      3  C   UNL     1      -3.279   2.817  -1.219  0.00  0.00    +0.006 C 
ATOM      4  C   UNL     1      -4.116   2.547   0.033  0.00  0.00    +0.000 C 
ATOM      5  C   UNL     1      -3.268   2.804   1.280  0.00  0.00    +0.003 C 
ATOM      6  C   UNL     1      -2.058   1.866   1.276  0.00  0.00    +0.035 C 
ATOM      7  C   UNL     1      -1.230   2.107   0.018  0.00  0.00    +0.115 C 
ATOM      8  C   UNL     1      -0.014   1.208   0.009  0.00  0.00    +0.247 C 
ATOM      9  O   UNL     1       0.002  -0.004   0.002  0.00  0.00    -0.273 OA
ATOM     10  N   UNL     1       1.048   2.039   0.003  0.00  0.00    -0.213 N 
ATOM     11  C   UNL     1       0.670   3.323   0.013  0.00  0.00    +0.310 C 
ATOM     12  O   UNL     1       1.448   4.257   0.010  0.00  0.00    -0.252 OA
ATOM     13  N   UNL     1      -0.670   3.464   0.026  0.00  0.00    -0.285 N 
ATOM     14  H   UNL     1      -1.166   4.297   0.034  0.00  0.00    +0.151 HD
ENDROOT
BRANCH  10  15
ATOM     15  C   UNL     1       2.443   1.592  -0.012  0.00  0.00    +0.238 C 
BRANCH  15  16
ATOM     16  C   UNL     1       2.909   1.446  -1.438  0.00  0.00    +0.325 C 
ATOM     17  O   UNL     1       2.153   1.690  -2.348  0.00  0.00    -0.249 OA
BRANCH  16  18
ATOM     18  O   UNL     1       4.163   1.044  -1.696  0.00  0.00    -0.463 OA
BRANCH  18  19
ATOM     19  C   UNL     1       4.543   0.925  -3.093  0.00  0.00    +0.235 C 
BRANCH  19  20
ATOM     20  C   UNL     1       5.997   0.459  -3.188  0.00  0.00    +0.027 C 
ATOM     21  C   UNL     1       6.916   1.536  -2.609  0.00  0.00    +0.007 C 
ATOM     22  C   UNL     1       8.371   1.070  -2.705  0.00  0.00    +0.000 C 
ATOM     23  C   UNL     1       8.732   0.825  -4.171  0.00  0.00    +0.000 C 
ATOM     24  C   UNL     1       7.813  -0.252  -4.750  0.00  0.00    +0.000 C 
ATOM     25  C   UNL     1       6.359   0.214  -4.654  0.00  0.00    +0.007 C 
ENDBRANCH  19  20
ENDBRANCH  18  19
ENDBRANCH  16  18
ENDBRANCH  15  16
ENDBRANCH  10  15
TORSDOF 5
