REMARK  Name = ZINC18941112
REMARK  7 active torsions:
REMARK  status: ('A' for Active; 'I' for Inactive)
REMARK    1  A    between atoms: C_1  and  C_2
REMARK    2  A    between atoms: C_5  and  N_25
REMARK    3  A    between atoms: C_7  and  S_8
REMARK    4  A    between atoms: S_8  and  N_11
REMARK    5  A    between atoms: N_11  and  C_12
REMARK    6  A    between atoms: C_12  and  C_14
REMARK    7  A    between atoms: C_12  and  C_15
REMARK                            x       y       z     vdW  Elec       q    Type
REMARK                         _______ _______ _______ _____ _____    ______ ____
ROOT
ATOM      1  N   UNL     1      -4.703  -0.050   1.014  0.00  0.00    -0.183 NA
ATOM      2  H   UNL     1      -4.776   0.910   1.126  0.00  0.00    +0.149 HD
ENDROOT
BRANCH   1   3
ATOM      3  S   UNL     1      -5.819  -1.052   1.715  0.00  0.00    +0.059 S 
ATOM      4  O   UNL     1      -6.721  -0.219   2.430  0.00  0.00    -0.153 OA
ATOM      5  O   UNL     1      -6.252  -1.950   0.702  0.00  0.00    -0.153 OA
BRANCH   3  12
ATOM      6  C   UNL     1      -4.526   0.078   4.204  0.00  0.00    +0.046 C 
ATOM      7  C   UNL     1      -4.409  -1.414   4.024  0.00  0.00    -0.024 A 
ATOM      8  C   UNL     1      -3.742  -2.174   4.966  0.00  0.00    +0.007 A 
ATOM      9  C   UNL     1      -3.635  -3.542   4.801  0.00  0.00    +0.033 A 
ATOM     10  C   UNL     1      -4.195  -4.150   3.693  0.00  0.00    +0.128 A 
ATOM     11  C   UNL     1      -4.867  -3.391   2.753  0.00  0.00    +0.061 A 
ATOM     12  C   UNL     1      -4.969  -2.021   2.916  0.00  0.00    +0.110 A 
BRANCH  10  13
ATOM     13  N   UNL     1      -4.081  -5.615   3.515  0.00  0.00    +0.056 N 
ATOM     14  O   UNL     1      -3.494  -6.285   4.346  0.00  0.00    -0.126 OA
ATOM     15  O   UNL     1      -4.575  -6.151   2.539  0.00  0.00    -0.126 OA
ENDBRANCH  10  13
ENDBRANCH   3  12
ENDBRANCH   1   3
BRANCH   1  16
ATOM     16  C   UNL     1      -3.604  -0.615   0.226  0.00  0.00    +0.103 C 
ATOM     17  C   UNL     1      -3.981  -0.603  -1.256  0.00  0.00    +0.031 C 
BRANCH  16  18
ATOM     18  C   UNL     1      -2.360   0.210   0.435  0.00  0.00    -0.025 A 
ATOM     19  C   UNL     1      -2.450   1.588   0.504  0.00  0.00    +0.009 A 
ATOM     20  C   UNL     1      -1.311   2.348   0.691  0.00  0.00    +0.050 A 
ATOM     21  C   UNL     1      -0.075   1.730   0.816  0.00  0.00    +0.162 A 
ATOM     22  C   UNL     1       0.014   0.344   0.749  0.00  0.00    +0.162 A 
ATOM     23  C   UNL     1      -1.133  -0.412   0.557  0.00  0.00    +0.054 A 
ATOM     24  O   UNL     1       1.216  -0.283   0.870  0.00  0.00    -0.485 OA
ATOM     25  C   UNL     1       2.384   0.524   0.685  0.00  0.00    +0.270 C 
ATOM     26  C   UNL     1       2.204   1.820   1.488  0.00  0.00    +0.270 C 
ATOM     27  O   UNL     1       1.037   2.492   0.999  0.00  0.00    -0.485 OA
ENDBRANCH  16  18
ENDBRANCH   1  16
TORSDOF 5
