REMARK  Name = ZINC24341496
REMARK  7 active torsions:
REMARK  status: ('A' for Active; 'I' for Inactive)
REMARK    1  A    between atoms: C_1  and  C_2
REMARK    2  A    between atoms: C_2  and  C_3
REMARK    3  A    between atoms: C_2  and  C_4
REMARK    4  A    between atoms: C_4  and  C_6
REMARK    5  A    between atoms: C_4  and  N_13
REMARK    6  A    between atoms: N_13  and  C_14
REMARK    7  A    between atoms: C_15  and  N_23
REMARK                            x       y       z     vdW  Elec       q    Type
REMARK                         _______ _______ _______ _____ _____    ______ ____
ROOT
ATOM      1  N   UNL     1      -1.140  -3.340  -0.003  0.00  0.00    -0.319 N 
ATOM      2  H   UNL     1      -0.598  -4.297  -0.012  0.00  0.00    +0.148 HD
ENDROOT
BRANCH   1   3
ATOM      3  C   UNL     1      -0.430  -2.133  -0.005  0.00  0.00    +0.170 A 
ATOM      4  C   UNL     1       0.922  -2.008  -0.017  0.00  0.00    +0.242 A 
ATOM      5  N   UNL     1       1.202  -0.665  -0.013  0.00  0.00    -0.279 N 
ATOM      6  C   UNL     1       2.375   0.031  -0.021  0.00  0.00    +0.095 A 
ATOM      7  C   UNL     1       2.374   1.381  -0.013  0.00  0.00    +0.018 A 
ATOM      8  C   UNL     1       1.160   2.087   0.002  0.00  0.00    +0.005 A 
ATOM      9  C   UNL     1      -0.017   1.404   0.010  0.00  0.00    +0.047 A 
ATOM     10  C   UNL     1       0.002  -0.004   0.002  0.00  0.00    +0.141 A 
ATOM     11  N   UNL     1      -0.969  -0.909   0.007  0.00  0.00    -0.211 NA
BRANCH   4  12
ATOM     12  N   UNL     1       1.911  -3.116  -0.032  0.00  0.00    +0.077 N 
ATOM     13  O   UNL     1       2.327  -3.576   1.016  0.00  0.00    -0.125 OA
ATOM     14  O   UNL     1       2.307  -3.565  -1.093  0.00  0.00    -0.125 OA
ENDBRANCH   4  12
ENDBRANCH   1   3
BRANCH   1  15
ATOM     15  C   UNL     1      -2.605  -3.328   0.011  0.00  0.00    +0.105 C 
BRANCH  15  16
ATOM     16  C   UNL     1      -3.112  -4.614   0.611  0.00  0.00    -0.027 A 
ATOM     17  C   UNL     1      -2.494  -5.811   0.302  0.00  0.00    +0.008 A 
ATOM     18  C   UNL     1      -2.955  -6.991   0.856  0.00  0.00    +0.038 A 
ATOM     19  C   UNL     1      -4.044  -6.974   1.711  0.00  0.00    +0.123 A 
ATOM     20  C   UNL     1      -4.665  -5.775   2.016  0.00  0.00    +0.038 A 
ATOM     21  C   UNL     1      -4.199  -4.596   1.465  0.00  0.00    +0.008 A 
ATOM     22  F   UNL     1      -4.498  -8.127   2.249  0.00  0.00    -0.205 F 
ENDBRANCH  15  16
BRANCH  15  24
ATOM     23  C   UNL     1      -4.658  -3.179  -1.405  0.00  0.00    +0.009 C 
ATOM     24  C   UNL     1      -3.128  -3.192  -1.420  0.00  0.00    +0.008 C 
ATOM     25  C   UNL     1      -2.613  -1.886  -2.029  0.00  0.00    +0.009 C 
ENDBRANCH  15  24
ENDBRANCH   1  15
TORSDOF 5
