REMARK  Name = ZINC13342849
REMARK  6 active torsions:
REMARK  status: ('A' for Active; 'I' for Inactive)
REMARK    1  A    between atoms: C_1  and  C_2
REMARK    2  A    between atoms: C_5  and  N_21
REMARK    3  A    between atoms: C_7  and  S_8
REMARK    4  A    between atoms: S_8  and  N_11
REMARK    5  A    between atoms: N_11  and  C_12
REMARK    6  A    between atoms: C_17  and  C_18
REMARK                            x       y       z     vdW  Elec       q    Type
REMARK                         _______ _______ _______ _____ _____    ______ ____
ROOT
ATOM      1  S   UNL     1      -2.501  -0.459   0.730  0.00  0.00    +0.073 S 
ATOM      2  O   UNL     1      -3.767  -1.062   0.505  0.00  0.00    -0.150 OA
ATOM      3  O   UNL     1      -1.284  -1.060   0.307  0.00  0.00    -0.150 OA
ENDROOT
BRANCH   1  10
ATOM      4  C   UNL     1      -4.646   0.811   2.443  0.00  0.00    +0.046 C 
ATOM      5  C   UNL     1      -3.398   0.379   3.168  0.00  0.00    -0.024 A 
ATOM      6  C   UNL     1      -3.289   0.572   4.533  0.00  0.00    +0.007 A 
ATOM      7  C   UNL     1      -2.145   0.175   5.198  0.00  0.00    +0.033 A 
ATOM      8  C   UNL     1      -1.108  -0.415   4.499  0.00  0.00    +0.128 A 
ATOM      9  C   UNL     1      -1.219  -0.613   3.136  0.00  0.00    +0.061 A 
ATOM     10  C   UNL     1      -2.362  -0.212   2.469  0.00  0.00    +0.114 A 
BRANCH   8  11
ATOM     11  N   UNL     1       0.117  -0.841   5.212  0.00  0.00    +0.056 N 
ATOM     12  O   UNL     1       0.213  -0.670   6.414  0.00  0.00    -0.126 OA
ATOM     13  O   UNL     1       1.030  -1.361   4.596  0.00  0.00    -0.126 OA
ENDBRANCH   8  11
ENDBRANCH   1  10
BRANCH   1  14
ATOM     14  N   UNL     1      -2.558   1.039   0.026  0.00  0.00    -0.215 N 
ATOM     15  H   UNL     1      -3.332   1.299  -0.498  0.00  0.00    +0.174 HD
BRANCH  14  16
ATOM     16  C   UNL     1      -1.499   1.923   0.186  0.00  0.00    +0.062 A 
ATOM     17  C   UNL     1      -0.194   1.447   0.233  0.00  0.00    +0.026 A 
ATOM     18  C   UNL     1       0.857   2.327   0.386  0.00  0.00    +0.017 A 
ATOM     19  C   UNL     1       0.622   3.689   0.499  0.00  0.00    +0.019 A 
ATOM     20  C   UNL     1      -0.665   4.179   0.461  0.00  0.00    +0.032 A 
ATOM     21  C   UNL     1      -1.741   3.300   0.306  0.00  0.00    +0.086 A 
ATOM     22 BR   UNL     1       2.076   4.881   0.709  0.00  0.00    -0.050 Br
BRANCH  21  23
ATOM     23  C   UNL     1      -3.120   3.817   0.264  0.00  0.00    +0.388 C 
ATOM     24  O   UNL     1      -4.053   3.049   0.130  0.00  0.00    -0.241 OA
ATOM     25  O   UNL     1      -3.348   5.140   0.375  0.00  0.00    -0.241 OA
ENDBRANCH  21  23
ENDBRANCH  14  16
ENDBRANCH   1  14
TORSDOF 5
