REMARK  Name = ZINC12802386
REMARK  10 active torsions:
REMARK  status: ('A' for Active; 'I' for Inactive)
REMARK    1  A    between atoms: C_1  and  C_2
REMARK    2  A    between atoms: C_6  and  C_8
REMARK    3  A    between atoms: C_11  and  S_22
REMARK    4  A    between atoms: N_12  and  C_13
REMARK    5  A    between atoms: C_19  and  C_21
REMARK    6  A    between atoms: S_22  and  C_23
REMARK    7  A    between atoms: C_23  and  C_24
REMARK    8  A    between atoms: C_24  and  C_26
REMARK    9  A    between atoms: C_27  and  N_38
REMARK   10  A    between atoms: N_28  and  C_35
REMARK                            x       y       z     vdW  Elec       q    Type
REMARK                         _______ _______ _______ _____ _____    ______ ____
ROOT
ATOM      1  C   UNL     1       2.452  -3.196   0.588  0.00  0.00    +0.165 A 
ATOM      2  N   UNL     1       1.366  -3.871   0.884  0.00  0.00    -0.128 NA
ATOM      3  N   UNL     1       1.438  -5.055   0.391  0.00  0.00    -0.122 NA
ATOM      4  C   UNL     1       2.579  -5.212  -0.242  0.00  0.00    +0.193 A 
ATOM      5  N   UNL     1       3.264  -4.035  -0.139  0.00  0.00    -0.299 N 
ENDROOT
BRANCH   1  11
ATOM      6  C   UNL     1       0.881   1.428   1.614  0.00  0.00    +0.044 C 
ATOM      7  C   UNL     1       1.998   0.427   1.467  0.00  0.00    -0.050 A 
ATOM      8  C   UNL     1       3.308   0.818   1.683  0.00  0.00    +0.003 A 
ATOM      9  C   UNL     1       4.340  -0.093   1.545  0.00  0.00    +0.001 A 
ATOM     10  C   UNL     1       4.069  -1.398   1.189  0.00  0.00    +0.011 A 
ATOM     11  C   UNL     1       2.750  -1.799   0.970  0.00  0.00    +0.020 A 
ATOM     12  C   UNL     1       1.713  -0.875   1.111  0.00  0.00    +0.015 A 
ENDBRANCH   1  11
BRANCH   5  13
ATOM     13  C   UNL     1       4.587  -3.731  -0.689  0.00  0.00    +0.094 C 
ATOM     14  C   UNL     1       5.640  -4.597   0.006  0.00  0.00    +0.025 C 
ATOM     15  C   UNL     1       7.022  -4.279  -0.568  0.00  0.00    +0.002 C 
ATOM     16  C   UNL     1       7.031  -4.572  -2.069  0.00  0.00    +0.000 C 
ATOM     17  C   UNL     1       5.978  -3.705  -2.764  0.00  0.00    +0.005 C 
ATOM     18  C   UNL     1       4.596  -4.023  -2.190  0.00  0.00    +0.009 C 
ATOM     19  C   UNL     1       3.544  -3.157  -2.885  0.00  0.00    +0.009 C 
ENDBRANCH   5  13
BRANCH   4  20
ATOM     20  S   UNL     1       3.123  -6.669  -1.071  0.00  0.00    -0.078 S 
BRANCH  20  21
ATOM     21  C   UNL     1       1.703  -7.751  -0.768  0.00  0.00    +0.157 C 
BRANCH  21  22
ATOM     22  C   UNL     1       1.951  -9.094  -1.404  0.00  0.00    +0.182 C 
ATOM     23  O   UNL     1       2.987  -9.300  -2.004  0.00  0.00    -0.291 OA
BRANCH  22  24
ATOM     24  C   UNL     1       0.980 -10.113  -1.303  0.00  0.00    +0.120 A 
ATOM     25  C   UNL     1       1.236 -11.410  -1.781  0.00  0.00    +0.116 A 
ATOM     26  N   UNL     1       0.266 -12.363  -1.656  0.00  0.00    -0.278 N 
ATOM     27  C   UNL     1      -0.922 -12.081  -1.099  0.00  0.00    +0.331 A 
ATOM     28  O   UNL     1      -1.754 -12.964  -1.016  0.00  0.00    -0.246 OA
ATOM     29  N   UNL     1      -1.225 -10.861  -0.629  0.00  0.00    -0.274 N 
ATOM     30  H   UNL     1      -2.124 -10.698  -0.222  0.00  0.00    +0.173 HD
ATOM     31  C   UNL     1      -0.334  -9.851  -0.701  0.00  0.00    +0.266 A 
ATOM     32  O   UNL     1      -0.612  -8.745  -0.275  0.00  0.00    -0.267 OA
BRANCH  26  33
ATOM     33  C   UNL     1       0.525 -13.719  -2.147  0.00  0.00    +0.094 C 
ATOM     34  C   UNL     1       0.165 -14.885  -1.224  0.00  0.00    +0.027 C 
ATOM     35  C   UNL     1       1.633 -14.520  -1.459  0.00  0.00    +0.027 C 
ENDBRANCH  26  33
BRANCH  25  36
ATOM     36  N   UNL     1       2.432 -11.712  -2.354  0.00  0.00    -0.344 N 
ATOM     37  H   UNL     1       3.224 -11.203  -2.120  0.00  0.00    +0.144 HD
ATOM     38  H   UNL     1       2.493 -12.435  -2.997  0.00  0.00    +0.144 HD
ENDBRANCH  25  36
ENDBRANCH  22  24
ENDBRANCH  21  22
ENDBRANCH  20  21
ENDBRANCH   4  20
TORSDOF 8
