REMARK  Name = ZINC01091307
REMARK  8 active torsions:
REMARK  status: ('A' for Active; 'I' for Inactive)
REMARK    1  A    between atoms: C_1  and  C_2
REMARK    2  A    between atoms: C_5  and  N_26
REMARK    3  A    between atoms: C_7  and  C_8
REMARK    4  A    between atoms: C_11  and  C_13
REMARK    5  A    between atoms: C_14  and  C_15
REMARK    6  A    between atoms: C_14  and  C_17
REMARK    7  A    between atoms: N_19  and  C_20
REMARK    8  A    between atoms: C_20  and  C_21
REMARK                            x       y       z     vdW  Elec       q    Type
REMARK                         _______ _______ _______ _____ _____    ______ ____
ROOT
ATOM      1  C   UNL     1      -6.290  -0.844   0.028  0.00  0.00    +0.136 A 
ATOM      2  C   UNL     1      -7.038   0.314   0.038  0.00  0.00    +0.050 A 
ATOM      3  C   UNL     1      -6.141   1.380   0.044  0.00  0.00    +0.050 A 
ATOM      4  C   UNL     1      -4.866   0.832   0.030  0.00  0.00    +0.130 A 
ATOM      5  O   UNL     1      -4.987  -0.513   0.023  0.00  0.00    -0.455 OA
ENDROOT
BRANCH   1  12
ATOM      6  C   UNL     1      -5.326  -2.752  -1.922  0.00  0.00    +0.044 C 
ATOM      7  C   UNL     1      -6.372  -3.148  -0.912  0.00  0.00    -0.040 A 
ATOM      8  C   UNL     1      -6.878  -4.432  -0.908  0.00  0.00    +0.006 A 
ATOM      9  C   UNL     1      -7.843  -4.795   0.015  0.00  0.00    +0.033 A 
ATOM     10  C   UNL     1      -8.303  -3.877   0.943  0.00  0.00    +0.127 A 
ATOM     11  C   UNL     1      -7.804  -2.592   0.953  0.00  0.00    +0.044 A 
ATOM     12  C   UNL     1      -6.829  -2.218   0.024  0.00  0.00    +0.022 A 
BRANCH  10  13
ATOM     13  N   UNL     1      -9.336  -4.276   1.926  0.00  0.00    +0.056 N 
ATOM     14  O   UNL     1      -9.742  -3.469   2.743  0.00  0.00    -0.126 OA
ATOM     15  O   UNL     1      -9.778  -5.411   1.919  0.00  0.00    -0.126 OA
ENDBRANCH  10  13
ENDBRANCH   1  12
BRANCH   4  16
ATOM     16  C   UNL     1      -3.660   1.550   0.028  0.00  0.00    +0.070 C 
ATOM     17  C   UNL     1      -2.448   0.873   0.018  0.00  0.00    +0.117 C 
BRANCH  17  18
ATOM     18  C   UNL     1      -1.187   1.624   0.017  0.00  0.00    +0.255 C 
ATOM     19  O   UNL     1      -1.204   2.841   0.023  0.00  0.00    -0.269 OA
ATOM     20  N   UNL     1      -0.011   0.966   0.007  0.00  0.00    -0.304 N 
ATOM     21  H   UNL     1       0.002  -0.004   0.002  0.00  0.00    +0.149 HD
BRANCH  20  22
ATOM     22  C   UNL     1       1.248   1.716  -0.001  0.00  0.00    +0.179 C 
BRANCH  22  23
ATOM     23  C   UNL     1       2.406   0.752  -0.017  0.00  0.00    +0.122 A 
ATOM     24  C   UNL     1       3.001   0.255  -1.116  0.00  0.00    +0.046 A 
ATOM     25  C   UNL     1       4.033  -0.603  -0.672  0.00  0.00    +0.041 A 
ATOM     26  C   UNL     1       4.008  -0.578   0.673  0.00  0.00    +0.195 A 
ATOM     27  O   UNL     1       3.024   0.248   1.064  0.00  0.00    -0.466 OA
ENDBRANCH  22  23
ENDBRANCH  20  22
ENDBRANCH  17  18
BRANCH  17  28
ATOM     28  C   UNL     1      -2.429  -0.559   0.011  0.00  0.00    +0.104 C 
ATOM     29  N   UNL     1      -2.414  -1.695   0.004  0.00  0.00    -0.191 NA
ENDBRANCH  17  28
ENDBRANCH   4  16
TORSDOF 7
