REMARK  Name = ZINC58379796
REMARK  6 active torsions:
REMARK  status: ('A' for Active; 'I' for Inactive)
REMARK    1  A    between atoms: N_7  and  C_11
REMARK    2  A    between atoms: C_11  and  C_12
REMARK    3  A    between atoms: C_12  and  C_13
REMARK    4  A    between atoms: C_13  and  C_14
REMARK    5  A    between atoms: C_21  and  C_23
REMARK    6  A    between atoms: C_23  and  N_24
REMARK                            x       y       z     vdW  Elec       q    Type
REMARK                         _______ _______ _______ _____ _____    ______ ____
ROOT
ATOM      1  C   UNL     1      -0.575  -5.649  -2.956  0.00  0.00    +0.216 C 
ATOM      2  O   UNL     1      -0.093  -4.997  -3.859  0.00  0.00    -0.276 OA
ATOM      3  N   UNL     1      -1.636  -6.445  -3.193  0.00  0.00    -0.297 N 
ATOM      4  C   UNL     1      -2.158  -7.329  -2.141  0.00  0.00    +0.108 C 
ATOM      5  C   UNL     1      -2.223  -8.759  -2.686  0.00  0.00    +0.019 C 
ATOM      6  C   UNL     1      -3.041  -8.771  -3.980  0.00  0.00    +0.003 C 
ATOM      7  C   UNL     1      -2.358  -7.886  -5.025  0.00  0.00    +0.024 C 
ATOM      8  C   UNL     1      -2.298  -6.442  -4.505  0.00  0.00    +0.093 C 
ENDROOT
BRANCH   1   9
ATOM      9  C   UNL     1       0.013  -5.568  -1.571  0.00  0.00    +0.098 C 
BRANCH   9  10
ATOM     10  C   UNL     1       1.198  -4.601  -1.576  0.00  0.00    +0.031 C 
BRANCH  10  11
ATOM     11  C   UNL     1       1.796  -4.519  -0.170  0.00  0.00    +0.129 C 
BRANCH  11  18
ATOM     12  C   UNL     1       2.110  -0.005   0.555  0.00  0.00    +0.002 A 
ATOM     13  C   UNL     1       3.407   0.468   0.451  0.00  0.00    +0.004 A 
ATOM     14  C   UNL     1       4.442  -0.397   0.155  0.00  0.00    +0.048 A 
ATOM     15  C   UNL     1       4.184  -1.745  -0.038  0.00  0.00    +0.157 A 
ATOM     16  C   UNL     1       2.877  -2.220   0.068  0.00  0.00    +0.090 A 
ATOM     17  C   UNL     1       1.842  -1.346   0.364  0.00  0.00    +0.030 A 
ATOM     18  N   UNL     1       2.931  -3.592  -0.174  0.00  0.00    -0.274 N 
ATOM     19  C   UNL     1       4.218  -3.911  -0.413  0.00  0.00    +0.421 A 
ATOM     20  O   UNL     1       4.631  -5.028  -0.662  0.00  0.00    -0.223 OA
ATOM     21  O   UNL     1       4.975  -2.805  -0.332  0.00  0.00    -0.407 OA
ENDBRANCH  11  18
ENDBRANCH  10  11
ENDBRANCH   9  10
ENDBRANCH   1   9
BRANCH   8  22
ATOM     22  C   UNL     1      -1.498  -5.576  -5.480  0.00  0.00    +0.128 C 
BRANCH  22  23
ATOM     23  N   UNL     1      -1.567  -4.174  -5.059  0.00  0.00    -0.298 N 
ATOM     24  C   UNL     1      -1.033  -3.210  -5.835  0.00  0.00    +0.297 C 
ATOM     25  O   UNL     1      -0.494  -3.504  -6.884  0.00  0.00    -0.253 OA
ATOM     26  N   UNL     1      -1.097  -1.921  -5.447  0.00  0.00    -0.313 N 
ATOM     27  H   UNL     1      -1.997  -3.940  -4.221  0.00  0.00    +0.150 HD
ATOM     28  H   UNL     1      -1.527  -1.687  -4.610  0.00  0.00    +0.146 HD
ATOM     29  H   UNL     1      -0.712  -1.227  -6.005  0.00  0.00    +0.146 HD
ENDBRANCH  22  23
ENDBRANCH   8  22
TORSDOF 6
