REMARK  Name = ZINC22814356
REMARK  6 active torsions:
REMARK  status: ('A' for Active; 'I' for Inactive)
REMARK    1  A    between atoms: C_10  and  N_12
REMARK    2  A    between atoms: C_13  and  C_15
REMARK    3  A    between atoms: C_15  and  N_16
REMARK    4  A    between atoms: N_19  and  C_22
REMARK    5  A    between atoms: C_22  and  C_23
REMARK    6  A    between atoms: C_31  and  N_33
REMARK                            x       y       z     vdW  Elec       q    Type
REMARK                         _______ _______ _______ _____ _____    ______ ____
ROOT
ATOM      1  N   UNL     1       5.417   5.450  -0.821  0.00  0.00    +0.387 N 
ATOM      2  C   UNL     1       4.358   6.412  -0.486  0.00  0.00    -0.063 C 
ATOM      3  C   UNL     1       4.965   7.587   0.284  0.00  0.00    +0.066 C 
ATOM      4  N   UNL     1       6.007   8.220  -0.536  0.00  0.00    -0.299 NA
ATOM      5  C   UNL     1       7.066   7.258  -0.872  0.00  0.00    +0.066 C 
ATOM      6  C   UNL     1       6.459   6.083  -1.642  0.00  0.00    -0.063 C 
ATOM      7  H   UNL     1       5.881   5.114   0.118  0.00  0.00    -0.081 HD
ENDROOT
BRANCH   1   8
ATOM      8  C   UNL     1       4.861   4.269  -1.496  0.00  0.00    +0.019 C 
BRANCH   8  10
ATOM      9  N   UNL     1       3.361   2.383  -0.937  0.00  0.00    -0.310 N 
ATOM     10  C   UNL     1       3.982   3.509  -0.535  0.00  0.00    +0.197 C 
ATOM     11  O   UNL     1       3.833   3.912   0.599  0.00  0.00    -0.278 OA
ATOM     12  H   UNL     1       3.496   2.017  -1.966  0.00  0.00    +0.149 HD
BRANCH   9  22
ATOM     13  C   UNL     1      -1.343   3.509   0.029  0.00  0.00    +0.000 A 
ATOM     14  C   UNL     1      -0.188   4.269   0.019  0.00  0.00    +0.000 A 
ATOM     15  C   UNL     1       1.043   3.645   0.006  0.00  0.00    +0.006 A 
ATOM     16  C   UNL     1       1.131   2.259   0.003  0.00  0.00    -0.024 A 
ATOM     17  C   UNL     1      -0.018   1.502   0.010  0.00  0.00    -0.042 A 
ATOM     18  C   UNL     1      -1.256   2.132   0.019  0.00  0.00    +0.004 A 
ATOM     19  C   UNL     1       0.002  -0.004   0.002  0.00  0.00    +0.035 C 
ATOM     20  C   UNL     1       1.376  -0.525   0.418  0.00  0.00    +0.007 C 
ATOM     21  C   UNL     1       2.438   0.180  -0.434  0.00  0.00    +0.027 C 
ATOM     22  C   UNL     1       2.507   1.644  -0.004  0.00  0.00    +0.103 C 
ENDBRANCH   9  22
ENDBRANCH   8  10
ENDBRANCH   1   8
BRANCH   4  23
ATOM     23  C   UNL     1       6.563   9.401   0.138  0.00  0.00    +0.160 C 
BRANCH  23  24
ATOM     24  C   UNL     1       5.501  10.464   0.245  0.00  0.00    +0.146 A 
ATOM     25  N   UNL     1       4.734  10.478   1.310  0.00  0.00    -0.231 NA
ATOM     26  C   UNL     1       3.776  11.407   1.446  0.00  0.00    +0.076 A 
ATOM     27  C   UNL     1       2.939  11.451   2.569  0.00  0.00    +0.028 A 
ATOM     28  C   UNL     1       1.981  12.417   2.657  0.00  0.00    +0.002 A 
ATOM     29  C   UNL     1       1.821  13.363   1.647  0.00  0.00    +0.001 A 
ATOM     30  C   UNL     1       2.618  13.348   0.541  0.00  0.00    +0.013 A 
ATOM     31  C   UNL     1       3.611  12.369   0.420  0.00  0.00    +0.040 A 
ATOM     32  C   UNL     1       4.470  12.303  -0.704  0.00  0.00    +0.127 A 
ATOM     33  N   UNL     1       5.388  11.346  -0.735  0.00  0.00    -0.216 NA
BRANCH  32  34
ATOM     34  N   UNL     1       4.359  13.212  -1.734  0.00  0.00    -0.343 N 
ATOM     35  H   UNL     1       5.034  13.146  -2.600  0.00  0.00    +0.144 HD
ATOM     36  H   UNL     1       3.595  14.002  -1.691  0.00  0.00    +0.144 HD
ENDBRANCH  32  34
ENDBRANCH  23  24
ENDBRANCH   4  23
TORSDOF 6
