REMARK  Name = ZINC67324564
REMARK  8 active torsions:
REMARK  status: ('A' for Active; 'I' for Inactive)
REMARK    1  A    between atoms: C_1  and  C_2
REMARK    2  A    between atoms: C_2  and  C_4
REMARK    3  A    between atoms: C_2  and  N_12
REMARK    4  A    between atoms: C_7  and  C_10
REMARK    5  A    between atoms: N_15  and  C_16
REMARK    6  A    between atoms: C_20  and  N_22
REMARK    7  A    between atoms: C_23  and  O_25
REMARK    8  A    between atoms: O_25  and  C_26
REMARK                            x       y       z     vdW  Elec       q    Type
REMARK                         _______ _______ _______ _____ _____    ______ ____
ROOT
ATOM      1  N   UNL     1      -1.400  -0.500  -0.017  0.00  0.00    -0.293 N 
ATOM      2  C   UNL     1      -2.049  -0.650   1.154  0.00  0.00    +0.304 C 
ATOM      3  O   UNL     1      -1.496  -0.361   2.197  0.00  0.00    -0.252 OA
ATOM      4  N   UNL     1      -3.312  -1.121   1.170  0.00  0.00    -0.269 N 
ATOM      5  H   UNL     1      -1.842  -0.731  -0.850  0.00  0.00    +0.151 HD
ATOM      6  H   UNL     1      -3.777  -1.288   0.335  0.00  0.00    +0.156 HD
ENDROOT
BRANCH   4   7
ATOM      7  C   UNL     1      -3.953  -1.367   2.390  0.00  0.00    +0.037 A 
ATOM      8  C   UNL     1      -3.712  -0.541   3.481  0.00  0.00    +0.026 A 
ATOM      9  C   UNL     1      -4.343  -0.782   4.686  0.00  0.00    +0.042 A 
ATOM     10  C   UNL     1      -5.217  -1.847   4.810  0.00  0.00    +0.145 A 
ATOM     11  C   UNL     1      -5.462  -2.677   3.722  0.00  0.00    +0.073 A 
ATOM     12  C   UNL     1      -4.834  -2.432   2.510  0.00  0.00    +0.049 A 
ATOM     13  F   UNL     1      -5.833  -2.081   5.989  0.00  0.00    -0.204 F 
BRANCH  11  14
ATOM     14  N   UNL     1      -6.347  -3.756   3.847  0.00  0.00    -0.248 N 
ATOM     15  C   UNL     1      -6.117  -4.899   3.171  0.00  0.00    +0.404 C 
ATOM     16  O   UNL     1      -5.189  -4.966   2.389  0.00  0.00    -0.226 OA
ATOM     17  H   UNL     1      -7.126  -3.680   4.421  0.00  0.00    +0.158 HD
BRANCH  15  18
ATOM     18  O   UNL     1      -6.915  -5.966   3.361  0.00  0.00    -0.453 OA
ATOM     19  C   UNL     1      -6.612  -7.144   2.612  0.00  0.00    +0.282 C 
ENDBRANCH  15  18
ENDBRANCH  11  14
ENDBRANCH   4   7
BRANCH   1  21
ATOM     20  C   UNL     1      -0.053   1.541  -0.020  0.00  0.00    +0.033 C 
ATOM     21  C   UNL     1      -0.028   0.011  -0.034  0.00  0.00    +0.102 C 
BRANCH  21  22
ATOM     22  C   UNL     1       0.672  -0.468  -1.280  0.00  0.00    -0.027 A 
ATOM     23  C   UNL     1      -0.008  -0.496  -2.484  0.00  0.00    +0.007 A 
ATOM     24  C   UNL     1       0.626  -0.934  -3.628  0.00  0.00    +0.019 A 
ATOM     25  C   UNL     1       1.958  -1.349  -3.569  0.00  0.00    +0.052 A 
ATOM     26  C   UNL     1       2.639  -1.318  -2.350  0.00  0.00    +0.019 A 
ATOM     27  C   UNL     1       1.994  -0.873  -1.215  0.00  0.00    +0.007 A 
BRANCH  25  28
ATOM     28  C   UNL     1       2.623  -1.805  -4.752  0.00  0.00    +0.099 C 
ATOM     29  N   UNL     1       3.150  -2.167  -5.691  0.00  0.00    -0.191 NA
ENDBRANCH  25  28
ENDBRANCH  21  22
ENDBRANCH   1  21
TORSDOF 6
