REMARK  Name = ZINC22956194
REMARK  8 active torsions:
REMARK  status: ('A' for Active; 'I' for Inactive)
REMARK    1  A    between atoms: C_5  and  C_7
REMARK    2  A    between atoms: C_9  and  C_12
REMARK    3  A    between atoms: C_12  and  S_13
REMARK    4  A    between atoms: S_13  and  C_14
REMARK    5  A    between atoms: C_17  and  C_20
REMARK    6  A    between atoms: N_18  and  N_19
REMARK    7  A    between atoms: C_23  and  O_26
REMARK    8  A    between atoms: O_26  and  C_27
REMARK                            x       y       z     vdW  Elec       q    Type
REMARK                         _______ _______ _______ _____ _____    ______ ____
ROOT
ATOM      1  C   UNL     1      -0.570  -2.106  -0.165  0.00  0.00    +0.209 A 
ATOM      2  N   UNL     1       0.698  -2.008   0.164  0.00  0.00    -0.121 NA
ATOM      3  N   UNL     1       1.035  -0.772   0.262  0.00  0.00    -0.127 NA
ATOM      4  C   UNL     1       0.002  -0.004   0.002  0.00  0.00    +0.182 A 
ATOM      5  N   UNL     1      -1.060  -0.835  -0.273  0.00  0.00    -0.224 N 
ENDROOT
BRANCH   4   6
ATOM      6  C   UNL     1      -0.018   1.474   0.010  0.00  0.00    +0.021 A 
ATOM      7  C   UNL     1      -1.235   2.157   0.020  0.00  0.00    +0.015 A 
ATOM      8  C   UNL     1      -1.250   3.536   0.033  0.00  0.00    +0.046 A 
ATOM      9  C   UNL     1      -0.056   4.245   0.025  0.00  0.00    +0.127 A 
ATOM     10  C   UNL     1       1.157   3.568   0.010  0.00  0.00    +0.046 A 
ATOM     11  C   UNL     1       1.180   2.190   0.003  0.00  0.00    +0.015 A 
BRANCH   9  12
ATOM     12  O   UNL     1      -0.074   5.603   0.033  0.00  0.00    -0.434 OA
BRANCH  12  13
ATOM     13  C   UNL     1      -1.356   6.234   0.048  0.00  0.00    +0.541 C 
ATOM     14  F   UNL     1      -2.077   5.855  -1.089  0.00  0.00    -0.166 F 
ATOM     15  F   UNL     1      -2.054   5.843   1.195  0.00  0.00    -0.166 F 
ENDBRANCH  12  13
ENDBRANCH   9  12
ENDBRANCH   4   6
BRANCH   5  16
ATOM     16  N   UNL     1      -2.336  -0.466  -0.592  0.00  0.00    -0.295 N 
ATOM     17  H   UNL     1      -2.602   0.600  -0.646  0.00  0.00    +0.163 HD
ATOM     18  H   UNL     1      -3.096  -1.234  -0.793  0.00  0.00    +0.163 HD
ENDBRANCH   5  16
BRANCH   1  19
ATOM     19  S   UNL     1      -1.474  -3.598  -0.411  0.00  0.00    -0.077 S 
BRANCH  19  20
ATOM     20  C   UNL     1      -0.172  -4.812  -0.086  0.00  0.00    +0.157 C 
BRANCH  20  23
ATOM     21  C   UNL     1      -1.328  -8.070  -1.050  0.00  0.00    +0.260 A 
ATOM     22  N   UNL     1      -0.754  -6.925  -1.373  0.00  0.00    -0.191 NA
ATOM     23  C   UNL     1      -0.731  -6.203  -0.242  0.00  0.00    +0.182 A 
ATOM     24  N   UNL     1      -1.272  -6.923   0.696  0.00  0.00    -0.060 NA
ATOM     25  O   UNL     1      -1.627  -7.996   0.256  0.00  0.00    -0.333 OA
BRANCH  21  30
ATOM     26  C   UNL     1      -1.469 -10.210  -4.133  0.00  0.00    +0.001 A 
ATOM     27  C   UNL     1      -2.083 -11.349  -3.643  0.00  0.00    +0.001 A 
ATOM     28  C   UNL     1      -2.452 -11.426  -2.312  0.00  0.00    +0.021 A 
ATOM     29  C   UNL     1      -2.210 -10.364  -1.463  0.00  0.00    +0.053 A 
ATOM     30  C   UNL     1      -1.590  -9.211  -1.952  0.00  0.00    +0.058 A 
ATOM     31  C   UNL     1      -1.225  -9.140  -3.298  0.00  0.00    +0.015 A 
ATOM     32 CL   UNL     1      -2.674 -10.461   0.206  0.00  0.00    -0.083 Cl
ENDBRANCH  21  30
ENDBRANCH  20  23
ENDBRANCH  19  20
ENDBRANCH   1  19
TORSDOF 8
