REMARK  Name = ZINC39685691
REMARK  11 active torsions:
REMARK  status: ('A' for Active; 'I' for Inactive)
REMARK    1  A    between atoms: C_1  and  C_2
REMARK    2  A    between atoms: C_2  and  C_3
REMARK    3  A    between atoms: C_2  and  C_4
REMARK    4  A    between atoms: C_4  and  C_6
REMARK    5  A    between atoms: C_4  and  N_13
REMARK    6  A    between atoms: N_8  and  C_9
REMARK    7  A    between atoms: C_9  and  C_10
REMARK    8  A    between atoms: C_9  and  C_11
REMARK    9  A    between atoms: C_9  and  C_12
REMARK   10  A    between atoms: C_14  and  C_16
REMARK   11  A    between atoms: C_27  and  C_29
REMARK                            x       y       z     vdW  Elec       q    Type
REMARK                         _______ _______ _______ _____ _____    ______ ____
ROOT
ATOM      1  C   UNL     1      -0.327  -3.763   1.711  0.00  0.00    +0.100 C 
ATOM      2  C   UNL     1       1.063  -4.002   1.081  0.00  0.00    +0.121 C 
ATOM      3  N   UNL     1       2.023  -3.728   2.176  0.00  0.00    -0.296 N 
ATOM      4  C   UNL     1       1.379  -4.301   3.382  0.00  0.00    +0.115 C 
ATOM      5  C   UNL     1      -0.117  -3.963   3.221  0.00  0.00    -0.004 C 
ATOM      6  C   UNL     1      -0.451  -2.681   3.976  0.00  0.00    -0.010 C 
ATOM      7  C   UNL     1      -0.289  -2.921   5.479  0.00  0.00    -0.082 C 
ATOM      8  N   UNL     1      -1.180  -4.008   5.901  0.00  0.00    +0.379 N 
ATOM      9  C   UNL     1      -0.792  -5.260   5.240  0.00  0.00    -0.082 C 
ATOM     10  C   UNL     1      -0.976  -5.118   3.726  0.00  0.00    -0.010 C 
ATOM     11  C   UNL     1       3.212  -3.099   2.094  0.00  0.00    +0.248 C 
ATOM     12  O   UNL     1       3.568  -2.607   1.041  0.00  0.00    -0.270 OA
ATOM     13  H   UNL     1      -1.116  -4.125   6.902  0.00  0.00    -0.086 HD
ATOM     14  H   UNL     1      -2.130  -3.778   5.652  0.00  0.00    -0.086 HD
ENDROOT
BRANCH  11  15
ATOM     15  C   UNL     1       4.082  -3.007   3.284  0.00  0.00    +0.055 A 
ATOM     16  C   UNL     1       4.135  -4.062   4.197  0.00  0.00    +0.016 A 
ATOM     17  C   UNL     1       4.949  -3.971   5.306  0.00  0.00    +0.021 A 
ATOM     18  C   UNL     1       5.714  -2.834   5.516  0.00  0.00    +0.042 A 
ATOM     19  C   UNL     1       5.667  -1.784   4.616  0.00  0.00    +0.040 A 
ATOM     20  C   UNL     1       4.861  -1.866   3.498  0.00  0.00    +0.054 A 
ATOM     21 CL   UNL     1       4.808  -0.552   2.365  0.00  0.00    -0.083 Cl
ATOM     22 CL   UNL     1       6.736  -2.728   6.916  0.00  0.00    -0.083 Cl
ENDBRANCH  11  15
BRANCH   1  24
ATOM     23  N   UNL     1      -2.116  -2.086   1.384  0.00  0.00    -0.303 N 
ATOM     24  C   UNL     1      -0.797  -2.360   1.428  0.00  0.00    +0.219 C 
ATOM     25  O   UNL     1       0.012  -1.476   1.240  0.00  0.00    -0.275 OA
ATOM     26  H   UNL     1      -2.763  -2.793   1.535  0.00  0.00    +0.149 HD
BRANCH  23  27
ATOM     27  C   UNL     1      -2.573  -0.722   1.109  0.00  0.00    +0.161 C 
BRANCH  27  28
ATOM     28  C   UNL     1      -3.947  -0.525   1.694  0.00  0.00    +0.234 C 
ATOM     29  O   UNL     1      -4.617  -1.486   2.007  0.00  0.00    -0.274 OA
ATOM     30  N   UNL     1      -4.432   0.720   1.871  0.00  0.00    -0.309 N 
ATOM     31  H   UNL     1      -3.873   1.490   1.683  0.00  0.00    +0.149 HD
BRANCH  30  32
ATOM     32  C   UNL     1      -5.805   0.911   2.347  0.00  0.00    +0.026 C 
ATOM     33  C   UNL     1      -5.964   0.254   3.720  0.00  0.00    +0.031 C 
ATOM     34  C   UNL     1      -6.102   2.408   2.461  0.00  0.00    +0.031 C 
ATOM     35  C   UNL     1      -6.781   0.271   1.359  0.00  0.00    +0.031 C 
ENDBRANCH  30  32
ENDBRANCH  27  28
BRANCH  27  37
ATOM     36  C   UNL     1      -1.218  -0.629  -0.988  0.00  0.00    +0.009 C 
ATOM     37  C   UNL     1      -2.625  -0.496  -0.403  0.00  0.00    +0.012 C 
ATOM     38  C   UNL     1      -3.543  -1.540  -1.043  0.00  0.00    +0.009 C 
ENDBRANCH  27  37
ENDBRANCH  23  27
ENDBRANCH   1  24
TORSDOF 6
