REMARK  Name = ZINC34261508
REMARK  11 active torsions:
REMARK  status: ('A' for Active; 'I' for Inactive)
REMARK    1  A    between atoms: C_1  and  C_2
REMARK    2  A    between atoms: C_2  and  C_3
REMARK    3  A    between atoms: C_2  and  C_4
REMARK    4  A    between atoms: C_2  and  N_5
REMARK    5  A    between atoms: C_10  and  C_29
REMARK    6  A    between atoms: N_12  and  C_18
REMARK    7  A    between atoms: C_18  and  C_19
REMARK    8  A    between atoms: C_22  and  C_25
REMARK    9  A    between atoms: C_25  and  C_26
REMARK   10  A    between atoms: C_33  and  O_35
REMARK   11  A    between atoms: O_35  and  C_36
REMARK                            x       y       z     vdW  Elec       q    Type
REMARK                         _______ _______ _______ _____ _____    ______ ____
ROOT
ATOM      1  N   UNL     1       0.688  -0.476  -1.203  0.00  0.00    -0.234 N 
ATOM      2  C   UNL     1       0.866  -1.803  -1.505  0.00  0.00    +0.230 C 
ATOM      3  O   UNL     1       0.329  -2.758  -0.986  0.00  0.00    -0.275 OA
ATOM      4  C   UNL     1       1.833  -1.812  -2.579  0.00  0.00    +0.139 C 
ATOM      5  C   UNL     1       2.279  -2.699  -3.666  0.00  0.00    +0.130 C 
ATOM      6  N   UNL     1       2.913  -1.735  -4.629  0.00  0.00    -0.175 NA
ATOM      7  O   UNL     1       2.697  -0.366  -4.076  0.00  0.00    -0.283 OA
ATOM      8  C   UNL     1       1.451  -0.497  -3.366  0.00  0.00    +0.241 C 
ATOM      9  C   UNL     1       1.213   0.356  -2.149  0.00  0.00    +0.254 C 
ATOM     10  O   UNL     1       1.443   1.540  -2.033  0.00  0.00    -0.272 OA
ENDROOT
BRANCH   5  11
ATOM     11  C   UNL     1       3.286  -3.700  -3.162  0.00  0.00    -0.024 A 
ATOM     12  C   UNL     1       4.606  -3.324  -2.989  0.00  0.00    +0.005 A 
ATOM     13  C   UNL     1       5.533  -4.240  -2.527  0.00  0.00    +0.004 A 
ATOM     14  C   UNL     1       5.143  -5.533  -2.237  0.00  0.00    +0.046 A 
ATOM     15  C   UNL     1       3.820  -5.912  -2.409  0.00  0.00    +0.130 A 
ATOM     16  C   UNL     1       2.890  -4.990  -2.868  0.00  0.00    +0.051 A 
BRANCH  15  17
ATOM     17  O   UNL     1       3.433  -7.184  -2.125  0.00  0.00    -0.406 OA
BRANCH  17  18
ATOM     18  C   UNL     1       4.442  -8.078  -1.651  0.00  0.00    +0.575 C 
ATOM     19  F   UNL     1       4.990  -7.577  -0.466  0.00  0.00    -0.133 F 
ATOM     20  F   UNL     1       3.876  -9.334  -1.409  0.00  0.00    -0.133 F 
ATOM     21  F   UNL     1       5.449  -8.198  -2.616  0.00  0.00    -0.133 F 
ENDBRANCH  17  18
ENDBRANCH  15  17
ENDBRANCH   5  11
BRANCH   1  23
ATOM     22  C   UNL     1      -0.019   1.526   0.010  0.00  0.00    +0.031 C 
ATOM     23  C   UNL     1       0.002  -0.004   0.002  0.00  0.00    +0.036 C 
ATOM     24  C   UNL     1       0.742  -0.511   1.242  0.00  0.00    +0.031 C 
ATOM     25  C   UNL     1      -1.433  -0.534   0.013  0.00  0.00    +0.031 C 
ENDBRANCH   1  23
BRANCH   6  26
ATOM     26  C   UNL     1       2.320  -1.861  -5.967  0.00  0.00    +0.150 C 
BRANCH  26  27
ATOM     27  C   UNL     1       3.135  -1.067  -6.955  0.00  0.00    -0.031 A 
ATOM     28  C   UNL     1       2.831   0.261  -7.193  0.00  0.00    +0.005 A 
ATOM     29  C   UNL     1       3.579   0.990  -8.098  0.00  0.00    +0.004 A 
ATOM     30  C   UNL     1       4.631   0.391  -8.766  0.00  0.00    -0.039 A 
ATOM     31  C   UNL     1       4.936  -0.936  -8.528  0.00  0.00    +0.004 A 
ATOM     32  C   UNL     1       4.191  -1.664  -7.619  0.00  0.00    +0.005 A 
BRANCH  30  33
ATOM     33  C   UNL     1       5.446   1.185  -9.754  0.00  0.00    +0.130 C 
BRANCH  33  34
ATOM     34  C   UNL     1       6.601   1.841  -9.041  0.00  0.00    +0.215 C 
ATOM     35  O   UNL     1       6.748   1.678  -7.849  0.00  0.00    -0.276 OA
ATOM     36  N   UNL     1       7.470   2.607  -9.730  0.00  0.00    -0.329 N 
ATOM     37  H   UNL     1       7.353   2.736 -10.684  0.00  0.00    +0.145 HD
ATOM     38  H   UNL     1       8.214   3.028  -9.271  0.00  0.00    +0.145 HD
ENDBRANCH  33  34
ENDBRANCH  30  33
ENDBRANCH  26  27
ENDBRANCH   6  26
TORSDOF 8
