REMARK  Name = ZINC39191217
REMARK  15 active torsions:
REMARK  status: ('A' for Active; 'I' for Inactive)
REMARK    1  A    between atoms: C_1  and  C_2
REMARK    2  A    between atoms: C_2  and  C_4
REMARK    3  A    between atoms: C_2  and  O_15
REMARK    4  A    between atoms: N_6  and  C_7
REMARK    5  A    between atoms: O_15  and  C_16
REMARK    6  A    between atoms: C_16  and  C_18
REMARK    7  A    between atoms: C_18  and  C_20
REMARK    8  A    between atoms: C_18  and  N_23
REMARK    9  A    between atoms: C_20  and  C_21
REMARK   10  A    between atoms: C_20  and  C_22
REMARK   11  A    between atoms: C_24  and  C_26
REMARK   12  A    between atoms: C_28  and  O_34
REMARK   13  A    between atoms: C_30  and  O_32
REMARK   14  A    between atoms: O_32  and  C_33
REMARK   15  A    between atoms: O_34  and  C_35
REMARK                            x       y       z     vdW  Elec       q    Type
REMARK                         _______ _______ _______ _____ _____    ______ ____
ROOT
ATOM      1  C   UNL     1       2.807  -1.126   2.243  0.00  0.00    +0.185 C 
ENDROOT
BRANCH   1   2
ATOM      2  N   UNL     1       4.220  -1.234   1.871  0.00  0.00    -0.298 N 
ATOM      3  C   UNL     1       5.175  -1.156   2.820  0.00  0.00    +0.245 C 
ATOM      4  O   UNL     1       4.863  -0.998   3.984  0.00  0.00    -0.270 OA
ATOM      5  H   UNL     1       4.469  -1.360   0.942  0.00  0.00    +0.150 HD
BRANCH   3   6
ATOM      6  C   UNL     1       6.601  -1.265   2.444  0.00  0.00    +0.044 A 
ATOM      7  C   UNL     1       6.961  -1.441   1.108  0.00  0.00    +0.059 A 
ATOM      8  C   UNL     1       8.298  -1.541   0.760  0.00  0.00    +0.124 A 
ATOM      9  C   UNL     1       9.278  -1.467   1.739  0.00  0.00    +0.091 A 
ATOM     10  C   UNL     1       8.925  -1.292   3.069  0.00  0.00    +0.124 A 
ATOM     11  C   UNL     1       7.590  -1.185   3.424  0.00  0.00    +0.059 A 
BRANCH  10  12
ATOM     12  O   UNL     1       9.889  -1.220   4.023  0.00  0.00    -0.495 OA
ATOM     13  C   UNL     1      11.245  -1.333   3.586  0.00  0.00    +0.277 C 
ENDBRANCH  10  12
BRANCH   8  14
ATOM     14  O   UNL     1       8.649  -1.713  -0.541  0.00  0.00    -0.495 OA
ATOM     15  C   UNL     1      10.046  -1.809  -0.829  0.00  0.00    +0.277 C 
ENDBRANCH   8  14
ENDBRANCH   3   6
ENDBRANCH   1   2
BRANCH   1  16
ATOM     16  C   UNL     1       2.287  -2.500   2.671  0.00  0.00    +0.014 C 
ATOM     17  C   UNL     1       0.811  -2.388   3.060  0.00  0.00    +0.009 C 
ATOM     18  C   UNL     1       2.435  -3.486   1.510  0.00  0.00    +0.009 C 
ENDBRANCH   1  16
BRANCH   1  19
ATOM     19  C   UNL     1       2.013  -0.634   1.061  0.00  0.00    +0.329 C 
ATOM     20  O   UNL     1       2.569  -0.397   0.016  0.00  0.00    -0.249 OA
BRANCH  19  21
ATOM     21  O   UNL     1       0.686  -0.459   1.171  0.00  0.00    -0.451 OA
BRANCH  21  23
ATOM     22  C   UNL     1      -0.035   1.540   0.020  0.00  0.00    +0.062 C 
ATOM     23  C   UNL     1      -0.004   0.011   0.011  0.00  0.00    +0.259 C 
BRANCH  23  24
ATOM     24  C   UNL     1      -1.414  -0.521   0.016  0.00  0.00    +0.258 C 
ATOM     25  O   UNL     1      -1.819  -1.155   0.966  0.00  0.00    -0.271 OA
ATOM     26  N   UNL     1      -2.225  -0.290  -1.036  0.00  0.00    -0.281 N 
ATOM     27  H   UNL     1      -1.923   0.271  -1.767  0.00  0.00    +0.155 HD
BRANCH  26  28
ATOM     28  C   UNL     1      -3.502  -0.862  -1.074  0.00  0.00    +0.053 A 
ATOM     29  C   UNL     1      -4.226  -1.025   0.100  0.00  0.00    +0.044 A 
ATOM     30  C   UNL     1      -5.487  -1.589   0.059  0.00  0.00    +0.043 A 
ATOM     31  C   UNL     1      -6.028  -1.992  -1.150  0.00  0.00    +0.021 A 
ATOM     32  C   UNL     1      -5.309  -1.832  -2.320  0.00  0.00    +0.023 A 
ATOM     33  C   UNL     1      -4.050  -1.263  -2.286  0.00  0.00    +0.062 A 
ATOM     34 CL   UNL     1      -3.151  -1.056  -3.757  0.00  0.00    -0.082 Cl
ATOM     35 CL   UNL     1      -6.393  -1.793   1.526  0.00  0.00    -0.083 Cl
ENDBRANCH  26  28
ENDBRANCH  23  24
ENDBRANCH  21  23
ENDBRANCH  19  21
ENDBRANCH   1  19
TORSDOF 10
