REMARK  Name = ZINC05819109
REMARK  4 active torsions:
REMARK  status: ('A' for Active; 'I' for Inactive)
REMARK    1  A    between atoms: C_4  and  N_21
REMARK    2  A    between atoms: C_5  and  C_7
REMARK    3  A    between atoms: C_7  and  S_8
REMARK    4  A    between atoms: S_8  and  C_9
REMARK                            x       y       z     vdW  Elec       q    Type
REMARK                         _______ _______ _______ _____ _____    ______ ____
ROOT
ATOM      1  C   UNL     1       0.959  -4.596   1.333  0.00  0.00    +0.170 A 
ATOM      2  N   UNL     1       0.828  -5.398   2.431  0.00  0.00    -0.301 N 
ATOM      3  H   UNL     1       0.742  -5.000   3.311  0.00  0.00    +0.171 HD
ATOM      4  C   UNL     1       0.817  -6.745   2.299  0.00  0.00    +0.260 A 
ATOM      5  O   UNL     1       0.700  -7.474   3.267  0.00  0.00    -0.267 OA
ATOM      6  C   UNL     1       0.949  -7.294   0.943  0.00  0.00    +0.065 A 
ATOM      7  C   UNL     1       0.948  -8.667   0.701  0.00  0.00    +0.015 A 
ATOM      8  C   UNL     1       1.074  -9.126  -0.582  0.00  0.00    +0.001 A 
ATOM      9  C   UNL     1       1.204  -8.239  -1.643  0.00  0.00    +0.002 A 
ATOM     10  C   UNL     1       1.208  -6.889  -1.434  0.00  0.00    +0.028 A 
ATOM     11  C   UNL     1       1.080  -6.389  -0.135  0.00  0.00    +0.079 A 
ATOM     12  N   UNL     1       1.074  -5.064   0.115  0.00  0.00    -0.223 NA
ENDROOT
BRANCH   1  13
ATOM     13  S   UNL     1       0.967  -2.849   1.566  0.00  0.00    -0.083 S 
BRANCH  13  14
ATOM     14  C   UNL     1       1.149  -2.184  -0.112  0.00  0.00    +0.114 C 
BRANCH  14  19
ATOM     15  C   UNL     1       0.006   1.414  -0.067  0.00  0.00    +0.000 A 
ATOM     16  C   UNL     1       1.210   2.084   0.046  0.00  0.00    +0.002 A 
ATOM     17  C   UNL     1       2.393   1.374   0.107  0.00  0.00    +0.033 A 
ATOM     18  C   UNL     1       2.374  -0.008   0.056  0.00  0.00    +0.130 A 
ATOM     19  C   UNL     1       1.170  -0.678  -0.055  0.00  0.00    -0.007 A 
ATOM     20  C   UNL     1      -0.014   0.033  -0.118  0.00  0.00    +0.007 A 
BRANCH  18  21
ATOM     21  N   UNL     1       3.642  -0.769   0.121  0.00  0.00    +0.057 N 
ATOM     22  O   UNL     1       3.688  -1.816   0.723  0.00  0.00    -0.126 OA
ATOM     23  O   UNL     1       4.631  -0.343  -0.428  0.00  0.00    -0.126 OA
ENDBRANCH  18  21
ENDBRANCH  14  19
ENDBRANCH  13  14
ENDBRANCH   1  13
TORSDOF 4
