REMARK  Name = ZINC46912825
REMARK  10 active torsions:
REMARK  status: ('A' for Active; 'I' for Inactive)
REMARK    1  A    between atoms: C_1  and  N_2
REMARK    2  A    between atoms: N_2  and  S_3
REMARK    3  A    between atoms: S_3  and  C_6
REMARK    4  A    between atoms: C_6  and  C_7
REMARK    5  A    between atoms: C_10  and  C_13
REMARK    6  A    between atoms: C_13  and  N_14
REMARK    7  A    between atoms: C_15  and  C_17
REMARK    8  A    between atoms: C_20  and  C_23
REMARK    9  A    between atoms: C_23  and  N_24
REMARK   10  A    between atoms: C_25  and  C_27
REMARK                            x       y       z     vdW  Elec       q    Type
REMARK                         _______ _______ _______ _____ _____    ______ ____
ROOT
ATOM      1  N   UNL     1      -7.484  -4.017  -0.741  0.00  0.00    -0.307 N 
ATOM      2  C   UNL     1      -8.604  -4.753  -0.608  0.00  0.00    +0.244 C 
ATOM      3  O   UNL     1      -9.437  -4.758  -1.494  0.00  0.00    -0.270 OA
ATOM      4  H   UNL     1      -6.819  -4.012  -0.034  0.00  0.00    +0.149 HD
ENDROOT
BRANCH   2   5
ATOM      5  C   UNL     1      -8.822  -5.554   0.615  0.00  0.00    +0.037 A 
ATOM      6  C   UNL     1      -7.871  -5.545   1.637  0.00  0.00    +0.013 A 
ATOM      7  C   UNL     1      -8.080  -6.295   2.776  0.00  0.00    +0.006 A 
ATOM      8  C   UNL     1      -9.229  -7.054   2.907  0.00  0.00    -0.030 A 
ATOM      9  C   UNL     1     -10.176  -7.067   1.898  0.00  0.00    +0.006 A 
ATOM     10  C   UNL     1      -9.982  -6.318   0.756  0.00  0.00    +0.013 A 
BRANCH   8  11
ATOM     11  C   UNL     1      -9.451  -7.871   4.154  0.00  0.00    +0.139 C 
BRANCH  11  12
ATOM     12  N   UNL     1     -10.165  -7.063   5.146  0.00  0.00    -0.307 N 
ATOM     13  C   UNL     1     -10.474  -7.590   6.348  0.00  0.00    +0.251 C 
ATOM     14  O   UNL     1     -10.161  -8.736   6.608  0.00  0.00    -0.270 OA
ATOM     15  H   UNL     1     -10.414  -6.149   4.939  0.00  0.00    +0.149 HD
BRANCH  13  16
ATOM     16  C   UNL     1     -11.188  -6.781   7.340  0.00  0.00    +0.074 A 
ATOM     17  C   UNL     1     -11.591  -7.126   8.622  0.00  0.00    +0.021 A 
ATOM     18  C   UNL     1     -12.249  -6.145   9.325  0.00  0.00    +0.008 A 
ATOM     19  C   UNL     1     -12.455  -4.940   8.738  0.00  0.00    +0.046 A 
ATOM     20  S   UNL     1     -11.757  -5.096   7.218  0.00  0.00    -0.092 S 
ENDBRANCH  13  16
ENDBRANCH  11  12
ENDBRANCH   8  11
ENDBRANCH   2   5
BRANCH   1  21
ATOM     21  C   UNL     1      -7.268  -3.223  -1.954  0.00  0.00    +0.139 C 
BRANCH  21  25
ATOM     22  C   UNL     1      -3.533  -1.169  -1.669  0.00  0.00    -0.025 A 
ATOM     23  C   UNL     1      -3.586  -2.433  -2.226  0.00  0.00    +0.005 A 
ATOM     24  C   UNL     1      -4.795  -3.098  -2.318  0.00  0.00    +0.005 A 
ATOM     25  C   UNL     1      -5.950  -2.499  -1.852  0.00  0.00    -0.030 A 
ATOM     26  C   UNL     1      -5.897  -1.235  -1.294  0.00  0.00    +0.005 A 
ATOM     27  C   UNL     1      -4.688  -0.572  -1.198  0.00  0.00    +0.005 A 
BRANCH  22  28
ATOM     28  C   UNL     1      -2.215  -0.445  -1.568  0.00  0.00    +0.220 C 
BRANCH  28  29
ATOM     29  S   UNL     1      -1.421  -0.852   0.011  0.00  0.00    +0.033 S 
ATOM     30  O   UNL     1      -1.029  -2.217   0.025  0.00  0.00    -0.158 OA
ATOM     31  O   UNL     1      -2.164  -0.300   1.089  0.00  0.00    -0.158 OA
BRANCH  29  33
ATOM     32  C   UNL     1      -0.018   1.461   0.010  0.00  0.00    +0.127 C 
ATOM     33  N   UNL     1       0.002  -0.004   0.002  0.00  0.00    -0.197 NA
ATOM     34  H   UNL     1       0.849  -0.478  -0.009  0.00  0.00    +0.147 HD
ENDBRANCH  29  33
ENDBRANCH  28  29
ENDBRANCH  22  28
ENDBRANCH  21  25
ENDBRANCH   1  21
TORSDOF 9
