REMARK  Name = ZINC13510595
REMARK  7 active torsions:
REMARK  status: ('A' for Active; 'I' for Inactive)
REMARK    1  A    between atoms: C_1  and  C_2
REMARK    2  A    between atoms: C_3  and  N_12
REMARK    3  A    between atoms: C_13  and  C_15
REMARK    4  A    between atoms: C_15  and  S_16
REMARK    5  A    between atoms: S_16  and  C_17
REMARK    6  A    between atoms: C_24  and  C_26
REMARK    7  A    between atoms: C_30  and  C_34
REMARK                            x       y       z     vdW  Elec       q    Type
REMARK                         _______ _______ _______ _____ _____    ______ ____
ROOT
ATOM      1  S   UNL     1      -1.505  -0.920   0.043  0.00  0.00    -0.096 S 
ENDROOT
BRANCH   1   2
ATOM      2  C   UNL     1       0.002  -0.007   0.039  0.00  0.00    +0.109 A 
ATOM      3  C   UNL     1       1.254  -0.684   0.034  0.00  0.00    +0.043 A 
ATOM      4  C   UNL     1       1.519  -2.123   0.031  0.00  0.00    -0.025 A 
ATOM      5  C   UNL     1       2.812  -2.507   0.028  0.00  0.00    -0.004 A 
ATOM      6  S   UNL     1       3.743  -0.999   0.028  0.00  0.00    -0.073 S 
ATOM      7  C   UNL     1       2.391   0.149   0.032  0.00  0.00    +0.113 A 
ATOM      8  N   UNL     1       2.283   1.464   0.034  0.00  0.00    -0.225 NA
ATOM      9  C   UNL     1       1.093   2.034   0.038  0.00  0.00    +0.135 A 
ATOM     10  N   UNL     1      -0.015   1.316   0.040  0.00  0.00    -0.225 NA
ATOM     11  C   UNL     1       3.342  -3.909   0.023  0.00  0.00    +0.046 C 
ATOM     12  C   UNL     1       2.197  -4.859  -0.354  0.00  0.00    -0.009 C 
ATOM     13  C   UNL     1       0.967  -4.503   0.486  0.00  0.00    +0.008 C 
ATOM     14  C   UNL     1       0.398  -3.159   0.031  0.00  0.00    +0.037 C 
ATOM     15  C   UNL     1       2.613  -6.304  -0.068  0.00  0.00    +0.008 C 
BRANCH   9  16
ATOM     16  C   UNL     1       0.997   3.538   0.040  0.00  0.00    +0.057 C 
ATOM     17  C   UNL     1      -0.386   4.158   0.251  0.00  0.00    +0.012 C 
ATOM     18  C   UNL     1       0.270   4.201  -1.131  0.00  0.00    +0.012 C 
ENDBRANCH   9  16
ENDBRANCH   1   2
BRANCH   1  19
ATOM     19  C   UNL     1      -2.697   0.442   0.048  0.00  0.00    +0.171 C 
BRANCH  19  21
ATOM     20  N   UNL     1      -5.155   0.719   0.057  0.00  0.00    -0.279 N 
ATOM     21  C   UNL     1      -4.098  -0.116   0.052  0.00  0.00    +0.228 C 
ATOM     22  O   UNL     1      -4.272  -1.316   0.051  0.00  0.00    -0.275 OA
ATOM     23  H   UNL     1      -5.017   1.677   0.126  0.00  0.00    +0.155 HD
BRANCH  20  26
ATOM     24  C   UNL     1      -6.779   1.529  -2.112  0.00  0.00    +0.065 C 
ATOM     25  C   UNL     1      -7.269   0.565  -1.063  0.00  0.00    +0.044 A 
ATOM     26  C   UNL     1      -6.460   0.202  -0.040  0.00  0.00    +0.118 A 
ATOM     27  C   UNL     1      -6.950  -0.704   0.939  0.00  0.00    +0.276 A 
ATOM     28  O   UNL     1      -6.244  -1.043   1.871  0.00  0.00    -0.266 OA
ATOM     29  N   UNL     1      -8.204  -1.185   0.825  0.00  0.00    -0.274 N 
ATOM     30  H   UNL     1      -8.556  -1.824   1.509  0.00  0.00    +0.173 HD
ATOM     31  C   UNL     1      -8.985  -0.811  -0.206  0.00  0.00    +0.327 A 
ATOM     32  O   UNL     1     -10.114  -1.255  -0.292  0.00  0.00    -0.247 OA
ATOM     33  N   UNL     1      -8.537   0.046  -1.140  0.00  0.00    -0.310 N 
ATOM     34  H   UNL     1      -9.133   0.307  -1.899  0.00  0.00    +0.170 HD
ENDBRANCH  20  26
ENDBRANCH  19  21
ENDBRANCH   1  19
TORSDOF 5
