REMARK  Name = ZINC33045394
REMARK  12 active torsions:
REMARK  status: ('A' for Active; 'I' for Inactive)
REMARK    1  A    between atoms: C_1  and  C_2
REMARK    2  A    between atoms: C_2  and  O_3
REMARK    3  A    between atoms: O_3  and  C_4
REMARK    4  A    between atoms: C_4  and  C_6
REMARK    5  A    between atoms: C_9  and  N_12
REMARK    6  A    between atoms: C_13  and  C_15
REMARK    7  A    between atoms: C_15  and  N_16
REMARK    8  A    between atoms: N_19  and  C_23
REMARK    9  A    between atoms: C_23  and  C_24
REMARK   10  A    between atoms: C_25  and  C_32
REMARK   11  A    between atoms: C_27  and  C_31
REMARK   12  A    between atoms: C_29  and  C_30
REMARK                            x       y       z     vdW  Elec       q    Type
REMARK                         _______ _______ _______ _____ _____    ______ ____
ROOT
ATOM      1  N   UNL     1      -0.872   2.403  -1.095  0.00  0.00    +0.446 N 
ATOM      2  C   UNL     1      -1.550   1.197  -1.599  0.00  0.00    -0.026 C 
ATOM      3  C   UNL     1      -2.186   1.508  -2.960  0.00  0.00    +0.092 C 
ATOM      4  N   UNL     1      -1.302   2.452  -3.672  0.00  0.00    -0.191 NA
ATOM      5  S   UNL     1      -0.605   3.349  -2.446  0.00  0.00    +0.016 S 
ATOM      6  O   UNL     1      -1.380   4.530  -2.294  0.00  0.00    -0.173 OA
ATOM      7  O   UNL     1       0.797   3.367  -2.678  0.00  0.00    -0.173 OA
ATOM      8  H   UNL     1      -0.770   2.305  -0.004  0.00  0.00    -0.043 HD
ENDROOT
BRANCH   1   9
ATOM      9  C   UNL     1      -0.506   2.705   0.291  0.00  0.00    +0.054 C 
BRANCH   9  11
ATOM     10  N   UNL     1      -1.575   3.696   2.289  0.00  0.00    -0.287 N 
ATOM     11  C   UNL     1      -1.681   3.332   0.996  0.00  0.00    +0.204 C 
ATOM     12  O   UNL     1      -2.722   3.508   0.400  0.00  0.00    -0.277 OA
ATOM     13  H   UNL     1      -0.616   3.583   2.816  0.00  0.00    +0.155 HD
BRANCH  10  17
ATOM     14  C   UNL     1      -4.881   5.247   4.294  0.00  0.00    +0.059 A 
ATOM     15  C   UNL     1      -3.964   4.439   4.974  0.00  0.00    +0.017 A 
ATOM     16  C   UNL     1      -2.873   3.929   4.309  0.00  0.00    +0.024 A 
ATOM     17  C   UNL     1      -2.682   4.215   2.960  0.00  0.00    +0.033 A 
ATOM     18  C   UNL     1      -3.589   5.022   2.281  0.00  0.00    +0.024 A 
ATOM     19  C   UNL     1      -4.685   5.532   2.939  0.00  0.00    +0.017 A 
BRANCH  14  20
ATOM     20  C   UNL     1      -6.051   5.796   5.004  0.00  0.00    +0.339 C 
ATOM     21  O   UNL     1      -6.220   5.546   6.181  0.00  0.00    -0.245 OA
BRANCH  20  22
ATOM     22  O   UNL     1      -6.933   6.574   4.347  0.00  0.00    -0.461 OA
BRANCH  22  24
ATOM     23  C   UNL     1      -8.947   7.935   4.201  0.00  0.00    +0.048 C 
ATOM     24  C   UNL     1      -8.062   7.079   5.108  0.00  0.00    +0.229 C 
ENDBRANCH  22  24
ENDBRANCH  20  22
ENDBRANCH  14  20
ENDBRANCH  10  17
ENDBRANCH   9  11
ENDBRANCH   1   9
BRANCH   4  25
ATOM     25  C   UNL     1      -1.087   2.574  -5.116  0.00  0.00    +0.142 C 
BRANCH  25  26
ATOM     26  C   UNL     1      -0.444   1.315  -5.636  0.00  0.00    -0.026 A 
ATOM     27  C   UNL     1       0.933   1.194  -5.643  0.00  0.00    -0.045 A 
ATOM     28  C   UNL     1       1.524   0.037  -6.117  0.00  0.00    +0.007 A 
ATOM     29  C   UNL     1       0.737  -0.996  -6.591  0.00  0.00    -0.050 A 
ATOM     30  C   UNL     1      -0.640  -0.873  -6.589  0.00  0.00    +0.007 A 
ATOM     31  C   UNL     1      -1.230   0.282  -6.112  0.00  0.00    -0.045 A 
ATOM     32  C   UNL     1      -2.731   0.416  -6.109  0.00  0.00    +0.044 C 
ATOM     33  C   UNL     1       1.380  -2.256  -7.110  0.00  0.00    +0.044 C 
ATOM     34  C   UNL     1       1.791   2.322  -5.131  0.00  0.00    +0.044 C 
ENDBRANCH  25  26
ENDBRANCH   4  25
TORSDOF 8
