REMARK  Name = ZINC47534975
REMARK  9 active torsions:
REMARK  status: ('A' for Active; 'I' for Inactive)
REMARK    1  A    between atoms: C_1  and  C_2
REMARK    2  A    between atoms: C_2  and  C_4
REMARK    3  A    between atoms: C_2  and  N_16
REMARK    4  A    between atoms: C_17  and  C_19
REMARK    5  A    between atoms: C_20  and  C_21
REMARK    6  A    between atoms: C_23  and  O_29
REMARK    7  A    between atoms: C_25  and  O_27
REMARK    8  A    between atoms: O_27  and  C_28
REMARK    9  A    between atoms: O_29  and  C_30
REMARK                            x       y       z     vdW  Elec       q    Type
REMARK                         _______ _______ _______ _____ _____    ______ ____
ROOT
ATOM      1  N   UNL     1       0.837   0.084   1.374  0.00  0.00    -0.305 N 
ATOM      2  C   UNL     1       0.211  -0.069   2.558  0.00  0.00    +0.237 C 
ATOM      3  O   UNL     1      -0.853   0.485   2.761  0.00  0.00    -0.271 OA
ATOM      4  H   UNL     1       1.685  -0.358   1.213  0.00  0.00    +0.150 HD
ENDROOT
BRANCH   1   6
ATOM      5  C   UNL     1       0.625   2.381   0.560  0.00  0.00    +0.033 C 
ATOM      6  C   UNL     1       0.236   0.919   0.331  0.00  0.00    +0.100 C 
BRANCH   6   7
ATOM      7  C   UNL     1       0.734   0.472  -1.019  0.00  0.00    -0.025 A 
ATOM      8  C   UNL     1       2.059   0.103  -1.178  0.00  0.00    +0.007 A 
ATOM      9  C   UNL     1       2.525  -0.308  -2.411  0.00  0.00    +0.028 A 
ATOM     10  C   UNL     1       1.661  -0.352  -3.495  0.00  0.00    +0.067 A 
ATOM     11  C   UNL     1       0.325   0.020  -3.336  0.00  0.00    +0.067 A 
ATOM     12  C   UNL     1      -0.135   0.426  -2.092  0.00  0.00    +0.033 A 
ATOM     13  N   UNL     1      -0.285  -0.126  -4.579  0.00  0.00    -0.306 N 
ATOM     14  H   UNL     1      -1.216   0.058  -4.780  0.00  0.00    +0.170 HD
ATOM     15  C   UNL     1       0.638  -0.566  -5.455  0.00  0.00    +0.325 A 
ATOM     16  O   UNL     1       0.433  -0.797  -6.632  0.00  0.00    -0.247 OA
ATOM     17  N   UNL     1       1.822  -0.712  -4.831  0.00  0.00    -0.306 N 
ATOM     18  H   UNL     1       2.647  -1.016  -5.242  0.00  0.00    +0.170 HD
ENDBRANCH   6   7
ENDBRANCH   1   6
BRANCH   2  19
ATOM     19  C   UNL     1       0.812  -0.903   3.601  0.00  0.00    +0.068 C 
ATOM     20  C   UNL     1       0.127  -1.167   4.731  0.00  0.00    +0.013 C 
BRANCH  20  21
ATOM     21  C   UNL     1      -1.305  -0.838   4.818  0.00  0.00    -0.018 A 
ATOM     22  C   UNL     1      -2.168  -1.183   3.773  0.00  0.00    +0.053 A 
ATOM     23  C   UNL     1      -3.514  -0.871   3.860  0.00  0.00    +0.124 A 
ATOM     24  C   UNL     1      -4.007  -0.217   4.981  0.00  0.00    +0.091 A 
ATOM     25  C   UNL     1      -3.155   0.127   6.020  0.00  0.00    +0.124 A 
ATOM     26  C   UNL     1      -1.808  -0.185   5.947  0.00  0.00    +0.053 A 
BRANCH  25  27
ATOM     27  O   UNL     1      -3.644   0.768   7.115  0.00  0.00    -0.495 OA
ATOM     28  C   UNL     1      -5.044   1.054   7.127  0.00  0.00    +0.277 C 
ENDBRANCH  25  27
BRANCH  23  29
ATOM     29  O   UNL     1      -4.355  -1.205   2.845  0.00  0.00    -0.495 OA
ATOM     30  C   UNL     1      -5.731  -0.854   3.001  0.00  0.00    +0.277 C 
ENDBRANCH  23  29
ENDBRANCH  20  21
ENDBRANCH   2  19
TORSDOF 6
