REMARK  Name = ZINC66160941
REMARK  10 active torsions:
REMARK  status: ('A' for Active; 'I' for Inactive)
REMARK    1  A    between atoms: C_1  and  C_2
REMARK    2  A    between atoms: C_2  and  C_3
REMARK    3  A    between atoms: C_3  and  C_4
REMARK    4  A    between atoms: C_3  and  C_5
REMARK    5  A    between atoms: C_3  and  O_27
REMARK    6  A    between atoms: C_5  and  N_6
REMARK    7  A    between atoms: N_9  and  C_10
REMARK    8  A    between atoms: C_13  and  N_16
REMARK    9  A    between atoms: N_16  and  C_17
REMARK   10  A    between atoms: C_18  and  C_20
REMARK                            x       y       z     vdW  Elec       q    Type
REMARK                         _______ _______ _______ _____ _____    ______ ____
ROOT
ATOM      1  C   UNL     1      -4.530  -5.621  -0.436  0.00  0.00    +0.035 A 
ATOM      2  C   UNL     1      -3.423  -6.413  -0.710  0.00  0.00    +0.025 A 
ATOM      3  C   UNL     1      -3.535  -7.789  -0.683  0.00  0.00    +0.025 A 
ATOM      4  C   UNL     1      -4.755  -8.380  -0.382  0.00  0.00    +0.036 A 
ATOM      5  C   UNL     1      -5.862  -7.588  -0.108  0.00  0.00    +0.025 A 
ATOM      6  C   UNL     1      -5.749  -6.212  -0.130  0.00  0.00    +0.025 A 
ENDROOT
BRANCH   1  10
ATOM      7  N   UNL     1      -4.939  -2.139   0.446  0.00  0.00    -0.296 N 
ATOM      8  C   UNL     1      -5.118  -3.474   0.409  0.00  0.00    +0.304 C 
ATOM      9  O   UNL     1      -5.912  -4.002   1.163  0.00  0.00    -0.253 OA
ATOM     10  N   UNL     1      -4.417  -4.225  -0.464  0.00  0.00    -0.269 N 
ATOM     11  H   UNL     1      -4.305  -1.718  -0.156  0.00  0.00    +0.150 HD
ATOM     12  H   UNL     1      -3.833  -3.798  -1.111  0.00  0.00    +0.156 HD
BRANCH   7  13
ATOM     13  C   UNL     1      -5.701  -1.323   1.394  0.00  0.00    +0.140 C 
BRANCH  13  14
ATOM     14  C   UNL     1      -5.311   0.147   1.230  0.00  0.00    +0.078 C 
ATOM     15  C   UNL     1      -3.796   0.293   1.380  0.00  0.00    +0.043 C 
BRANCH  14  17
ATOM     16  C   UNL     1      -5.623   2.454   2.139  0.00  0.00    +0.007 C 
ATOM     17  C   UNL     1      -6.013   0.983   2.303  0.00  0.00    +0.032 C 
ENDBRANCH  14  17
BRANCH  14  18
ATOM     18  O   UNL     1      -5.708   0.604  -0.065  0.00  0.00    -0.387 OA
ATOM     19  H   UNL     1      -6.659   0.540  -0.230  0.00  0.00    +0.210 HD
ENDBRANCH  14  18
ENDBRANCH  13  14
ENDBRANCH   7  13
ENDBRANCH   1  10
BRANCH   4  20
ATOM     20  N   UNL     1      -4.868  -9.776  -0.355  0.00  0.00    -0.271 N 
ATOM     21  C   UNL     1      -3.672 -10.611  -0.488  0.00  0.00    +0.138 C 
ATOM     22  C   UNL     1      -6.079 -10.351  -0.207  0.00  0.00    +0.251 C 
ATOM     23  O   UNL     1      -7.081  -9.663  -0.202  0.00  0.00    -0.270 OA
BRANCH  22  24
ATOM     24  C   UNL     1      -6.186 -11.816  -0.052  0.00  0.00    +0.037 A 
ATOM     25  C   UNL     1      -5.091 -12.556   0.398  0.00  0.00    +0.014 A 
ATOM     26  C   UNL     1      -5.198 -13.923   0.541  0.00  0.00    +0.021 A 
ATOM     27  C   UNL     1      -6.388 -14.563   0.239  0.00  0.00    +0.041 A 
ATOM     28  C   UNL     1      -7.478 -13.835  -0.208  0.00  0.00    +0.021 A 
ATOM     29  C   UNL     1      -7.386 -12.466  -0.350  0.00  0.00    +0.014 A 
ATOM     30 CL   UNL     1      -6.515 -16.285   0.420  0.00  0.00    -0.084 Cl
ENDBRANCH  22  24
ENDBRANCH   4  20
TORSDOF 7
