REMARK  Name = ZINC39732184
REMARK  11 active torsions:
REMARK  status: ('A' for Active; 'I' for Inactive)
REMARK    1  A    between atoms: C_1  and  C_2
REMARK    2  A    between atoms: C_2  and  C_3
REMARK    3  A    between atoms: C_10  and  S_13
REMARK    4  A    between atoms: S_13  and  C_14
REMARK    5  A    between atoms: C_14  and  C_16
REMARK    6  A    between atoms: C_14  and  C_17
REMARK    7  A    between atoms: N_19  and  C_20
REMARK    8  A    between atoms: C_22  and  C_30
REMARK    9  A    between atoms: C_30  and  O_32
REMARK   10  A    between atoms: O_32  and  C_33
REMARK   11  A    between atoms: C_33  and  C_34
REMARK                            x       y       z     vdW  Elec       q    Type
REMARK                         _______ _______ _______ _____ _____    ______ ____
ROOT
ATOM      1  C   UNL     1       4.421   0.967  -3.410  0.00  0.00    +0.227 C 
ATOM      2  O   UNL     1       3.376   0.979  -4.025  0.00  0.00    -0.275 OA
ATOM      3  N   UNL     1       5.527   1.514  -3.951  0.00  0.00    -0.301 N 
ATOM      4  H   UNL     1       6.363   1.505  -3.459  0.00  0.00    +0.150 HD
ENDROOT
BRANCH   3   5
ATOM      5  C   UNL     1       5.467   2.123  -5.282  0.00  0.00    +0.153 C 
ATOM      6  C   UNL     1       6.094   3.536  -5.288  0.00  0.00    +0.155 C 
ATOM      7  C   UNL     1       5.052   4.609  -5.035  0.00  0.00    -0.044 C 
ATOM      8  C   UNL     1       3.785   4.288  -5.228  0.00  0.00    -0.013 C 
ATOM      9  S   UNL     1       3.744   2.579  -5.740  0.00  0.00    -0.106 S 
ATOM     10  C   UNL     1       2.853   5.444  -4.953  0.00  0.00    +0.042 C 
ATOM     11  C   UNL     1       3.698   6.431  -4.120  0.00  0.00    +0.009 C 
ATOM     12  C   UNL     1       5.124   6.072  -4.582  0.00  0.00    +0.033 C 
BRANCH   6  13
ATOM     13  C   UNL     1       7.148   3.612  -4.214  0.00  0.00    +0.317 C 
ATOM     14  O   UNL     1       7.030   4.401  -3.307  0.00  0.00    -0.250 OA
BRANCH  13  15
ATOM     15  O   UNL     1       8.218   2.803  -4.265  0.00  0.00    -0.464 OA
BRANCH  15  16
ATOM     16  C   UNL     1       9.177   2.930  -3.214  0.00  0.00    +0.229 C 
ATOM     17  C   UNL     1      10.317   1.934  -3.441  0.00  0.00    +0.048 C 
ENDBRANCH  15  16
ENDBRANCH  13  15
ENDBRANCH   6  13
ENDBRANCH   3   5
BRANCH   1  18
ATOM     18  C   UNL     1       4.482   0.341  -2.041  0.00  0.00    +0.137 C 
ATOM     19  C   UNL     1       5.078  -1.065  -2.149  0.00  0.00    +0.029 C 
BRANCH  18  20
ATOM     20  S   UNL     1       2.809   0.236  -1.348  0.00  0.00    -0.073 S 
BRANCH  20  28
ATOM     21  C   UNL     1       0.731  -0.503   1.223  0.00  0.00    +0.034 A 
ATOM     22  C   UNL     1       0.047  -0.848   2.336  0.00  0.00    +0.094 A 
ATOM     23  C   UNL     1       0.752  -1.313   3.467  0.00  0.00    +0.275 A 
ATOM     24  O   UNL     1       0.075  -1.661   4.587  0.00  0.00    -0.266 OA
ATOM     25  N   UNL     1       2.065  -1.410   3.439  0.00  0.00    -0.172 NA
ATOM     26  C   UNL     1       2.755  -1.071   2.340  0.00  0.00    +0.260 A 
ATOM     27  N   UNL     1       2.093  -0.619   1.218  0.00  0.00    -0.259 N 
ATOM     28  C   UNL     1       3.062  -0.369   0.287  0.00  0.00    +0.198 A 
ATOM     29  N   UNL     1       4.215  -0.666   0.839  0.00  0.00    -0.120 NA
ATOM     30  N   UNL     1       4.042  -1.071   2.047  0.00  0.00    -0.107 NA
BRANCH  21  32
ATOM     31  C   UNL     1      -0.019   1.526   0.010  0.00  0.00    +0.010 C 
ATOM     32  C   UNL     1       0.002  -0.004   0.002  0.00  0.00    +0.051 C 
ENDBRANCH  21  32
ENDBRANCH  20  28
ENDBRANCH  18  20
ENDBRANCH   1  18
TORSDOF 8
