REMARK  Name = ZINC67234503
REMARK  10 active torsions:
REMARK  status: ('A' for Active; 'I' for Inactive)
REMARK    1  A    between atoms: C_1  and  C_2
REMARK    2  A    between atoms: C_7  and  C_10
REMARK    3  A    between atoms: C_16  and  C_18
REMARK    4  A    between atoms: C_18  and  C_20
REMARK    5  A    between atoms: C_18  and  N_21
REMARK    6  A    between atoms: C_22  and  O_24
REMARK    7  A    between atoms: O_24  and  C_25
REMARK    8  A    between atoms: C_25  and  C_26
REMARK    9  A    between atoms: C_25  and  C_27
REMARK   10  A    between atoms: C_25  and  C_28
REMARK                            x       y       z     vdW  Elec       q    Type
REMARK                         _______ _______ _______ _____ _____    ______ ____
ROOT
ATOM      1  C   UNL     1      -0.104   1.561  -0.878  0.00  0.00    +0.039 C 
ATOM      2  C   UNL     1      -0.048   0.034  -0.805  0.00  0.00    +0.133 C 
ATOM      3  C   UNL     1      -1.409  -0.508  -0.354  0.00  0.00    +0.139 C 
ATOM      4  N   UNL     1      -1.277  -1.953  -0.112  0.00  0.00    -0.295 N 
ATOM      5  C   UNL     1      -0.173  -2.412   0.747  0.00  0.00    +0.144 C 
ATOM      6  C   UNL     1       1.128  -1.777   0.242  0.00  0.00    +0.166 C 
ATOM      7  O   UNL     1       0.952  -0.362   0.136  0.00  0.00    -0.366 OA
ATOM      8  C   UNL     1      -2.140  -2.831  -0.660  0.00  0.00    +0.236 C 
ATOM      9  O   UNL     1      -3.097  -2.429  -1.287  0.00  0.00    -0.274 OA
ENDROOT
BRANCH   6  10
ATOM     10  C   UNL     1       2.242  -2.076   1.212  0.00  0.00    -0.017 A 
ATOM     11  C   UNL     1       2.366  -1.335   2.372  0.00  0.00    +0.006 A 
ATOM     12  C   UNL     1       3.388  -1.608   3.262  0.00  0.00    +0.000 A 
ATOM     13  C   UNL     1       4.287  -2.623   2.991  0.00  0.00    +0.000 A 
ATOM     14  C   UNL     1       4.162  -3.365   1.831  0.00  0.00    +0.000 A 
ATOM     15  C   UNL     1       3.138  -3.094   0.944  0.00  0.00    +0.006 A 
ENDBRANCH   6  10
BRANCH   8  16
ATOM     16  C   UNL     1      -1.917  -4.312  -0.493  0.00  0.00    +0.159 C 
ATOM     17  C   UNL     1      -2.470  -4.761   0.861  0.00  0.00    +0.038 C 
BRANCH  16  18
ATOM     18  N   UNL     1      -2.606  -5.033  -1.566  0.00  0.00    -0.270 N 
ATOM     19  C   UNL     1      -2.176  -6.254  -1.941  0.00  0.00    +0.401 C 
ATOM     20  O   UNL     1      -1.217  -6.756  -1.390  0.00  0.00    -0.226 OA
ATOM     21  H   UNL     1      -3.372  -4.632  -2.006  0.00  0.00    +0.153 HD
BRANCH  19  22
ATOM     22  O   UNL     1      -2.809  -6.917  -2.927  0.00  0.00    -0.445 OA
BRANCH  22  23
ATOM     23  C   UNL     1      -2.299  -8.207  -3.273  0.00  0.00    +0.107 C 
ATOM     24  C   UNL     1      -2.364  -9.126  -2.052  0.00  0.00    +0.055 C 
ATOM     25  C   UNL     1      -3.141  -8.801  -4.404  0.00  0.00    +0.055 C 
ATOM     26  C   UNL     1      -0.847  -8.073  -3.734  0.00  0.00    +0.055 C 
ENDBRANCH  22  23
ENDBRANCH  19  22
ENDBRANCH  16  18
ENDBRANCH   8  16
TORSDOF 5
