REMARK  Name = ZINC10021635
REMARK  8 active torsions:
REMARK  status: ('A' for Active; 'I' for Inactive)
REMARK    1  A    between atoms: C_3  and  N_10
REMARK    2  A    between atoms: C_5  and  C_6
REMARK    3  A    between atoms: C_13  and  C_16
REMARK    4  A    between atoms: C_16  and  O_18
REMARK    5  A    between atoms: O_18  and  C_19
REMARK    6  A    between atoms: C_19  and  C_20
REMARK    7  A    between atoms: N_22  and  C_23
REMARK    8  A    between atoms: C_24  and  C_28
REMARK                            x       y       z     vdW  Elec       q    Type
REMARK                         _______ _______ _______ _____ _____    ______ ____
ROOT
ATOM      1  C   UNL     1      -5.368   3.731   7.886  0.00  0.00    +0.311 C 
ATOM      2  O   UNL     1      -5.935   4.792   7.767  0.00  0.00    -0.251 OA
ENDROOT
BRANCH   1   6
ATOM      3  N   UNL     1      -2.769   3.205   4.561  0.00  0.00    -0.317 N 
ATOM      4  C   UNL     1      -2.551   2.320   5.712  0.00  0.00    +0.107 C 
ATOM      5  C   UNL     1      -3.216   2.919   6.953  0.00  0.00    +0.033 C 
ATOM      6  C   UNL     1      -4.716   3.086   6.691  0.00  0.00    +0.101 C 
ATOM      7  C   UNL     1      -4.915   3.974   5.459  0.00  0.00    +0.033 C 
ATOM      8  C   UNL     1      -4.200   3.343   4.262  0.00  0.00    +0.107 C 
BRANCH   3  11
ATOM      9  C   UNL     1      -0.007   2.118   2.416  0.00  0.00    +0.017 A 
ATOM     10  C   UNL     1      -0.693   2.563   3.532  0.00  0.00    +0.042 A 
ATOM     11  C   UNL     1      -2.068   2.757   3.448  0.00  0.00    +0.099 A 
ATOM     12  C   UNL     1      -2.085   2.100   1.236  0.00  0.00    +0.096 A 
ATOM     13  C   UNL     1      -0.722   1.881   1.250  0.00  0.00    +0.071 A 
ATOM     14  N   UNL     1      -2.792   2.531   2.314  0.00  0.00    -0.349 N 
ATOM     15  H   UNL     1      -3.808   2.678   2.278  0.00  0.00    +0.167 HD
BRANCH  13  16
ATOM     16  C   UNL     1      -0.017   1.395   0.010  0.00  0.00    +0.419 C 
ATOM     17  F   UNL     1       0.002  -0.004   0.002  0.00  0.00    -0.166 F 
ATOM     18  F   UNL     1       1.296   1.879  -0.000  0.00  0.00    -0.166 F 
ATOM     19  F   UNL     1      -0.694   1.858  -1.124  0.00  0.00    -0.166 F 
ENDBRANCH  13  16
ENDBRANCH   3  11
ENDBRANCH   1   6
BRANCH   1  20
ATOM     20  O   UNL     1      -5.320   3.127   9.084  0.00  0.00    -0.455 OA
BRANCH  20  21
ATOM     21  C   UNL     1      -5.970   3.806  10.191  0.00  0.00    +0.328 C 
BRANCH  21  22
ATOM     22  C   UNL     1      -5.814   2.985  11.445  0.00  0.00    +0.255 C 
ATOM     23  O   UNL     1      -5.213   1.932  11.410  0.00  0.00    -0.272 OA
ATOM     24  N   UNL     1      -6.341   3.422  12.607  0.00  0.00    -0.277 N 
ATOM     25  H   UNL     1      -6.821   4.264  12.635  0.00  0.00    +0.155 HD
BRANCH  24  26
ATOM     26  C   UNL     1      -6.197   2.666  13.761  0.00  0.00    +0.084 A 
ATOM     27  C   UNL     1      -6.659   2.949  15.040  0.00  0.00    +0.065 A 
ATOM     28  C   UNL     1      -6.367   1.975  16.066  0.00  0.00    +0.022 A 
ATOM     29  C   UNL     1      -5.667   0.887  15.698  0.00  0.00    +0.048 A 
ATOM     30  S   UNL     1      -5.390   1.147  13.958  0.00  0.00    -0.081 S 
BRANCH  27  31
ATOM     31  C   UNL     1      -7.410   4.173  15.334  0.00  0.00    +0.244 C 
ATOM     32  O   UNL     1      -7.642   4.972  14.446  0.00  0.00    -0.270 OA
ATOM     33  N   UNL     1      -7.843   4.414  16.587  0.00  0.00    -0.325 N 
ATOM     34  H   UNL     1      -7.659   3.777  17.295  0.00  0.00    +0.145 HD
ATOM     35  H   UNL     1      -8.340   5.224  16.782  0.00  0.00    +0.145 HD
ENDBRANCH  27  31
ENDBRANCH  24  26
ENDBRANCH  21  22
ENDBRANCH  20  21
ENDBRANCH   1  20
TORSDOF 8
