REMARK  Name = ZINC39655946
REMARK  9 active torsions:
REMARK  status: ('A' for Active; 'I' for Inactive)
REMARK    1  A    between atoms: C_1  and  C_2
REMARK    2  A    between atoms: C_8  and  C_11
REMARK    3  A    between atoms: C_11  and  C_12
REMARK    4  A    between atoms: C_12  and  N_13
REMARK    5  A    between atoms: C_14  and  C_16
REMARK    6  A    between atoms: C_27  and  C_29
REMARK    7  A    between atoms: C_29  and  C_31
REMARK    8  A    between atoms: C_29  and  O_32
REMARK    9  A    between atoms: O_32  and  C_33
REMARK                            x       y       z     vdW  Elec       q    Type
REMARK                         _______ _______ _______ _____ _____    ______ ____
ROOT
ATOM      1  C   UNL     1       4.604  -0.078  -7.502  0.00  0.00    +0.100 C 
ATOM      2  C   UNL     1       4.726   0.751  -8.799  0.00  0.00    +0.121 C 
ATOM      3  N   UNL     1       5.636  -0.037  -9.663  0.00  0.00    -0.297 N 
ATOM      4  C   UNL     1       5.236  -1.445  -9.432  0.00  0.00    +0.115 C 
ATOM      5  C   UNL     1       4.939  -1.519  -7.921  0.00  0.00    -0.004 C 
ATOM      6  C   UNL     1       3.747  -2.436  -7.663  0.00  0.00    -0.010 C 
ATOM      7  C   UNL     1       4.123  -3.873  -8.033  0.00  0.00    -0.082 C 
ATOM      8  N   UNL     1       5.277  -4.300  -7.231  0.00  0.00    +0.379 N 
ATOM      9  C   UNL     1       6.445  -3.472  -7.555  0.00  0.00    -0.082 C 
ATOM     10  C   UNL     1       6.166  -2.018  -7.164  0.00  0.00    -0.010 C 
ATOM     11  C   UNL     1       6.608   0.423 -10.475  0.00  0.00    +0.256 C 
ATOM     12  O   UNL     1       6.882   1.605 -10.485  0.00  0.00    -0.272 OA
ATOM     13  H   UNL     1       5.058  -4.203  -6.251  0.00  0.00    -0.086 HD
ATOM     14  H   UNL     1       5.485  -5.266  -7.433  0.00  0.00    -0.086 HD
ENDROOT
BRANCH   1  16
ATOM     15  N   UNL     1       2.962  -0.272  -5.661  0.00  0.00    -0.315 N 
ATOM     16  C   UNL     1       3.199  -0.002  -6.960  0.00  0.00    +0.218 C 
ATOM     17  O   UNL     1       2.282   0.302  -7.694  0.00  0.00    -0.275 OA
ATOM     18  H   UNL     1       3.696  -0.516  -5.075  0.00  0.00    +0.149 HD
BRANCH  15  19
ATOM     19  C   UNL     1       1.597  -0.199  -5.135  0.00  0.00    +0.109 C 
BRANCH  19  20
ATOM     20  C   UNL     1       1.605  -0.549  -3.646  0.00  0.00    +0.056 C 
BRANCH  20  28
ATOM     21  C   UNL     1      -1.977  -4.999  -4.076  0.00  0.00    +0.044 C 
ATOM     22  C   UNL     1      -1.958  -3.593  -3.534  0.00  0.00    -0.050 A 
ATOM     23  C   UNL     1      -3.091  -3.077  -2.920  0.00  0.00    +0.005 A 
ATOM     24  C   UNL     1      -3.096  -1.793  -2.419  0.00  0.00    +0.026 A 
ATOM     25  C   UNL     1      -1.955  -1.005  -2.527  0.00  0.00    +0.047 A 
ATOM     26  N   UNL     1      -1.651   0.280  -2.138  0.00  0.00    -0.360 N 
ATOM     27  C   UNL     1      -0.363   0.580  -2.490  0.00  0.00    +0.087 A 
ATOM     28  C   UNL     1       0.200  -0.473  -3.104  0.00  0.00    -0.021 A 
ATOM     29  C   UNL     1      -0.809  -1.533  -3.150  0.00  0.00    +0.003 A 
ATOM     30  C   UNL     1      -0.825  -2.838  -3.646  0.00  0.00    +0.013 A 
ATOM     31  H   UNL     1      -2.258   0.883  -1.682  0.00  0.00    +0.165 HD
ENDBRANCH  20  28
ENDBRANCH  19  20
ENDBRANCH  15  19
ENDBRANCH   1  16
BRANCH  11  32
ATOM     32  C   UNL     1       7.355  -0.530 -11.372  0.00  0.00    +0.256 C 
ATOM     33  C   UNL     1       6.414  -1.052 -12.459  0.00  0.00    +0.062 C 
BRANCH  32  34
ATOM     34  O   UNL     1       8.455   0.150 -11.980  0.00  0.00    -0.480 OA
BRANCH  34  35
ATOM     35  C   UNL     1       9.507  -0.612 -12.379  0.00  0.00    +0.122 A 
ATOM     36  C   UNL     1      10.659  -0.008 -12.862  0.00  0.00    +0.045 A 
ATOM     37  C   UNL     1      11.727  -0.784 -13.266  0.00  0.00    +0.004 A 
ATOM     38  C   UNL     1      11.649  -2.163 -13.191  0.00  0.00    +0.000 A 
ATOM     39  C   UNL     1      10.502  -2.767 -12.711  0.00  0.00    +0.004 A 
ATOM     40  C   UNL     1       9.434  -1.995 -12.299  0.00  0.00    +0.045 A 
ENDBRANCH  34  35
ENDBRANCH  32  34
ENDBRANCH  11  32
TORSDOF 7
