REMARK  Name = ZINC54446851
REMARK  10 active torsions:
REMARK  status: ('A' for Active; 'I' for Inactive)
REMARK    1  A    between atoms: C_1  and  C_2
REMARK    2  A    between atoms: C_2  and  O_3
REMARK    3  A    between atoms: O_3  and  C_4
REMARK    4  A    between atoms: C_7  and  N_11
REMARK    5  A    between atoms: N_14  and  C_15
REMARK    6  A    between atoms: C_15  and  C_17
REMARK    7  A    between atoms: C_15  and  C_18
REMARK    8  A    between atoms: C_21  and  S_24
REMARK    9  A    between atoms: S_24  and  N_27
REMARK   10  A    between atoms: N_27  and  C_28
REMARK                            x       y       z     vdW  Elec       q    Type
REMARK                         _______ _______ _______ _____ _____    ______ ____
ROOT
ATOM      1  N   UNL     1      -1.987  -5.992  -0.011  0.00  0.00    -0.269 N 
ATOM      2  C   UNL     1      -3.220  -6.527   0.094  0.00  0.00    +0.304 C 
ATOM      3  O   UNL     1      -4.197  -5.803   0.103  0.00  0.00    -0.252 OA
ATOM      4  N   UNL     1      -3.369  -7.863   0.189  0.00  0.00    -0.293 N 
ATOM      5  H   UNL     1      -1.212  -6.571  -0.086  0.00  0.00    +0.156 HD
ATOM      6  H   UNL     1      -2.590  -8.440   0.182  0.00  0.00    +0.151 HD
ENDROOT
BRANCH   1  10
ATOM      7  C   UNL     1      -1.500  -1.849  -0.016  0.00  0.00    +0.156 A 
ATOM      8  C   UNL     1      -0.548  -2.659   0.585  0.00  0.00    +0.050 A 
ATOM      9  C   UNL     1      -0.709  -4.031   0.587  0.00  0.00    +0.027 A 
ATOM     10  C   UNL     1      -1.825  -4.600  -0.013  0.00  0.00    +0.038 A 
ATOM     11  C   UNL     1      -2.778  -3.791  -0.614  0.00  0.00    +0.065 A 
ATOM     12  C   UNL     1      -2.619  -2.417  -0.611  0.00  0.00    +0.167 A 
ATOM     13  F   UNL     1      -3.550  -1.628  -1.192  0.00  0.00    -0.202 F 
BRANCH   7  14
ATOM     14  O   UNL     1      -1.341  -0.498  -0.017  0.00  0.00    -0.489 OA
BRANCH  14  16
ATOM     15  C   UNL     1      -0.162   1.544   0.512  0.00  0.00    +0.048 C 
ATOM     16  C   UNL     1      -0.167   0.017   0.613  0.00  0.00    +0.226 C 
ENDBRANCH  14  16
ENDBRANCH   7  14
ENDBRANCH   1  10
BRANCH   4  17
ATOM     17  C   UNL     1      -4.709  -8.444   0.303  0.00  0.00    +0.102 C 
ATOM     18  C   UNL     1      -5.144  -8.438   1.770  0.00  0.00    +0.033 C 
BRANCH  17  19
ATOM     19  C   UNL     1      -4.688  -9.861  -0.208  0.00  0.00    -0.027 A 
ATOM     20  C   UNL     1      -3.616 -10.685   0.083  0.00  0.00    +0.007 A 
ATOM     21  C   UNL     1      -3.596 -11.985  -0.387  0.00  0.00    +0.029 A 
ATOM     22  C   UNL     1      -4.648 -12.461  -1.147  0.00  0.00    +0.105 A 
ATOM     23  C   UNL     1      -5.720 -11.638  -1.437  0.00  0.00    +0.029 A 
ATOM     24  C   UNL     1      -5.742 -10.339  -0.964  0.00  0.00    +0.007 A 
BRANCH  22  25
ATOM     25  S   UNL     1      -4.622 -14.118  -1.746  0.00  0.00    +0.058 S 
ATOM     26  O   UNL     1      -5.467 -14.150  -2.889  0.00  0.00    -0.153 OA
ATOM     27  O   UNL     1      -3.258 -14.510  -1.797  0.00  0.00    -0.153 OA
BRANCH  25  28
ATOM     28  N   UNL     1      -5.345 -15.066  -0.597  0.00  0.00    -0.193 NA
ATOM     29  C   UNL     1      -6.766 -14.886  -0.286  0.00  0.00    +0.127 C 
ATOM     30  H   UNL     1      -4.828 -15.740  -0.129  0.00  0.00    +0.148 HD
ENDBRANCH  25  28
ENDBRANCH  22  25
ENDBRANCH  17  19
ENDBRANCH   4  17
TORSDOF 7
