REMARK  Name = ZINC13241337
REMARK  6 active torsions:
REMARK  status: ('A' for Active; 'I' for Inactive)
REMARK    1  A    between atoms: C_6  and  C_7
REMARK    2  A    between atoms: C_10  and  S_12
REMARK    3  A    between atoms: S_12  and  C_13
REMARK    4  A    between atoms: C_13  and  C_14
REMARK    5  A    between atoms: N_16  and  C_17
REMARK    6  A    between atoms: C_22  and  C_23
REMARK                            x       y       z     vdW  Elec       q    Type
REMARK                         _______ _______ _______ _____ _____    ______ ____
ROOT
ATOM      1  S   UNL     1      -1.334  -2.497   0.354  0.00  0.00    -0.056 S 
ENDROOT
BRANCH   1   5
ATOM      2  C   UNL     1      -4.732  -4.325   0.759  0.00  0.00    +0.249 A 
ATOM      3  N   UNL     1      -5.104  -3.068   0.731  0.00  0.00    -0.106 NA
ATOM      4  N   UNL     1      -4.067  -2.318   0.603  0.00  0.00    -0.101 NA
ATOM      5  C   UNL     1      -2.991  -3.067   0.535  0.00  0.00    +0.278 A 
ATOM      6  O   UNL     1      -3.386  -4.351   0.636  0.00  0.00    -0.411 OA
BRANCH   2  12
ATOM      7  C   UNL     1      -5.081  -6.785   0.909  0.00  0.00    +0.017 A 
ATOM      8  C   UNL     1      -5.912  -7.879   1.045  0.00  0.00    +0.050 A 
ATOM      9  C   UNL     1      -7.282  -7.704   1.163  0.00  0.00    +0.166 A 
ATOM     10  C   UNL     1      -7.827  -6.420   1.149  0.00  0.00    +0.167 A 
ATOM     11  C   UNL     1      -7.000  -5.320   1.018  0.00  0.00    +0.062 A 
ATOM     12  C   UNL     1      -5.619  -5.497   0.899  0.00  0.00    +0.042 A 
ATOM     13  O   UNL     1      -9.182  -6.520   1.279  0.00  0.00    -0.453 OA
ATOM     14  C   UNL     1      -9.423  -7.847   1.783  0.00  0.00    +0.466 C 
ATOM     15  O   UNL     1      -8.298  -8.605   1.301  0.00  0.00    -0.453 OA
ENDBRANCH   2  12
ENDBRANCH   1   5
BRANCH   1  16
ATOM     16  C   UNL     1      -1.621  -0.711   0.292  0.00  0.00    +0.175 C 
BRANCH  16  17
ATOM     17  C   UNL     1      -0.303   0.004   0.135  0.00  0.00    +0.228 C 
ATOM     18  O   UNL     1       0.728  -0.631   0.071  0.00  0.00    -0.275 OA
ATOM     19  N   UNL     1      -0.271   1.350   0.065  0.00  0.00    -0.284 N 
ATOM     20  H   UNL     1      -1.100   1.855   0.047  0.00  0.00    +0.155 HD
BRANCH  19  21
ATOM     21  C   UNL     1       0.951   2.016   0.013  0.00  0.00    +0.050 A 
ATOM     22  C   UNL     1       2.022   1.454  -0.666  0.00  0.00    +0.062 A 
ATOM     23  C   UNL     1       3.233   2.120  -0.721  0.00  0.00    +0.125 A 
ATOM     24  C   UNL     1       3.389   3.346  -0.089  0.00  0.00    +0.039 A 
ATOM     25  C   UNL     1       2.338   3.915   0.594  0.00  0.00    +0.020 A 
ATOM     26  C   UNL     1       1.106   3.256   0.653  0.00  0.00    +0.084 A 
ATOM     27  F   UNL     1       4.271   1.571  -1.389  0.00  0.00    -0.205 F 
BRANCH  26  28
ATOM     28  C   UNL     1      -0.022   3.859   1.382  0.00  0.00    +0.388 C 
ATOM     29  O   UNL     1      -1.060   3.241   1.515  0.00  0.00    -0.241 OA
ATOM     30  O   UNL     1       0.097   5.096   1.903  0.00  0.00    -0.241 OA
ENDBRANCH  26  28
ENDBRANCH  19  21
ENDBRANCH  16  17
ENDBRANCH   1  16
TORSDOF 6
