REMARK  Name = ZINC35636231
REMARK  14 active torsions:
REMARK  status: ('A' for Active; 'I' for Inactive)
REMARK    1  A    between atoms: C_1  and  C_2
REMARK    2  A    between atoms: C_2  and  N_3
REMARK    3  A    between atoms: C_6  and  C_11
REMARK    4  A    between atoms: C_15  and  O_17
REMARK    5  A    between atoms: O_17  and  C_18
REMARK    6  A    between atoms: N_26  and  C_28
REMARK    7  A    between atoms: C_28  and  C_30
REMARK    8  A    between atoms: C_28  and  C_33
REMARK    9  A    between atoms: C_30  and  C_31
REMARK   10  A    between atoms: C_30  and  C_32
REMARK   11  A    between atoms: N_35  and  C_36
REMARK   12  A    between atoms: C_36  and  C_37
REMARK   13  A    between atoms: C_37  and  C_38
REMARK   14  A    between atoms: C_37  and  C_39
REMARK                            x       y       z     vdW  Elec       q    Type
REMARK                         _______ _______ _______ _____ _____    ______ ____
ROOT
ATOM      1  N   UNL     1       0.225   0.690   0.081  0.00  0.00    -0.257 N 
ATOM      2  C   UNL     1       1.393   0.165   0.555  0.00  0.00    +0.042 C 
ATOM      3  C   UNL     1       1.464  -0.386   1.784  0.00  0.00    +0.058 C 
ATOM      4  C   UNL     1       0.202  -0.402   2.623  0.00  0.00    +0.142 C 
ATOM      5  N   UNL     1      -1.005   0.189   2.021  0.00  0.00    -0.288 N 
ATOM      6  C   UNL     1      -0.917   0.707   0.780  0.00  0.00    +0.307 C 
ATOM      7  O   UNL     1      -1.908   1.200   0.277  0.00  0.00    -0.252 OA
ATOM      8  C   UNL     1       2.770  -0.853   2.037  0.00  0.00    +0.247 C 
ATOM      9  O   UNL     1       3.119  -1.396   3.070  0.00  0.00    -0.270 OA
ATOM     10  N   UNL     1       3.581  -0.622   0.989  0.00  0.00    -0.280 N 
ATOM     11  C   UNL     1       2.776   0.045  -0.045  0.00  0.00    +0.160 C 
ATOM     12  H   UNL     1      -1.844   0.208   2.509  0.00  0.00    +0.151 HD
ENDROOT
BRANCH   4  13
ATOM     13  C   UNL     1       0.488   0.332   3.907  0.00  0.00    -0.019 A 
ATOM     14  C   UNL     1       0.462   1.715   3.933  0.00  0.00    +0.006 A 
ATOM     15  C   UNL     1       0.724   2.392   5.109  0.00  0.00    +0.004 A 
ATOM     16  C   UNL     1       1.012   1.688   6.263  0.00  0.00    +0.046 A 
ATOM     17  C   UNL     1       1.038   0.302   6.240  0.00  0.00    +0.129 A 
ATOM     18  C   UNL     1       0.770  -0.376   5.059  0.00  0.00    +0.052 A 
BRANCH  17  19
ATOM     19  O   UNL     1       1.321  -0.393   7.373  0.00  0.00    -0.456 OA
BRANCH  19  20
ATOM     20  C   UNL     1       1.278  -1.750   7.318  0.00  0.00    +0.128 A 
ATOM     21  C   UNL     1       2.342  -2.457   6.777  0.00  0.00    +0.046 A 
ATOM     22  C   UNL     1       2.296  -3.837   6.721  0.00  0.00    +0.004 A 
ATOM     23  C   UNL     1       1.190  -4.512   7.204  0.00  0.00    +0.000 A 
ATOM     24  C   UNL     1       0.129  -3.810   7.744  0.00  0.00    +0.004 A 
ATOM     25  C   UNL     1       0.173  -2.431   7.807  0.00  0.00    +0.046 A 
ENDBRANCH  19  20
ENDBRANCH  17  19
ENDBRANCH   4  13
BRANCH   1  27
ATOM     26  C   UNL     1       0.580   2.758  -1.176  0.00  0.00    +0.025 C 
ATOM     27  C   UNL     1       0.223   1.272  -1.263  0.00  0.00    +0.111 C 
ENDBRANCH   1  27
BRANCH  10  28
ATOM     28  C   UNL     1       5.001  -0.971   0.894  0.00  0.00    +0.165 C 
BRANCH  28  29
ATOM     29  C   UNL     1       5.763  -0.271   1.990  0.00  0.00    +0.234 C 
ATOM     30  O   UNL     1       5.167   0.220   2.925  0.00  0.00    -0.274 OA
ATOM     31  N   UNL     1       7.107  -0.192   1.931  0.00  0.00    -0.314 N 
ATOM     32  H   UNL     1       7.580  -0.537   1.157  0.00  0.00    +0.149 HD
BRANCH  31  33
ATOM     33  C   UNL     1       7.855   0.416   3.034  0.00  0.00    +0.107 C 
BRANCH  33  34
ATOM     34  C   UNL     1       9.351   0.381   2.717  0.00  0.00    -0.000 C 
ATOM     35  C   UNL     1       9.636   1.263   1.500  0.00  0.00    +0.009 C 
ATOM     36  C   UNL     1      10.139   0.901   3.921  0.00  0.00    +0.009 C 
ENDBRANCH  33  34
ENDBRANCH  31  33
ENDBRANCH  28  29
BRANCH  28  37
ATOM     37  C   UNL     1       5.165  -2.485   1.045  0.00  0.00    +0.012 C 
ATOM     38  C   UNL     1       4.293  -3.198   0.010  0.00  0.00    +0.009 C 
ATOM     39  C   UNL     1       6.631  -2.863   0.823  0.00  0.00    +0.009 C 
ENDBRANCH  28  37
ENDBRANCH  10  28
TORSDOF 9
