REMARK  Name = ZINC59305336
REMARK  9 active torsions:
REMARK  status: ('A' for Active; 'I' for Inactive)
REMARK    1  A    between atoms: C_1  and  C_2
REMARK    2  A    between atoms: C_2  and  C_3
REMARK    3  A    between atoms: C_2  and  O_4
REMARK    4  A    between atoms: O_4  and  C_5
REMARK    5  A    between atoms: C_8  and  N_11
REMARK    6  A    between atoms: C_12  and  C_14
REMARK    7  A    between atoms: C_14  and  N_21
REMARK    8  A    between atoms: C_15  and  C_16
REMARK    9  A    between atoms: C_22  and  C_26
REMARK                            x       y       z     vdW  Elec       q    Type
REMARK                         _______ _______ _______ _____ _____    ______ ____
ROOT
ATOM      1  C   UNL     1      -3.968  -7.834  -3.101  0.00  0.00    +0.135 C 
ATOM      2  C   UNL     1      -5.076  -8.554  -3.425  0.00  0.00    +0.079 C 
ENDROOT
BRANCH   2   3
ATOM      3  C   UNL     1      -4.944  -9.877  -3.908  0.00  0.00    +0.130 A 
ATOM      4  C   UNL     1      -5.971 -10.691  -4.342  0.00  0.00    +0.049 A 
ATOM      5  C   UNL     1      -5.382 -11.905  -4.728  0.00  0.00    +0.042 A 
ATOM      6  C   UNL     1      -4.052 -11.788  -4.520  0.00  0.00    +0.195 A 
ATOM      7  O   UNL     1      -3.791 -10.567  -4.033  0.00  0.00    -0.463 OA
ENDBRANCH   2   3
BRANCH   1   8
ATOM      8  N   UNL     1      -2.698  -8.410  -3.225  0.00  0.00    -0.188 N 
ATOM      9  C   UNL     1      -2.020  -9.134  -2.288  0.00  0.00    +0.187 A 
ATOM     10  N   UNL     1      -0.869  -9.478  -2.829  0.00  0.00    -0.108 NA
ATOM     11  N   UNL     1      -0.781  -9.024  -4.027  0.00  0.00    -0.022 NA
ATOM     12  N   UNL     1      -1.847  -8.373  -4.344  0.00  0.00    -0.038 NA
BRANCH   9  13
ATOM     13  C   UNL     1      -2.488  -9.468  -0.925  0.00  0.00    +0.021 A 
ATOM     14  C   UNL     1      -3.427  -8.657  -0.288  0.00  0.00    +0.011 A 
ATOM     15  C   UNL     1      -3.860  -8.974   0.983  0.00  0.00    +0.001 A 
ATOM     16  C   UNL     1      -3.364 -10.094   1.626  0.00  0.00    +0.000 A 
ATOM     17  C   UNL     1      -2.433 -10.903   1.000  0.00  0.00    +0.001 A 
ATOM     18  C   UNL     1      -1.996 -10.600  -0.273  0.00  0.00    +0.011 A 
ENDBRANCH   9  13
ENDBRANCH   1   8
BRANCH   1  20
ATOM     19  N   UNL     1      -3.004  -5.709  -2.402  0.00  0.00    -0.280 N 
ATOM     20  C   UNL     1      -4.104  -6.457  -2.623  0.00  0.00    +0.267 C 
ATOM     21  O   UNL     1      -5.209  -5.987  -2.425  0.00  0.00    -0.268 OA
ATOM     22  H   UNL     1      -2.123  -6.092  -2.532  0.00  0.00    +0.155 HD
BRANCH  19  26
ATOM     23  C   UNL     1      -3.394  -1.749  -1.159  0.00  0.00    +0.121 A 
ATOM     24  C   UNL     1      -2.375  -2.105  -2.030  0.00  0.00    +0.047 A 
ATOM     25  C   UNL     1      -2.245  -3.416  -2.442  0.00  0.00    +0.027 A 
ATOM     26  C   UNL     1      -3.135  -4.379  -1.984  0.00  0.00    +0.034 A 
ATOM     27  C   UNL     1      -4.155  -4.022  -1.111  0.00  0.00    +0.027 A 
ATOM     28  C   UNL     1      -4.280  -2.711  -0.696  0.00  0.00    +0.047 A 
BRANCH  23  29
ATOM     29  O   UNL     1      -3.521  -0.457  -0.754  0.00  0.00    -0.489 OA
BRANCH  29  31
ATOM     30  C   UNL     1      -4.385   1.140   0.842  0.00  0.00    +0.051 C 
ATOM     31  C   UNL     1      -4.662  -0.137   0.046  0.00  0.00    +0.167 C 
ATOM     32  C   UNL     1      -5.875   0.080  -0.860  0.00  0.00    +0.051 C 
ENDBRANCH  29  31
ENDBRANCH  23  29
ENDBRANCH  19  26
ENDBRANCH   1  20
TORSDOF 7
