REMARK  Name = ZINC64870175
REMARK  9 active torsions:
REMARK  status: ('A' for Active; 'I' for Inactive)
REMARK    1  A    between atoms: C_1  and  O_2
REMARK    2  A    between atoms: O_2  and  C_3
REMARK    3  A    between atoms: C_6  and  N_9
REMARK    4  A    between atoms: C_15  and  C_22
REMARK    5  A    between atoms: C_25  and  C_29
REMARK    6  A    between atoms: C_31  and  O_37
REMARK    7  A    between atoms: C_33  and  O_35
REMARK    8  A    between atoms: O_35  and  C_36
REMARK    9  A    between atoms: O_37  and  C_38
REMARK                            x       y       z     vdW  Elec       q    Type
REMARK                         _______ _______ _______ _____ _____    ______ ____
ROOT
ATOM      1  N   UNL     1      -4.891  -2.582   0.035  0.00  0.00    -0.229 N 
ATOM      2  C   UNL     1      -4.931  -3.928  -0.064  0.00  0.00    +0.269 A 
ATOM      3  O   UNL     1      -3.907  -4.577  -0.160  0.00  0.00    -0.266 OA
ATOM      4  C   UNL     1      -6.248  -4.590  -0.052  0.00  0.00    +0.063 A 
ATOM      5  C   UNL     1      -6.373  -5.974  -0.149  0.00  0.00    +0.016 A 
ATOM      6  C   UNL     1      -7.628  -6.546  -0.132  0.00  0.00    +0.008 A 
ATOM      7  C   UNL     1      -8.759  -5.752  -0.020  0.00  0.00    -0.000 A 
ATOM      8  C   UNL     1      -8.649  -4.380   0.077  0.00  0.00    +0.034 A 
ATOM      9  C   UNL     1      -7.395  -3.787   0.062  0.00  0.00    +0.056 A 
ATOM     10  N   UNL     1      -7.241  -2.412   0.158  0.00  0.00    -0.307 N 
ATOM     11  H   UNL     1      -8.024  -1.844   0.237  0.00  0.00    +0.170 HD
ATOM     12  C   UNL     1      -6.016  -1.858   0.147  0.00  0.00    +0.334 A 
ATOM     13  O   UNL     1      -5.923  -0.649   0.238  0.00  0.00    -0.246 OA
ENDROOT
BRANCH   7  14
ATOM     14  C   UNL     1     -10.122  -6.394  -0.004  0.00  0.00    +0.242 C 
ATOM     15  N   UNL     1     -10.034  -7.748   0.580  0.00  0.00    -0.265 NA
ATOM     16  C   UNL     1     -10.502  -8.685  -0.467  0.00  0.00    +0.181 C 
ATOM     17  N   UNL     1     -11.339  -7.830  -1.352  0.00  0.00    -0.177 NA
ATOM     18  O   UNL     1     -10.611  -6.540  -1.350  0.00  0.00    -0.274 OA
ATOM     19  H   UNL     1      -9.087  -7.960   0.859  0.00  0.00    +0.127 HD
ATOM     20  H   UNL     1     -11.391  -8.216  -2.283  0.00  0.00    +0.156 HD
BRANCH  16  21
ATOM     21  C   UNL     1     -11.326  -9.791   0.141  0.00  0.00    -0.007 A 
ATOM     22  C   UNL     1     -11.074 -10.207   1.434  0.00  0.00    +0.052 A 
ATOM     23  C   UNL     1     -11.831 -11.226   1.996  0.00  0.00    +0.124 A 
ATOM     24  C   UNL     1     -12.841 -11.825   1.259  0.00  0.00    +0.091 A 
ATOM     25  C   UNL     1     -13.091 -11.406  -0.039  0.00  0.00    +0.124 A 
ATOM     26  C   UNL     1     -12.335 -10.383  -0.594  0.00  0.00    +0.052 A 
BRANCH  25  27
ATOM     27  O   UNL     1     -14.080 -11.992  -0.764  0.00  0.00    -0.495 OA
ATOM     28  C   UNL     1     -14.821 -13.034  -0.127  0.00  0.00    +0.277 C 
ENDBRANCH  25  27
BRANCH  23  29
ATOM     29  O   UNL     1     -11.583 -11.635   3.268  0.00  0.00    -0.495 OA
ATOM     30  C   UNL     1     -12.401 -12.688   3.782  0.00  0.00    +0.277 C 
ENDBRANCH  23  29
ENDBRANCH  16  21
ENDBRANCH   7  14
BRANCH   1  34
ATOM     31  C   UNL     1      -1.200  -0.639   0.009  0.00  0.00    +0.120 A 
ATOM     32  C   UNL     1      -1.757  -1.054   1.210  0.00  0.00    +0.047 A 
ATOM     33  C   UNL     1      -2.979  -1.697   1.219  0.00  0.00    +0.030 A 
ATOM     34  C   UNL     1      -3.650  -1.928   0.026  0.00  0.00    +0.055 A 
ATOM     35  C   UNL     1      -3.093  -1.513  -1.176  0.00  0.00    +0.030 A 
ATOM     36  C   UNL     1      -1.873  -0.865  -1.183  0.00  0.00    +0.047 A 
BRANCH  31  38
ATOM     37  C   UNL     1       0.640   0.194   1.264  0.00  0.00    +0.277 C 
ATOM     38  O   UNL     1       0.003  -0.006   0.000  0.00  0.00    -0.495 OA
ENDBRANCH  31  38
ENDBRANCH   1  34
TORSDOF 6
