REMARK  Name = ZINC02559219
REMARK  7 active torsions:
REMARK  status: ('A' for Active; 'I' for Inactive)
REMARK    1  A    between atoms: C_1  and  C_2
REMARK    2  A    between atoms: C_5  and  O_11
REMARK    3  A    between atoms: O_11  and  C_12
REMARK    4  A    between atoms: C_12  and  C_13
REMARK    5  A    between atoms: N_15  and  N_16
REMARK    6  A    between atoms: C_17  and  C_18
REMARK    7  A    between atoms: C_20  and  N_25
REMARK                            x       y       z     vdW  Elec       q    Type
REMARK                         _______ _______ _______ _____ _____    ______ ____
ROOT
ATOM      1  C   UNL     1      -2.550   4.031   0.036  0.00  0.00    +0.270 C 
ATOM      2  O   UNL     1      -3.501   3.279   0.036  0.00  0.00    -0.270 OA
ATOM      3  N   UNL     1      -2.746   5.365   0.044  0.00  0.00    -0.204 N 
ATOM      4  H   UNL     1      -1.985   5.967   0.044  0.00  0.00    +0.177 HD
ENDROOT
BRANCH   3   5
ATOM      5  N   UNL     1      -4.048   5.881   0.053  0.00  0.00    -0.188 NA
ATOM      6  C   UNL     1      -4.237   7.165   0.061  0.00  0.00    +0.139 C 
BRANCH   6   7
ATOM      7  C   UNL     1      -5.607   7.709   0.070  0.00  0.00    +0.015 A 
ATOM      8  C   UNL     1      -5.814   9.091   0.085  0.00  0.00    +0.043 A 
ATOM      9  C   UNL     1      -7.099   9.592   0.089  0.00  0.00    +0.127 A 
ATOM     10  C   UNL     1      -8.182   8.731   0.090  0.00  0.00    +0.034 A 
ATOM     11  C   UNL     1      -7.986   7.362   0.080  0.00  0.00    +0.023 A 
ATOM     12  C   UNL     1      -6.706   6.845   0.071  0.00  0.00    +0.050 A 
ATOM     13 CL   UNL     1      -6.461   5.126   0.060  0.00  0.00    -0.083 Cl
BRANCH   9  14
ATOM     14  N   UNL     1      -7.319  11.056   0.100  0.00  0.00    +0.056 N 
ATOM     15  O   UNL     1      -8.453  11.501   0.109  0.00  0.00    -0.126 OA
ATOM     16  O   UNL     1      -6.367  11.816   0.099  0.00  0.00    -0.126 OA
ENDBRANCH   9  14
ENDBRANCH   6   7
ENDBRANCH   3   5
BRANCH   1  17
ATOM     17  C   UNL     1      -1.149   3.476   0.026  0.00  0.00    +0.326 C 
BRANCH  17  18
ATOM     18  O   UNL     1      -1.203   2.048   0.019  0.00  0.00    -0.482 OA
BRANCH  18  23
ATOM     19  C   UNL     1       3.713  -0.692  -0.038  0.00  0.00    +0.044 C 
ATOM     20  C   UNL     1       2.396   0.040  -0.021  0.00  0.00    -0.047 A 
ATOM     21  C   UNL     1       2.378   1.422  -0.014  0.00  0.00    +0.007 A 
ATOM     22  C   UNL     1       1.173   2.097   0.002  0.00  0.00    +0.046 A 
ATOM     23  C   UNL     1      -0.017   1.385   0.010  0.00  0.00    +0.125 A 
ATOM     24  C   UNL     1       0.002  -0.004   0.002  0.00  0.00    -0.002 A 
ATOM     25  C   UNL     1       1.210  -0.675  -0.013  0.00  0.00    -0.038 A 
ATOM     26  C   UNL     1       0.966  -2.169  -0.019  0.00  0.00    +0.036 C 
ATOM     27  C   UNL     1      -0.500  -2.340   0.434  0.00  0.00    +0.009 C 
ATOM     28  C   UNL     1      -1.137  -1.001   0.007  0.00  0.00    +0.039 C 
ENDBRANCH  18  23
ENDBRANCH  17  18
ENDBRANCH   1  17
TORSDOF 6
