REMARK  Name = ZINC59644952
REMARK  4 active torsions:
REMARK  status: ('A' for Active; 'I' for Inactive)
REMARK    1  A    between atoms: C_2  and  C_11
REMARK    2  A    between atoms: N_12  and  N_13
REMARK    3  A    between atoms: C_14  and  C_16
REMARK    4  A    between atoms: C_16  and  C_17
REMARK                            x       y       z     vdW  Elec       q    Type
REMARK                         _______ _______ _______ _____ _____    ______ ____
ROOT
ATOM      1  N   UNL     1       2.273   5.626   0.009  0.00  0.00    -0.207 N 
ATOM      2  C   UNL     1       3.433   6.312   0.002  0.00  0.00    +0.238 C 
ATOM      3  O   UNL     1       4.490   5.716  -0.011  0.00  0.00    -0.274 OA
ATOM      4  H   UNL     1       1.428   6.103   0.020  0.00  0.00    +0.177 HD
ENDROOT
BRANCH   1   6
ATOM      5  C   UNL     1       1.170   3.565   0.009  0.00  0.00    +0.139 C 
ATOM      6  N   UNL     1       2.287   4.225   0.002  0.00  0.00    -0.188 NA
BRANCH   5   8
ATOM      7  C   UNL     1      -0.017   1.377   0.010  0.00  0.00    +0.060 A 
ATOM      8  C   UNL     1       1.185   2.091   0.002  0.00  0.00    +0.012 A 
ATOM      9  C   UNL     1       2.401   1.403  -0.013  0.00  0.00    +0.030 A 
ATOM     10  C   UNL     1       2.412   0.023  -0.021  0.00  0.00    +0.065 A 
ATOM     11  C   UNL     1       1.220  -0.685  -0.013  0.00  0.00    +0.167 A 
ATOM     12  C   UNL     1       0.002  -0.004   0.002  0.00  0.00    +0.167 A 
ATOM     13  O   UNL     1      -1.010  -0.921   0.007  0.00  0.00    -0.453 OA
ATOM     14  C   UNL     1      -0.409  -2.158  -0.419  0.00  0.00    +0.466 C 
ATOM     15  O   UNL     1       0.967  -2.027  -0.018  0.00  0.00    -0.453 OA
ATOM     16 BR   UNL     1       4.031   2.362  -0.024  0.00  0.00    -0.050 Br
ENDBRANCH   5   8
ENDBRANCH   1   6
BRANCH   2  17
ATOM     17  C   UNL     1       3.417   7.819   0.010  0.00  0.00    +0.153 C 
BRANCH  17  18
ATOM     18  C   UNL     1       4.833   8.336  -0.001  0.00  0.00    +0.059 A 
ATOM     19  C   UNL     1       5.260   9.210  -0.944  0.00  0.00    +0.072 A 
ATOM     20  S   UNL     1       6.958   9.438  -0.443  0.00  0.00    -0.061 S 
ATOM     21  C   UNL     1       6.947   8.415   0.893  0.00  0.00    +0.156 A 
ATOM     22  N   UNL     1       5.711   7.961   0.913  0.00  0.00    -0.230 NA
ATOM     23  N   UNL     1       7.985   8.123   1.764  0.00  0.00    -0.338 N 
ATOM     24  H   UNL     1       8.854   8.534   1.637  0.00  0.00    +0.144 HD
ATOM     25  H   UNL     1       7.842   7.509   2.501  0.00  0.00    +0.144 HD
ENDBRANCH  17  18
ENDBRANCH   2  17
TORSDOF 4
