REMARK  Name = ZINC09882799
REMARK  6 active torsions:
REMARK  status: ('A' for Active; 'I' for Inactive)
REMARK    1  A    between atoms: C_6  and  N_7
REMARK    2  A    between atoms: C_8  and  C_10
REMARK    3  A    between atoms: C_15  and  C_16
REMARK    4  A    between atoms: C_15  and  N_62
REMARK    5  A    between atoms: N_18  and  C_19
REMARK    6  A    between atoms: C_20  and  C_28
REMARK                            x       y       z     vdW  Elec       q    Type
REMARK                         _______ _______ _______ _____ _____    ______ ____
ROOT
ATOM      1  C   UNL     1       6.255   2.397   0.832  0.00  0.00    +0.072 C 
ATOM      2  C   UNL     1       6.252   3.071  -0.543  0.00  0.00    -0.006 C 
ATOM      3  C   UNL     1       7.569   3.826  -0.738  0.00  0.00    -0.077 C 
ATOM      4  C   UNL     1       8.744   2.262   0.691  0.00  0.00    -0.077 C 
ATOM      5  C   UNL     1       7.462   1.460   0.929  0.00  0.00    -0.006 C 
ATOM      6  N   UNL     1       8.689   2.865  -0.657  0.00  0.00    +0.385 N 
ATOM      7  H   UNL     1       8.540   2.121  -1.349  0.00  0.00    -0.081 HD
ENDROOT
BRANCH   1   9
ATOM      8  N   UNL     1       3.791   2.223   0.957  0.00  0.00    -0.285 N 
ATOM      9  C   UNL     1       4.986   1.603   1.006  0.00  0.00    +0.220 C 
ATOM     10  O   UNL     1       5.041   0.405   1.190  0.00  0.00    -0.275 OA
ATOM     11  H   UNL     1       3.742   3.166   0.735  0.00  0.00    +0.155 HD
BRANCH   8  17
ATOM     12  C   UNL     1       2.635   0.469   2.150  0.00  0.00    +0.027 A 
ATOM     13  C   UNL     1       1.478  -0.239   2.417  0.00  0.00    +0.051 A 
ATOM     14  C   UNL     1       0.299   0.084   1.766  0.00  0.00    +0.166 A 
ATOM     15  C   UNL     1       0.279   1.123   0.838  0.00  0.00    +0.168 A 
ATOM     16  C   UNL     1       1.438   1.831   0.571  0.00  0.00    +0.072 A 
ATOM     17  C   UNL     1       2.618   1.506   1.227  0.00  0.00    +0.037 A 
ATOM     18  O   UNL     1      -0.986   1.236   0.337  0.00  0.00    -0.453 OA
ATOM     19  C   UNL     1      -1.644   0.001   0.668  0.00  0.00    +0.466 C 
ATOM     20  O   UNL     1      -0.955  -0.451   1.849  0.00  0.00    -0.453 OA
ENDBRANCH   8  17
ENDBRANCH   1   9
BRANCH   6  21
ATOM     21  C   UNL     1       9.964   3.550  -0.956  0.00  0.00    +0.019 C 
BRANCH  21  22
ATOM     22  C   UNL     1      11.049   2.514  -1.100  0.00  0.00    +0.201 C 
ATOM     23  O   UNL     1      10.770   1.334  -1.060  0.00  0.00    -0.278 OA
ATOM     24  N   UNL     1      12.329   2.898  -1.274  0.00  0.00    -0.281 N 
ATOM     25  H   UNL     1      12.552   3.842  -1.306  0.00  0.00    +0.155 HD
BRANCH  24  26
ATOM     26  C   UNL     1      13.327   1.945  -1.407  0.00  0.00    +0.084 A 
ATOM     27  C   UNL     1      14.687   2.142  -1.597  0.00  0.00    +0.068 A 
ATOM     28  C   UNL     1      15.528   0.962  -1.703  0.00  0.00    -0.023 A 
ATOM     29  C   UNL     1      14.877  -0.218  -1.613  0.00  0.00    -0.004 A 
ATOM     30  S   UNL     1      13.177   0.219  -1.383  0.00  0.00    -0.077 S 
ATOM     31  C   UNL     1      15.476  -1.588  -1.692  0.00  0.00    +0.043 C 
ATOM     32  C   UNL     1      16.895  -1.463  -2.267  0.00  0.00    +0.005 C 
ATOM     33  C   UNL     1      17.631  -0.344  -1.524  0.00  0.00    +0.005 C 
ATOM     34  C   UNL     1      17.037   1.012  -1.907  0.00  0.00    +0.037 C 
BRANCH  27  35
ATOM     35  C   UNL     1      15.255   3.491  -1.683  0.00  0.00    +0.244 C 
ATOM     36  O   UNL     1      15.637   4.057  -0.675  0.00  0.00    -0.270 OA
ATOM     37  N   UNL     1      15.355   4.105  -2.879  0.00  0.00    -0.325 N 
ATOM     38  H   UNL     1      15.052   3.654  -3.683  0.00  0.00    +0.145 HD
ATOM     39  H   UNL     1      15.731   4.997  -2.937  0.00  0.00    +0.145 HD
ENDBRANCH  27  35
ENDBRANCH  24  26
ENDBRANCH  21  22
ENDBRANCH   6  21
TORSDOF 6
