REMARK  Name = ZINC13418560
REMARK  10 active torsions:
REMARK  status: ('A' for Active; 'I' for Inactive)
REMARK    1  A    between atoms: C_1  and  C_2
REMARK    2  A    between atoms: C_2  and  C_3
REMARK    3  A    between atoms: C_3  and  S_4
REMARK    4  A    between atoms: S_4  and  C_5
REMARK    5  A    between atoms: C_8  and  N_28
REMARK    6  A    between atoms: C_9  and  N_11
REMARK    7  A    between atoms: C_12  and  C_14
REMARK    8  A    between atoms: C_14  and  N_15
REMARK    9  A    between atoms: C_22  and  C_27
REMARK   10  A    between atoms: C_23  and  C_25
REMARK                            x       y       z     vdW  Elec       q    Type
REMARK                         _______ _______ _______ _____ _____    ______ ____
ROOT
ATOM      1  N   UNL     1       2.299   3.877  -0.017  0.00  0.00    -0.282 N 
ATOM      2  C   UNL     1       2.251   5.221   0.071  0.00  0.00    +0.237 C 
ATOM      3  O   UNL     1       1.190   5.780   0.253  0.00  0.00    -0.274 OA
ATOM      4  H   UNL     1       3.154   3.426  -0.086  0.00  0.00    +0.155 HD
ENDROOT
BRANCH   1   9
ATOM      5  C   UNL     1      -1.202   2.898  -0.602  0.00  0.00    +0.010 A 
ATOM      6  C   UNL     1      -1.229   1.650   0.010  0.00  0.00    +0.017 A 
ATOM      7  C   UNL     1      -0.091   1.153   0.615  0.00  0.00    +0.036 A 
ATOM      8  C   UNL     1       1.079   1.888   0.606  0.00  0.00    +0.147 A 
ATOM      9  C   UNL     1       1.113   3.134  -0.009  0.00  0.00    +0.065 A 
ATOM     10  C   UNL     1      -0.028   3.639  -0.613  0.00  0.00    +0.040 A 
BRANCH   8  11
ATOM     11  N   UNL     1       2.297   1.348   1.251  0.00  0.00    +0.058 N 
ATOM     12  O   UNL     1       2.245   0.298   1.867  0.00  0.00    -0.126 OA
ATOM     13  O   UNL     1       3.350   1.952   1.165  0.00  0.00    -0.126 OA
ENDBRANCH   8  11
BRANCH   5  14
ATOM     14  S   UNL     1      -2.655   3.536  -1.369  0.00  0.00    -0.125 S 
BRANCH  14  15
ATOM     15  C   UNL     1      -3.897   2.241  -1.101  0.00  0.00    +0.074 C 
BRANCH  15  17
ATOM     16  C   UNL     1      -6.273   1.580  -1.499  0.00  0.00    +0.004 C 
ATOM     17  C   UNL     1      -5.226   2.672  -1.725  0.00  0.00    +0.008 C 
ENDBRANCH  15  17
ENDBRANCH  14  15
ENDBRANCH   5  14
ENDBRANCH   1   9
BRANCH   2  18
ATOM     18  C   UNL     1       3.517   6.030  -0.058  0.00  0.00    +0.222 C 
BRANCH  18  19
ATOM     19  N   UNL     1       3.201   7.455   0.073  0.00  0.00    -0.290 N 
ATOM     20  C   UNL     1       2.900   8.172  -1.038  0.00  0.00    +0.203 A 
ATOM     21  N   UNL     1       2.606   9.443  -0.980  0.00  0.00    -0.230 NA
ATOM     22  C   UNL     1       2.598  10.103   0.171  0.00  0.00    +0.116 A 
ATOM     23  C   UNL     1       2.900   9.467   1.398  0.00  0.00    +0.076 A 
ATOM     24  C   UNL     1       3.222   8.026   1.293  0.00  0.00    +0.263 A 
ATOM     25  O   UNL     1       3.498   7.374   2.284  0.00  0.00    -0.267 OA
ATOM     26  C   UNL     1       2.853  10.281   2.531  0.00  0.00    -0.015 A 
ATOM     27  C   UNL     1       2.530  11.601   2.407  0.00  0.00    +0.106 A 
ATOM     28  S   UNL     1       2.268  11.780   0.651  0.00  0.00    -0.062 S 
ATOM     29  C   UNL     1       3.159   9.702   3.889  0.00  0.00    +0.046 C 
BRANCH  27  30
ATOM     30  C   UNL     1       2.425  12.619   3.455  0.00  0.00    +0.393 C 
ATOM     31  O   UNL     1       2.640  12.322   4.615  0.00  0.00    -0.240 OA
ATOM     32  O   UNL     1       2.090  13.886   3.134  0.00  0.00    -0.240 OA
ENDBRANCH  27  30
ENDBRANCH  18  19
ENDBRANCH   2  18
TORSDOF 8
