REMARK  Name = ZINC27224880
REMARK  15 active torsions:
REMARK  status: ('A' for Active; 'I' for Inactive)
REMARK    1  A    between atoms: C_1  and  C_2
REMARK    2  A    between atoms: C_2  and  C_3
REMARK    3  A    between atoms: C_3  and  O_4
REMARK    4  A    between atoms: O_4  and  C_5
REMARK    5  A    between atoms: C_8  and  C_14
REMARK    6  A    between atoms: C_10  and  O_11
REMARK    7  A    between atoms: O_11  and  C_12
REMARK    8  A    between atoms: C_12  and  C_13
REMARK    9  A    between atoms: C_23  and  C_31
REMARK   10  A    between atoms: C_24  and  N_30
REMARK   11  A    between atoms: C_25  and  C_26
REMARK   12  A    between atoms: C_25  and  C_28
REMARK   13  A    between atoms: C_33  and  O_35
REMARK   14  A    between atoms: O_35  and  C_36
REMARK   15  A    between atoms: C_36  and  C_37
REMARK                            x       y       z     vdW  Elec       q    Type
REMARK                         _______ _______ _______ _____ _____    ______ ____
ROOT
ATOM      1  C   UNL     1       3.715  -0.701  -0.037  0.00  0.00    +0.068 C 
ATOM      2  C   UNL     1       4.583  -0.223   1.128  0.00  0.00    +0.048 C 
ATOM      3  C   UNL     1       4.063  -0.708   2.461  0.00  0.00    +0.120 C 
ATOM      4  N   UNL     1       3.425   0.379   3.211  0.00  0.00    -0.263 N 
ATOM      5  C   UNL     1       4.203   1.617   3.397  0.00  0.00    +0.138 C 
ATOM      6  C   UNL     1       4.593   2.104   2.024  0.00  0.00    -0.003 C 
ATOM      7  C   UNL     1       4.742   1.264   1.019  0.00  0.00    -0.026 C 
ATOM      8  C   UNL     1       5.080   1.801  -0.327  0.00  0.00    +0.074 C 
ATOM      9  C   UNL     1       4.924   1.007  -1.416  0.00  0.00    +0.054 C 
ATOM     10  C   UNL     1       4.447  -0.412  -1.349  0.00  0.00    +0.188 C 
ATOM     11  C   UNL     1       2.179   0.251   3.710  0.00  0.00    +0.403 C 
ATOM     12  O   UNL     1       1.560  -0.781   3.542  0.00  0.00    -0.226 OA
ENDROOT
BRANCH   1  16
ATOM     13  C   UNL     1      -0.022   1.377   0.013  0.00  0.00    +0.162 A 
ATOM     14  C   UNL     1       0.088   0.130   0.607  0.00  0.00    +0.050 A 
ATOM     15  C   UNL     1       1.298  -0.539   0.588  0.00  0.00    +0.008 A 
ATOM     16  C   UNL     1       2.399   0.033  -0.021  0.00  0.00    -0.037 A 
ATOM     17  C   UNL     1       2.295   1.277  -0.615  0.00  0.00    +0.053 A 
ATOM     18  C   UNL     1       1.086   1.953  -0.601  0.00  0.00    +0.162 A 
BRANCH  13  19
ATOM     19  O   UNL     1      -1.210   2.039   0.034  0.00  0.00    -0.488 OA
BRANCH  19  20
ATOM     20  C   UNL     1      -2.305   1.388   0.682  0.00  0.00    +0.229 C 
BRANCH  20  22
ATOM     21  C   UNL     1      -4.718   1.581   1.298  0.00  0.00    +0.007 C 
ATOM     22  C   UNL     1      -3.546   2.279   0.605  0.00  0.00    +0.038 C 
ENDBRANCH  20  22
ENDBRANCH  19  20
ENDBRANCH  13  19
BRANCH  18  23
ATOM     23  O   UNL     1       0.983   3.177  -1.185  0.00  0.00    -0.489 OA
BRANCH  23  24
ATOM     24  C   UNL     1       2.161   3.706  -1.795  0.00  0.00    +0.226 C 
ATOM     25  C   UNL     1       1.853   5.080  -2.394  0.00  0.00    +0.048 C 
ENDBRANCH  23  24
ENDBRANCH  18  23
ENDBRANCH   1  16
BRANCH   9  26
ATOM     26  N   UNL     1       5.218   1.531  -2.643  0.00  0.00    -0.358 N 
ATOM     27  H   UNL     1       5.103   0.915  -3.547  0.00  0.00    +0.142 HD
ATOM     28  H   UNL     1       5.571   2.570  -2.728  0.00  0.00    +0.142 HD
ENDBRANCH   9  26
BRANCH  10  29
ATOM     29  C   UNL     1       5.604  -1.313  -1.461  0.00  0.00    +0.091 C 
ATOM     30  N   UNL     1       6.498  -2.010  -1.548  0.00  0.00    -0.194 NA
ENDBRANCH  10  29
BRANCH  10  31
ATOM     31  C   UNL     1       3.532  -0.664  -2.474  0.00  0.00    +0.091 C 
ATOM     32  N   UNL     1       2.827  -0.859  -3.343  0.00  0.00    -0.194 NA
ENDBRANCH  10  31
BRANCH   8  33
ATOM     33  C   UNL     1       5.565   3.141  -0.471  0.00  0.00    +0.101 C 
ATOM     34  N   UNL     1       5.949   4.204  -0.585  0.00  0.00    -0.191 NA
ENDBRANCH   8  33
BRANCH  11  35
ATOM     35  O   UNL     1       1.620   1.267   4.394  0.00  0.00    -0.451 OA
BRANCH  35  36
ATOM     36  C   UNL     1       0.276   1.059   4.902  0.00  0.00    +0.230 C 
ATOM     37  C   UNL     1      -0.188   2.313   5.646  0.00  0.00    +0.048 C 
ENDBRANCH  35  36
ENDBRANCH  11  35
TORSDOF 12
