REMARK  Name = ZINC40068908
REMARK  5 active torsions:
REMARK  status: ('A' for Active; 'I' for Inactive)
REMARK    1  A    between atoms: C_3  and  C_6
REMARK    2  A    between atoms: C_6  and  C_8
REMARK    3  A    between atoms: C_6  and  N_15
REMARK    4  A    between atoms: N_18  and  N_19
REMARK    5  A    between atoms: C_20  and  C_22
REMARK                            x       y       z     vdW  Elec       q    Type
REMARK                         _______ _______ _______ _____ _____    ______ ____
ROOT
ATOM      1  N   UNL     1       4.587   1.010   0.851  0.00  0.00    -0.287 N 
ATOM      2  C   UNL     1       4.641   1.268   2.173  0.00  0.00    +0.317 C 
ATOM      3  O   UNL     1       4.005   2.194   2.639  0.00  0.00    -0.251 OA
ATOM      4  N   UNL     1       5.401   0.500   2.979  0.00  0.00    -0.218 N 
ATOM      5  H   UNL     1       5.094   0.272   0.480  0.00  0.00    +0.151 HD
ATOM      6  H   UNL     1       5.441   0.685   3.930  0.00  0.00    +0.174 HD
ENDROOT
BRANCH   4   7
ATOM      7  N   UNL     1       6.134  -0.567   2.442  0.00  0.00    -0.229 N 
ATOM      8  C   UNL     1       6.894  -1.335   3.248  0.00  0.00    +0.267 C 
ATOM      9  O   UNL     1       6.943  -1.102   4.441  0.00  0.00    -0.268 OA
ATOM     10  H   UNL     1       6.095  -0.752   1.491  0.00  0.00    +0.173 HD
BRANCH   8  11
ATOM     11  C   UNL     1       7.661  -2.451   2.686  0.00  0.00    +0.076 A 
ATOM     12  C   UNL     1       8.488  -3.353   3.331  0.00  0.00    +0.024 A 
ATOM     13  C   UNL     1       9.095  -4.319   2.543  0.00  0.00    -0.036 A 
ATOM     14  C   UNL     1       8.818  -4.284   1.208  0.00  0.00    -0.006 A 
ATOM     15  S   UNL     1       7.766  -3.005   0.994  0.00  0.00    -0.088 S 
ATOM     16  C   UNL     1       9.349  -5.213   0.156  0.00  0.00    +0.043 C 
ATOM     17  C   UNL     1      10.545  -5.977   0.742  0.00  0.00    +0.005 C 
ATOM     18  C   UNL     1      10.153  -6.526   2.117  0.00  0.00    +0.005 C 
ATOM     19  C   UNL     1      10.031  -5.378   3.119  0.00  0.00    +0.036 C 
ENDBRANCH   8  11
ENDBRANCH   4   7
BRANCH   1  20
ATOM     20  C   UNL     1       3.761   1.845  -0.024  0.00  0.00    +0.142 C 
BRANCH  20  21
ATOM     21  C   UNL     1       4.303   1.790  -1.429  0.00  0.00    -0.022 A 
ATOM     22  C   UNL     1       4.760   0.592  -1.947  0.00  0.00    +0.008 A 
ATOM     23  C   UNL     1       5.258   0.540  -3.235  0.00  0.00    +0.038 A 
ATOM     24  C   UNL     1       5.298   1.689  -4.008  0.00  0.00    +0.123 A 
ATOM     25  C   UNL     1       4.840   2.888  -3.488  0.00  0.00    +0.038 A 
ATOM     26  C   UNL     1       4.338   2.936  -2.202  0.00  0.00    +0.008 A 
ATOM     27  F   UNL     1       5.784   1.639  -5.267  0.00  0.00    -0.205 F 
ENDBRANCH  20  21
BRANCH  20  30
ATOM     28  C   UNL     1      -0.016   1.351   0.009  0.00  0.00    +0.008 A 
ATOM     29  C   UNL     1       1.183   2.038   0.002  0.00  0.00    +0.013 A 
ATOM     30  C   UNL     1       2.343   1.336  -0.013  0.00  0.00    +0.014 A 
ATOM     31  S   UNL     1       1.754  -0.349  -0.017  0.00  0.00    -0.099 S 
ATOM     32  C   UNL     1       0.002  -0.004   0.002  0.00  0.00    +0.045 A 
ENDBRANCH  20  30
ENDBRANCH   1  20
TORSDOF 5
