REMARK  Name = ZINC13615533
REMARK  7 active torsions:
REMARK  status: ('A' for Active; 'I' for Inactive)
REMARK    1  A    between atoms: C_1  and  C_2
REMARK    2  A    between atoms: C_2  and  O_3
REMARK    3  A    between atoms: O_3  and  C_4
REMARK    4  A    between atoms: C_8  and  N_10
REMARK    5  A    between atoms: C_14  and  C_23
REMARK    6  A    between atoms: C_23  and  C_24
REMARK    7  A    between atoms: C_23  and  C_25
REMARK                            x       y       z     vdW  Elec       q    Type
REMARK                         _______ _______ _______ _____ _____    ______ ____
ROOT
ATOM      1  C   UNL     1       0.688   5.075   2.952  0.00  0.00    +0.123 A 
ATOM      2  C   UNL     1       0.939   3.719   3.067  0.00  0.00    +0.051 A 
ATOM      3  C   UNL     1       1.080   2.928   1.934  0.00  0.00    -0.014 A 
ATOM      4  C   UNL     1       0.971   3.507   0.684  0.00  0.00    +0.062 A 
ATOM      5  C   UNL     1       0.716   4.873   0.569  0.00  0.00    +0.151 A 
ATOM      6  C   UNL     1       0.576   5.654   1.697  0.00  0.00    +0.080 A 
ATOM      7  N   UNL     1       1.106   2.766  -0.493  0.00  0.00    -0.338 N 
ATOM      8  C   UNL     1       0.718   1.368  -0.298  0.00  0.00    +0.077 C 
ATOM      9  C   UNL     1       1.569   0.738   0.793  0.00  0.00    +0.024 C 
ATOM     10  C   UNL     1       1.348   1.460   2.138  0.00  0.00    +0.048 C 
ATOM     11  C   UNL     1       2.692   1.319   2.833  0.00  0.00    -0.023 C 
ATOM     12  C   UNL     1       3.639   1.088   1.960  0.00  0.00    -0.030 C 
ATOM     13  C   UNL     1       3.067   1.044   0.555  0.00  0.00    +0.033 C 
ATOM     14  H   UNL     1       0.583   3.185  -1.247  0.00  0.00    +0.146 HD
ENDROOT
BRANCH   5  15
ATOM     15  N   UNL     1       0.597   5.489  -0.771  0.00  0.00    +0.058 N 
ATOM     16  O   UNL     1       1.310   5.107  -1.683  0.00  0.00    -0.126 OA
ATOM     17  O   UNL     1      -0.214   6.377  -0.964  0.00  0.00    -0.126 OA
ENDBRANCH   5  15
BRANCH   8  18
ATOM     18  C   UNL     1      -0.756   1.302   0.106  0.00  0.00    +0.003 C 
ATOM     19  C   UNL     1      -1.173  -0.160   0.276  0.00  0.00    +0.009 C 
ATOM     20  C   UNL     1      -1.612   1.953  -0.982  0.00  0.00    +0.009 C 
ENDBRANCH   8  18
BRANCH   1  21
ATOM     21  O   UNL     1       0.551   5.839   4.069  0.00  0.00    -0.492 OA
BRANCH  21  23
ATOM     22  C   UNL     1       0.172   7.922   5.235  0.00  0.00    +0.048 C 
ATOM     23  C   UNL     1       0.293   7.231   3.875  0.00  0.00    +0.225 C 
ENDBRANCH  21  23
ENDBRANCH   1  21
TORSDOF 4
