REMARK  Name = ZINC13418224
REMARK  8 active torsions:
REMARK  status: ('A' for Active; 'I' for Inactive)
REMARK    1  A    between atoms: C_1  and  C_2
REMARK    2  A    between atoms: C_7  and  N_8
REMARK    3  A    between atoms: C_9  and  C_11
REMARK    4  A    between atoms: C_11  and  N_12
REMARK    5  A    between atoms: C_13  and  C_15
REMARK    6  A    between atoms: C_15  and  N_16
REMARK    7  A    between atoms: C_23  and  C_28
REMARK    8  A    between atoms: C_24  and  C_26
REMARK                            x       y       z     vdW  Elec       q    Type
REMARK                         _______ _______ _______ _____ _____    ______ ____
ROOT
ATOM      1  N   UNL     1      -4.014   0.219   1.690  0.00  0.00    -0.305 N 
ATOM      2  C   UNL     1      -2.880   0.903   1.442  0.00  0.00    +0.233 C 
ATOM      3  O   UNL     1      -2.202   1.306   2.363  0.00  0.00    -0.274 OA
ATOM      4  H   UNL     1      -4.557  -0.103   0.953  0.00  0.00    +0.149 HD
ENDROOT
BRANCH   1   5
ATOM      5  C   UNL     1      -4.428  -0.039   3.071  0.00  0.00    +0.200 C 
BRANCH   5   7
ATOM      6  N   UNL     1      -6.292  -1.168   4.240  0.00  0.00    -0.284 N 
ATOM      7  C   UNL     1      -5.719  -0.816   3.073  0.00  0.00    +0.234 C 
ATOM      8  O   UNL     1      -6.242  -1.125   2.023  0.00  0.00    -0.274 OA
ATOM      9  H   UNL     1      -5.835  -0.993   5.078  0.00  0.00    +0.155 HD
BRANCH   6  16
ATOM     10  C   UNL     1      -6.966  -2.821   6.456  0.00  0.00    +0.046 C 
ATOM     11  C   UNL     1      -7.917  -2.603   5.307  0.00  0.00    -0.028 A 
ATOM     12  C   UNL     1      -9.158  -3.209   5.311  0.00  0.00    +0.020 A 
ATOM     13  C   UNL     1     -10.028  -3.013   4.254  0.00  0.00    +0.018 A 
ATOM     14  C   UNL     1      -9.661  -2.206   3.192  0.00  0.00    +0.017 A 
ATOM     15  C   UNL     1      -8.423  -1.593   3.185  0.00  0.00    +0.024 A 
ATOM     16  C   UNL     1      -7.547  -1.788   4.245  0.00  0.00    +0.036 A 
ATOM     17 BR   UNL     1     -11.724  -3.851   4.260  0.00  0.00    -0.050 Br
ENDBRANCH   6  16
ENDBRANCH   5   7
ENDBRANCH   1   5
BRANCH   2  18
ATOM     18  C   UNL     1      -2.455   1.168   0.021  0.00  0.00    +0.221 C 
BRANCH  18  19
ATOM     19  N   UNL     1      -1.200   1.924   0.019  0.00  0.00    -0.290 N 
ATOM     20  C   UNL     1      -1.241   3.279   0.030  0.00  0.00    +0.203 A 
ATOM     21  N   UNL     1      -0.154   4.002   0.024  0.00  0.00    -0.230 NA
ATOM     22  C   UNL     1       1.051   3.447   0.012  0.00  0.00    +0.116 A 
ATOM     23  C   UNL     1       1.226   2.044   0.005  0.00  0.00    +0.076 A 
ATOM     24  C   UNL     1      -0.029   1.258   0.013  0.00  0.00    +0.263 A 
ATOM     25  O   UNL     1      -0.002   0.040   0.007  0.00  0.00    -0.267 OA
ATOM     26  C   UNL     1       2.548   1.596  -0.008  0.00  0.00    -0.015 A 
ATOM     27  C   UNL     1       3.571   2.500  -0.013  0.00  0.00    +0.106 A 
ATOM     28  S   UNL     1       2.715   4.066   0.000  0.00  0.00    -0.062 S 
ATOM     29  C   UNL     1       2.845   0.119  -0.017  0.00  0.00    +0.046 C 
BRANCH  27  30
ATOM     30  C   UNL     1       5.014   2.247  -0.025  0.00  0.00    +0.393 C 
ATOM     31  O   UNL     1       5.431   1.105  -0.033  0.00  0.00    -0.240 OA
ATOM     32  O   UNL     1       5.880   3.282  -0.028  0.00  0.00    -0.240 OA
ENDBRANCH  27  30
ENDBRANCH  18  19
ENDBRANCH   2  18
TORSDOF 6
