REMARK  Name = ZINC12243858
REMARK  12 active torsions:
REMARK  status: ('A' for Active; 'I' for Inactive)
REMARK    1  A    between atoms: C_1  and  C_2
REMARK    2  A    between atoms: C_3  and  C_7
REMARK    3  A    between atoms: C_7  and  N_62
REMARK    4  A    between atoms: C_8  and  N_62
REMARK    5  A    between atoms: C_9  and  C_10
REMARK    6  A    between atoms: C_9  and  N_62
REMARK    7  A    between atoms: C_14  and  N_23
REMARK    8  A    between atoms: C_15  and  C_19
REMARK    9  A    between atoms: C_19  and  O_21
REMARK   10  A    between atoms: O_21  and  C_22
REMARK   11  A    between atoms: C_24  and  C_26
REMARK   12  A    between atoms: C_26  and  C_27
REMARK                            x       y       z     vdW  Elec       q    Type
REMARK                         _______ _______ _______ _____ _____    ______ ____
ROOT
ATOM      1  C   UNL     1       0.752   2.274  -9.877  0.00  0.00    +0.026 A 
ATOM      2  C   UNL     1       1.540   1.652  -8.919  0.00  0.00    +0.022 A 
ATOM      3  C   UNL     1       1.117   1.576  -7.613  0.00  0.00    +0.014 A 
ATOM      4  C   UNL     1      -0.134   2.143  -7.262  0.00  0.00    +0.030 A 
ATOM      5  C   UNL     1      -0.780   2.182  -5.960  0.00  0.00    +0.064 A 
ATOM      6  C   UNL     1      -2.013   2.788  -5.859  0.00  0.00    +0.120 A 
ATOM      7  S   UNL     1      -2.339   3.338  -7.523  0.00  0.00    -0.060 S 
ATOM      8  C   UNL     1      -0.860   2.753  -8.311  0.00  0.00    +0.111 A 
ATOM      9  N   UNL     1      -0.411   2.799  -9.547  0.00  0.00    -0.246 NA
ENDROOT
BRANCH   5  10
ATOM     10  N   UNL     1      -0.171   1.616  -4.845  0.00  0.00    -0.284 N 
ATOM     11  C   UNL     1       1.169   1.673  -4.708  0.00  0.00    +0.218 C 
ATOM     12  O   UNL     1       1.836   2.287  -5.514  0.00  0.00    -0.275 OA
ATOM     13  H   UNL     1      -0.710   1.181  -4.166  0.00  0.00    +0.155 HD
BRANCH  11  14
ATOM     14  C   UNL     1       1.838   0.972  -3.553  0.00  0.00    +0.099 C 
BRANCH  14  15
ATOM     15  C   UNL     1       3.328   1.321  -3.540  0.00  0.00    -0.002 C 
ATOM     16  C   UNL     1       4.037   0.489  -2.470  0.00  0.00    +0.004 C 
ATOM     17  C   UNL     1       5.527   0.837  -2.457  0.00  0.00    +0.000 C 
ATOM     18  C   UNL     1       5.700   2.325  -2.144  0.00  0.00    +0.000 C 
ATOM     19  C   UNL     1       4.991   3.157  -3.215  0.00  0.00    +0.000 C 
ATOM     20  C   UNL     1       3.501   2.808  -3.228  0.00  0.00    +0.004 C 
ENDBRANCH  14  15
ENDBRANCH  11  14
ENDBRANCH   5  10
BRANCH   6  21
ATOM     21  C   UNL     1      -2.826   2.940  -4.708  0.00  0.00    +0.348 C 
ATOM     22  O   UNL     1      -2.411   2.588  -3.620  0.00  0.00    -0.244 OA
BRANCH  21  23
ATOM     23  O   UNL     1      -4.060   3.474  -4.820  0.00  0.00    -0.464 OA
ATOM     24  C   UNL     1      -4.825   3.597  -3.619  0.00  0.00    +0.280 C 
ENDBRANCH  21  23
ENDBRANCH   6  21
BRANCH   1  25
ATOM     25  C   UNL     1       1.230   2.349 -11.304  0.00  0.00    -0.022 C 
BRANCH  25  27
ATOM     26  C   UNL     1       1.193  -0.055 -11.591  0.00  0.00    -0.095 C 
ATOM     27  N   UNL     1       0.636   1.230 -12.065  0.00  0.00    +0.385 N 
ATOM     28  H   UNL     1      -0.380   1.227 -11.917  0.00  0.00    -0.081 HD
BRANCH  27  29
ATOM     29  C   UNL     1       0.911   1.397 -13.508  0.00  0.00    -0.017 C 
BRANCH  29  32
ATOM     30  C   UNL     1      -2.023   1.804 -14.582  0.00  0.00    +0.071 C 
ATOM     31  C   UNL     1      -1.197   0.556 -14.757  0.00  0.00    +0.103 A 
ATOM     32  C   UNL     1       0.115   0.374 -14.277  0.00  0.00    +0.091 A 
ATOM     33  N   UNL     1       0.534  -0.811 -14.604  0.00  0.00    -0.056 NA
ATOM     34  O   UNL     1      -0.515  -1.452 -15.313  0.00  0.00    -0.242 OA
ATOM     35  N   UNL     1      -1.583  -0.520 -15.375  0.00  0.00    -0.054 NA
ENDBRANCH  29  32
ENDBRANCH  27  29
ENDBRANCH  25  27
ENDBRANCH   1  25
TORSDOF 9
