REMARK  Name = ZINC11426004
REMARK  8 active torsions:
REMARK  status: ('A' for Active; 'I' for Inactive)
REMARK    1  A    between atoms: C_6  and  C_7
REMARK    2  A    between atoms: C_7  and  C_8
REMARK    3  A    between atoms: C_8  and  N_9
REMARK    4  A    between atoms: C_10  and  C_12
REMARK    5  A    between atoms: C_12  and  S_13
REMARK    6  A    between atoms: S_13  and  C_14
REMARK    7  A    between atoms: C_17  and  C_20
REMARK    8  A    between atoms: N_18  and  N_19
REMARK                            x       y       z     vdW  Elec       q    Type
REMARK                         _______ _______ _______ _____ _____    ______ ____
ROOT
ATOM      1  C   UNL     1       7.042  -3.316  -2.705  0.00  0.00    +0.173 C 
ENDROOT
BRANCH   1   3
ATOM      2  N   UNL     1       4.991  -2.638  -1.499  0.00  0.00    -0.314 N 
ATOM      3  C   UNL     1       5.630  -2.788  -2.676  0.00  0.00    +0.223 C 
ATOM      4  O   UNL     1       5.070  -2.499  -3.712  0.00  0.00    -0.275 OA
ATOM      5  H   UNL     1       5.439  -2.870  -0.670  0.00  0.00    +0.149 HD
BRANCH   2   6
ATOM      6  C   UNL     1       3.619  -2.125  -1.471  0.00  0.00    +0.109 C 
BRANCH   6   7
ATOM      7  C   UNL     1       3.131  -2.052  -0.023  0.00  0.00    +0.054 C 
BRANCH   7  13
ATOM      8  C   UNL     1       0.654  -2.401  -0.066  0.00  0.00    +0.007 A 
ATOM      9  C   UNL     1      -0.642  -1.921  -0.042  0.00  0.00    +0.050 A 
ATOM     10  C   UNL     1      -0.876  -0.558   0.055  0.00  0.00    +0.162 A 
ATOM     11  C   UNL     1       0.196   0.324   0.131  0.00  0.00    +0.162 A 
ATOM     12  C   UNL     1       1.494  -0.165   0.105  0.00  0.00    +0.053 A 
ATOM     13  C   UNL     1       1.720  -1.525   0.006  0.00  0.00    -0.042 A 
ATOM     14  O   UNL     1      -0.011   1.665   0.235  0.00  0.00    -0.485 OA
ATOM     15  C   UNL     1      -1.313   2.144  -0.118  0.00  0.00    +0.270 C 
ATOM     16  C   UNL     1      -2.356   1.237   0.548  0.00  0.00    +0.270 C 
ATOM     17  O   UNL     1      -2.157  -0.099   0.070  0.00  0.00    -0.485 OA
ENDBRANCH   7  13
ENDBRANCH   6   7
ENDBRANCH   2   6
ENDBRANCH   1   3
BRANCH   1  18
ATOM     18  S   UNL     1       7.619  -3.402  -4.418  0.00  0.00    -0.075 S 
BRANCH  18  19
ATOM     19  C   UNL     1       9.244  -4.032  -4.162  0.00  0.00    +0.209 A 
ATOM     20  N   UNL     1       9.795  -4.321  -3.004  0.00  0.00    -0.121 NA
ATOM     21  N   UNL     1      10.989  -4.761  -3.181  0.00  0.00    -0.127 NA
ATOM     22  C   UNL     1      11.278  -4.772  -4.462  0.00  0.00    +0.183 A 
ATOM     23  N   UNL     1      10.169  -4.305  -5.130  0.00  0.00    -0.224 N 
BRANCH  22  24
ATOM     24  C   UNL     1      12.553  -5.204  -5.072  0.00  0.00    +0.039 A 
ATOM     25  C   UNL     1      13.165  -4.418  -6.049  0.00  0.00    +0.014 A 
ATOM     26  C   UNL     1      14.357  -4.824  -6.610  0.00  0.00    +0.021 A 
ATOM     27  C   UNL     1      14.943  -6.015  -6.215  0.00  0.00    +0.042 A 
ATOM     28  C   UNL     1      14.339  -6.802  -5.250  0.00  0.00    +0.040 A 
ATOM     29  C   UNL     1      13.148  -6.404  -4.676  0.00  0.00    +0.053 A 
ATOM     30 CL   UNL     1      12.391  -7.394  -3.467  0.00  0.00    -0.083 Cl
ATOM     31 CL   UNL     1      16.441  -6.521  -6.931  0.00  0.00    -0.083 Cl
ENDBRANCH  22  24
BRANCH  23  32
ATOM     32  N   UNL     1      10.024  -4.148  -6.479  0.00  0.00    -0.295 N 
ATOM     33  H   UNL     1      10.393  -3.259  -6.781  0.00  0.00    +0.163 HD
ATOM     34  H   UNL     1      10.456  -4.909  -6.980  0.00  0.00    +0.163 HD
ENDBRANCH  23  32
ENDBRANCH  18  19
ENDBRANCH   1  18
TORSDOF 8
