REMARK  Name = ZINC39853934
REMARK  7 active torsions:
REMARK  status: ('A' for Active; 'I' for Inactive)
REMARK    1  A    between atoms: C_1  and  C_2
REMARK    2  A    between atoms: C_5  and  O_8
REMARK    3  A    between atoms: O_8  and  C_9
REMARK    4  A    between atoms: C_9  and  C_10
REMARK    5  A    between atoms: C_10  and  N_11
REMARK    6  A    between atoms: C_15  and  C_23
REMARK    7  A    between atoms: N_19  and  O_20
REMARK                            x       y       z     vdW  Elec       q    Type
REMARK                         _______ _______ _______ _____ _____    ______ ____
ROOT
ATOM      1  N   UNL     1       1.344  -6.688   0.389  0.00  0.00    -0.262 N 
ATOM      2  C   UNL     1       1.522  -6.754  -0.990  0.00  0.00    +0.046 A 
ATOM      3  C   UNL     1       0.653  -6.499  -2.045  0.00  0.00    +0.024 A 
ATOM      4  C   UNL     1       1.083  -6.642  -3.348  0.00  0.00    +0.005 A 
ATOM      5  C   UNL     1       2.381  -7.040  -3.623  0.00  0.00    -0.050 A 
ATOM      6  C   UNL     1       3.258  -7.298  -2.588  0.00  0.00    +0.015 A 
ATOM      7  C   UNL     1       2.834  -7.156  -1.272  0.00  0.00    +0.030 A 
ATOM      8  C   UNL     1       3.504  -7.349   0.036  0.00  0.00    +0.173 C 
ATOM      9  N   UNL     1       4.733  -7.722   0.251  0.00  0.00    -0.082 NA
ATOM     10  C   UNL     1       2.467  -7.019   1.048  0.00  0.00    +0.273 C 
ATOM     11  O   UNL     1       2.609  -7.046   2.255  0.00  0.00    -0.268 OA
ATOM     12  C   UNL     1       2.836  -7.193  -5.051  0.00  0.00    +0.044 C 
ENDROOT
BRANCH   9  13
ATOM     13  O   UNL     1       5.211  -7.856   1.578  0.00  0.00    -0.409 OA
ATOM     14  H   UNL     1       6.134  -8.137   1.637  0.00  0.00    +0.328 HD
ENDBRANCH   9  13
BRANCH   1  15
ATOM     15  C   UNL     1       0.090  -6.300   1.040  0.00  0.00    +0.155 C 
BRANCH  15  16
ATOM     16  C   UNL     1       0.072  -4.785   1.249  0.00  0.00    +0.248 C 
BRANCH  16  17
ATOM     17  O   UNL     1       0.057  -4.129  -0.021  0.00  0.00    -0.490 OA
BRANCH  17  22
ATOM     18  C   UNL     1      -0.018   1.503   0.010  0.00  0.00    +0.044 C 
ATOM     19  C   UNL     1       0.002  -0.004   0.002  0.00  0.00    -0.050 A 
ATOM     20  C   UNL     1       0.006  -0.688  -1.200  0.00  0.00    +0.007 A 
ATOM     21  C   UNL     1       0.024  -2.069  -1.210  0.00  0.00    +0.046 A 
ATOM     22  C   UNL     1       0.039  -2.770  -0.013  0.00  0.00    +0.121 A 
ATOM     23  C   UNL     1       0.036  -2.082   1.191  0.00  0.00    +0.046 A 
ATOM     24  C   UNL     1       0.023  -0.701   1.196  0.00  0.00    +0.007 A 
ENDBRANCH  17  22
ENDBRANCH  16  17
ENDBRANCH  15  16
ENDBRANCH   1  15
TORSDOF 5
