REMARK  Name = ZINC36848253
REMARK  5 active torsions:
REMARK  status: ('A' for Active; 'I' for Inactive)
REMARK    1  A    between atoms: C_1  and  C_2
REMARK    2  A    between atoms: C_2  and  C_21
REMARK    3  A    between atoms: N_5  and  C_9
REMARK    4  A    between atoms: C_9  and  C_10
REMARK    5  A    between atoms: N_12  and  C_13
REMARK                            x       y       z     vdW  Elec       q    Type
REMARK                         _______ _______ _______ _____ _____    ______ ____
ROOT
ATOM      1  C   UNL     1       0.074   1.411   0.103  0.00  0.00    +0.047 C 
ATOM      2  C   UNL     1      -0.013  -0.117   0.062  0.00  0.00    +0.136 C 
ATOM      3  C   UNL     1      -1.444  -0.575   0.263  0.00  0.00    +0.251 C 
ATOM      4  O   UNL     1      -2.398  -0.328  -0.443  0.00  0.00    -0.272 OA
ATOM      5  N   UNL     1      -1.435  -1.316   1.389  0.00  0.00    -0.215 N 
ATOM      6  C   UNL     1      -0.209  -1.388   1.921  0.00  0.00    +0.310 C 
ATOM      7  O   UNL     1       0.050  -2.000   2.939  0.00  0.00    -0.252 OA
ATOM      8  N   UNL     1       0.704  -0.707   1.205  0.00  0.00    -0.281 N 
ATOM      9  H   UNL     1       1.649  -0.623   1.403  0.00  0.00    +0.152 HD
ENDROOT
BRANCH   2  10
ATOM     10  C   UNL     1       0.538  -0.642  -1.239  0.00  0.00    -0.008 A 
ATOM     11  C   UNL     1       1.589  -1.507  -1.236  0.00  0.00    +0.007 A 
ATOM     12  C   UNL     1       2.112  -2.004  -2.428  0.00  0.00    +0.001 A 
ATOM     13  C   UNL     1       1.588  -1.638  -3.630  0.00  0.00    +0.008 A 
ATOM     14  C   UNL     1       0.502  -0.747  -3.672  0.00  0.00    -0.018 A 
ATOM     15  C   UNL     1      -0.034  -0.247  -2.459  0.00  0.00    -0.012 A 
ATOM     16  C   UNL     1      -1.124   0.640  -2.502  0.00  0.00    +0.009 A 
ATOM     17  C   UNL     1      -1.652   1.000  -3.703  0.00  0.00    +0.001 A 
ATOM     18  C   UNL     1      -1.129   0.503  -4.895  0.00  0.00    +0.001 A 
ATOM     19  C   UNL     1      -0.066  -0.346  -4.894  0.00  0.00    +0.008 A 
ENDBRANCH   2  10
BRANCH   5  20
ATOM     20  C   UNL     1      -2.619  -1.961   1.959  0.00  0.00    +0.214 C 
BRANCH  20  21
ATOM     21  C   UNL     1      -2.761  -3.348   1.386  0.00  0.00    +0.235 C 
ATOM     22  O   UNL     1      -1.952  -3.756   0.580  0.00  0.00    -0.274 OA
ATOM     23  N   UNL     1      -3.787  -4.133   1.769  0.00  0.00    -0.282 N 
ATOM     24  H   UNL     1      -4.476  -3.781   2.353  0.00  0.00    +0.155 HD
BRANCH  23  25
ATOM     25  C   UNL     1      -3.859  -5.459   1.322  0.00  0.00    +0.069 A 
ATOM     26  C   UNL     1      -2.705  -6.125   0.934  0.00  0.00    +0.027 A 
ATOM     27  C   UNL     1      -2.778  -7.433   0.494  0.00  0.00    +0.017 A 
ATOM     28  C   UNL     1      -4.000  -8.079   0.438  0.00  0.00    +0.021 A 
ATOM     29  C   UNL     1      -5.153  -7.418   0.823  0.00  0.00    +0.055 A 
ATOM     30  C   UNL     1      -5.086  -6.111   1.270  0.00  0.00    +0.146 A 
ATOM     31  F   UNL     1      -6.211  -5.468   1.652  0.00  0.00    -0.204 F 
ATOM     32 BR   UNL     1      -4.094  -9.868  -0.166  0.00  0.00    -0.050 Br
ENDBRANCH  23  25
ENDBRANCH  20  21
ENDBRANCH   5  20
TORSDOF 4
