REMARK  Name = ZINC66698153
REMARK  6 active torsions:
REMARK  status: ('A' for Active; 'I' for Inactive)
REMARK    1  A    between atoms: C_4  and  C_7
REMARK    2  A    between atoms: C_7  and  C_9
REMARK    3  A    between atoms: C_7  and  N_14
REMARK    4  A    between atoms: N_17  and  C_18
REMARK    5  A    between atoms: C_18  and  C_19
REMARK    6  A    between atoms: C_23  and  C_25
REMARK                            x       y       z     vdW  Elec       q    Type
REMARK                         _______ _______ _______ _____ _____    ______ ____
ROOT
ATOM      1  N   UNL     1       3.611  -1.865  -0.930  0.00  0.00    -0.286 N 
ATOM      2  C   UNL     1       4.721  -2.370  -1.504  0.00  0.00    +0.301 C 
ATOM      3  O   UNL     1       5.805  -1.866  -1.281  0.00  0.00    -0.253 OA
ATOM      4  N   UNL     1       4.629  -3.435  -2.325  0.00  0.00    -0.292 N 
ATOM      5  H   UNL     1       2.747  -2.267  -1.108  0.00  0.00    +0.151 HD
ATOM      6  H   UNL     1       3.765  -3.837  -2.503  0.00  0.00    +0.151 HD
ENDROOT
BRANCH   1   7
ATOM      7  C   UNL     1       3.711  -0.707  -0.038  0.00  0.00    +0.171 C 
BRANCH   7  11
ATOM      8  C   UNL     1      -0.017   1.378   0.010  0.00  0.00    +0.000 A 
ATOM      9  C   UNL     1       1.171   2.086   0.002  0.00  0.00    +0.000 A 
ATOM     10  C   UNL     1       2.377   1.411  -0.013  0.00  0.00    +0.006 A 
ATOM     11  C   UNL     1       2.396   0.029  -0.020  0.00  0.00    -0.020 A 
ATOM     12  C   UNL     1       1.208  -0.679  -0.012  0.00  0.00    +0.006 A 
ATOM     13  C   UNL     1       0.002  -0.004   0.002  0.00  0.00    +0.000 A 
ENDBRANCH   7  11
BRANCH   7  14
ATOM     14  C   UNL     1       4.044  -1.175   1.356  0.00  0.00    +0.129 A 
ATOM     15  C   UNL     1       4.893  -0.570   2.207  0.00  0.00    +0.047 A 
ATOM     16  C   UNL     1       4.904  -1.342   3.391  0.00  0.00    +0.041 A 
ATOM     17  C   UNL     1       4.061  -2.372   3.193  0.00  0.00    +0.195 A 
ATOM     18  O   UNL     1       3.539  -2.262   1.961  0.00  0.00    -0.466 OA
ENDBRANCH   7  14
ENDBRANCH   1   7
BRANCH   4  19
ATOM     19  C   UNL     1       5.835  -3.985  -2.949  0.00  0.00    +0.181 C 
BRANCH  19  20
ATOM     20  C   UNL     1       5.462  -5.162  -3.813  0.00  0.00    +0.143 A 
ATOM     21  N   UNL     1       5.229  -5.124  -5.137  0.00  0.00    -0.261 N 
ATOM     22  H   UNL     1       5.268  -4.343  -5.711  0.00  0.00    +0.190 HD
ATOM     23  N   UNL     1       4.917  -6.436  -5.527  0.00  0.00    -0.152 NA
ATOM     24  C   UNL     1       4.978  -7.178  -4.440  0.00  0.00    +0.188 A 
ATOM     25  N   UNL     1       5.315  -6.395  -3.405  0.00  0.00    -0.209 NA
BRANCH  24  26
ATOM     26  C   UNL     1       4.723  -8.633  -4.374  0.00  0.00    +0.058 A 
ATOM     27  C   UNL     1       4.388  -9.497  -5.381  0.00  0.00    +0.019 A 
ATOM     28  C   UNL     1       4.198 -10.827  -5.077  0.00  0.00    +0.008 A 
ATOM     29  C   UNL     1       4.348 -11.240  -3.793  0.00  0.00    +0.046 A 
ATOM     30  S   UNL     1       4.780  -9.722  -2.960  0.00  0.00    -0.093 S 
ENDBRANCH  24  26
ENDBRANCH  19  20
ENDBRANCH   4  19
TORSDOF 6
