REMARK  Name = ZINC13044084
REMARK  12 active torsions:
REMARK  status: ('A' for Active; 'I' for Inactive)
REMARK    1  A    between atoms: C_1  and  C_2
REMARK    2  A    between atoms: C_2  and  C_3
REMARK    3  A    between atoms: C_3  and  C_4
REMARK    4  A    between atoms: C_4  and  N_5
REMARK    5  A    between atoms: C_11  and  C_32
REMARK    6  A    between atoms: C_15  and  S_16
REMARK    7  A    between atoms: S_16  and  C_17
REMARK    8  A    between atoms: C_17  and  C_19
REMARK    9  A    between atoms: C_17  and  C_20
REMARK   10  A    between atoms: N_22  and  C_23
REMARK   11  A    between atoms: C_26  and  C_29
REMARK   12  A    between atoms: C_29  and  C_31
REMARK                            x       y       z     vdW  Elec       q    Type
REMARK                         _______ _______ _______ _____ _____    ______ ____
ROOT
ATOM      1  N   UNL     1       0.317   0.881   2.136  0.00  0.00    -0.287 N 
ATOM      2  C   UNL     1       1.281   1.644   2.701  0.00  0.00    +0.262 A 
ATOM      3  O   UNL     1       1.694   2.648   2.150  0.00  0.00    -0.267 OA
ATOM      4  C   UNL     1       1.812   1.217   4.005  0.00  0.00    +0.065 A 
ATOM      5  C   UNL     1       2.807   1.939   4.663  0.00  0.00    +0.016 A 
ATOM      6  C   UNL     1       3.274   1.509   5.872  0.00  0.00    +0.016 A 
ATOM      7  C   UNL     1       2.761   0.346   6.461  0.00  0.00    +0.065 A 
ATOM      8  C   UNL     1       1.770  -0.389   5.823  0.00  0.00    +0.043 A 
ATOM      9  C   UNL     1       1.284   0.041   4.585  0.00  0.00    +0.080 A 
ATOM     10  N   UNL     1       0.319  -0.643   3.928  0.00  0.00    -0.223 NA
ATOM     11  C   UNL     1      -0.141  -0.239   2.769  0.00  0.00    +0.173 A 
ENDROOT
BRANCH   7  12
ATOM     12  C   UNL     1       3.280  -0.104   7.771  0.00  0.00    +0.387 C 
ATOM     13  O   UNL     1       2.839  -1.111   8.286  0.00  0.00    -0.241 OA
ATOM     14  O   UNL     1       4.242   0.605   8.394  0.00  0.00    -0.241 OA
ENDBRANCH   7  12
BRANCH   1  15
ATOM     15  C   UNL     1      -0.246   1.264   0.839  0.00  0.00    +0.127 C 
BRANCH  15  16
ATOM     16  C   UNL     1       0.569   0.614  -0.281  0.00  0.00    +0.021 C 
BRANCH  16  18
ATOM     17  C   UNL     1       0.797   0.363  -2.757  0.00  0.00    +0.004 C 
ATOM     18  C   UNL     1      -0.018   1.013  -1.637  0.00  0.00    -0.002 C 
ENDBRANCH  16  18
ENDBRANCH  15  16
ENDBRANCH   1  15
BRANCH  11  19
ATOM     19  S   UNL     1      -1.403  -1.188   1.988  0.00  0.00    -0.075 S 
BRANCH  19  20
ATOM     20  C   UNL     1      -1.615  -2.500   3.217  0.00  0.00    +0.137 C 
ATOM     21  C   UNL     1      -2.156  -1.900   4.516  0.00  0.00    +0.029 C 
BRANCH  20  22
ATOM     22  C   UNL     1      -2.588  -3.526   2.695  0.00  0.00    +0.230 C 
ATOM     23  O   UNL     1      -3.354  -3.234   1.801  0.00  0.00    -0.274 OA
ATOM     24  N   UNL     1      -2.607  -4.766   3.221  0.00  0.00    -0.285 N 
ATOM     25  H   UNL     1      -1.944  -5.023   3.882  0.00  0.00    +0.155 HD
BRANCH  24  26
ATOM     26  C   UNL     1      -3.577  -5.680   2.816  0.00  0.00    +0.033 A 
ATOM     27  C   UNL     1      -3.267  -7.035   2.743  0.00  0.00    +0.024 A 
ATOM     28  C   UNL     1      -4.221  -7.938   2.350  0.00  0.00    +0.013 A 
ATOM     29  C   UNL     1      -5.505  -7.495   2.011  0.00  0.00    +0.017 A 
ATOM     30  C   UNL     1      -5.811  -6.130   2.080  0.00  0.00    +0.013 A 
ATOM     31  C   UNL     1      -4.853  -5.234   2.480  0.00  0.00    +0.024 A 
BRANCH  29  32
ATOM     32  C   UNL     1      -6.528  -8.458   1.584  0.00  0.00    +0.160 C 
ATOM     33  O   UNL     1      -7.640  -8.072   1.291  0.00  0.00    -0.292 OA
ATOM     34  C   UNL     1      -6.196  -9.926   1.510  0.00  0.00    +0.091 C 
ENDBRANCH  29  32
ENDBRANCH  24  26
ENDBRANCH  20  22
ENDBRANCH  19  20
ENDBRANCH  11  19
TORSDOF 9
