REMARK  Name = ZINC11868826
REMARK  14 active torsions:
REMARK  status: ('A' for Active; 'I' for Inactive)
REMARK    1  A    between atoms: C_1  and  C_2
REMARK    2  A    between atoms: C_4  and  N_15
REMARK    3  A    between atoms: N_5  and  C_7
REMARK    4  A    between atoms: C_16  and  C_18
REMARK    5  A    between atoms: C_18  and  O_19
REMARK    6  A    between atoms: O_19  and  C_20
REMARK    7  A    between atoms: C_20  and  C_22
REMARK    8  A    between atoms: C_24  and  C_32
REMARK    9  A    between atoms: C_26  and  C_29
REMARK   10  A    between atoms: C_27  and  O_28
REMARK   11  A    between atoms: C_29  and  C_30
REMARK   12  A    between atoms: C_29  and  C_31
REMARK   13  A    between atoms: C_32  and  C_33
REMARK   14  A    between atoms: C_32  and  C_34
REMARK                            x       y       z     vdW  Elec       q    Type
REMARK                         _______ _______ _______ _____ _____    ______ ____
ROOT
ATOM      1  C   UNL     1       0.044  -4.314  -3.771  0.00  0.00    +0.328 C 
ENDROOT
BRANCH   1   3
ATOM      2  N   UNL     1       0.040  -3.240  -1.543  0.00  0.00    -0.268 N 
ATOM      3  C   UNL     1       0.031  -3.097  -2.883  0.00  0.00    +0.256 C 
ATOM      4  O   UNL     1       0.014  -1.988  -3.375  0.00  0.00    -0.272 OA
ATOM      5  H   UNL     1       0.054  -4.126  -1.150  0.00  0.00    +0.156 HD
BRANCH   2   9
ATOM      6  C   UNL     1      -0.018   1.503   0.010  0.00  0.00    +0.067 C 
ATOM      7  C   UNL     1       0.002  -0.004   0.002  0.00  0.00    +0.062 A 
ATOM      8  C   UNL     1       0.008  -0.816  -1.135  0.00  0.00    +0.068 A 
ATOM      9  C   UNL     1       0.028  -2.113  -0.722  0.00  0.00    +0.124 A 
ATOM     10  N   UNL     1       0.035  -2.110   0.631  0.00  0.00    -0.246 N 
ATOM     11  N   UNL     1       0.023  -0.776   1.058  0.00  0.00    -0.175 NA
BRANCH  10  12
ATOM     12  C   UNL     1       0.056  -3.292   1.496  0.00  0.00    +0.132 C 
ATOM     13  C   UNL     1       1.310  -3.252   2.385  0.00  0.00    +0.051 C 
ATOM     14  C   UNL     1       1.151  -4.330   3.495  0.00  0.00    +0.168 C 
ATOM     15  S   UNL     1      -0.629  -4.116   3.920  0.00  0.00    -0.029 S 
ATOM     16  O   UNL     1      -1.235  -5.397   4.030  0.00  0.00    -0.174 OA
ATOM     17  O   UNL     1      -0.740  -3.196   4.997  0.00  0.00    -0.174 OA
ATOM     18  C   UNL     1      -1.216  -3.306   2.378  0.00  0.00    +0.192 C 
ENDBRANCH  10  12
ENDBRANCH   2   9
ENDBRANCH   1   3
BRANCH   1  19
ATOM     19  O   UNL     1       0.031  -3.906  -5.140  0.00  0.00    -0.452 OA
BRANCH  19  20
ATOM     20  C   UNL     1       0.040  -4.881  -6.070  0.00  0.00    +0.343 C 
ATOM     21  O   UNL     1       0.058  -6.047  -5.727  0.00  0.00    -0.245 OA
BRANCH  20  22
ATOM     22  C   UNL     1       0.029  -4.535  -7.503  0.00  0.00    +0.101 A 
ATOM     23  C   UNL     1       0.014  -3.195  -7.901  0.00  0.00    +0.022 A 
ATOM     24  C   UNL     1       0.003  -2.878  -9.242  0.00  0.00    -0.044 A 
ATOM     25  C   UNL     1       0.006  -3.881 -10.198  0.00  0.00    +0.011 A 
ATOM     26  C   UNL     1       0.020  -5.208  -9.818  0.00  0.00    -0.002 A 
ATOM     27  C   UNL     1       0.038  -5.546  -8.473  0.00  0.00    +0.134 A 
BRANCH  26  28
ATOM     28  C   UNL     1       0.023  -6.290 -10.867  0.00  0.00    +0.016 C 
ATOM     29  C   UNL     1      -1.233  -6.167 -11.731  0.00  0.00    +0.012 C 
ATOM     30  C   UNL     1       1.266  -6.144 -11.747  0.00  0.00    +0.012 C 
ENDBRANCH  26  28
BRANCH  24  31
ATOM     31  C   UNL     1      -0.013  -1.433  -9.671  0.00  0.00    +0.013 C 
ATOM     32  C   UNL     1      -1.265  -0.750  -9.117  0.00  0.00    +0.012 C 
ATOM     33  C   UNL     1       1.233  -0.728  -9.132  0.00  0.00    +0.012 C 
ENDBRANCH  24  31
BRANCH  27  34
ATOM     34  O   UNL     1       0.058  -6.850  -8.099  0.00  0.00    -0.506 OA
ATOM     35  H   UNL     1      -0.820  -7.240  -7.986  0.00  0.00    +0.292 HD
ENDBRANCH  27  34
ENDBRANCH  20  22
ENDBRANCH  19  20
ENDBRANCH   1  19
TORSDOF 9
