REMARK  Name = ZINC38528698
REMARK  8 active torsions:
REMARK  status: ('A' for Active; 'I' for Inactive)
REMARK    1  A    between atoms: C_13  and  C_14
REMARK    2  A    between atoms: C_14  and  O_15
REMARK    3  A    between atoms: O_15  and  C_16
REMARK    4  A    between atoms: N_18  and  CA_19
REMARK    5  A    between atoms: CA_19  and  C_21
REMARK    6  A    between atoms: CA_19  and  C_33
REMARK    7  A    between atoms: C_24  and  N_30
REMARK    8  A    between atoms: C_26  and  N_27
REMARK                            x       y       z     vdW  Elec       q    Type
REMARK                         _______ _______ _______ _____ _____    ______ ____
ROOT
ATOM      1  C   UNL     1       6.287  -1.649  -2.419  0.00  0.00    +0.401 C 
ATOM      2  O   UNL     1       6.120  -0.877  -3.343  0.00  0.00    -0.226 OA
ATOM      3  N   UNL     1       7.395  -2.415  -2.373  0.00  0.00    -0.264 N 
ATOM      4  H   UNL     1       7.528  -3.031  -1.635  0.00  0.00    +0.153 HD
ENDROOT
BRANCH   1   5
ATOM      5  O   UNL     1       5.365  -1.739  -1.442  0.00  0.00    -0.449 OA
BRANCH   5   6
ATOM      6  C   UNL     1       4.215  -0.898  -1.556  0.00  0.00    +0.246 C 
BRANCH   6  19
ATOM      7  C   UNL     1      -0.320   1.112  -0.513  0.00  0.00    +0.001 A 
ATOM      8  C   UNL     1       0.847   1.849  -0.416  0.00  0.00    +0.000 A 
ATOM      9  C   UNL     1       2.071   1.205  -0.362  0.00  0.00    +0.005 A 
ATOM     10  C   UNL     1       2.129  -0.172  -0.403  0.00  0.00    -0.029 A 
ATOM     11  C   UNL     1       0.960  -0.921  -0.500  0.00  0.00    -0.014 A 
ATOM     12  C   UNL     1      -0.271  -0.266  -0.555  0.00  0.00    +0.009 A 
ATOM     13  C   UNL     1       1.300  -2.366  -0.527  0.00  0.00    -0.014 A 
ATOM     14  C   UNL     1       0.491  -3.500  -0.614  0.00  0.00    +0.009 A 
ATOM     15  C   UNL     1       1.062  -4.755  -0.620  0.00  0.00    +0.001 A 
ATOM     16  C   UNL     1       2.436  -4.896  -0.540  0.00  0.00    +0.000 A 
ATOM     17  C   UNL     1       3.244  -3.777  -0.453  0.00  0.00    +0.005 A 
ATOM     18  C   UNL     1       2.682  -2.518  -0.447  0.00  0.00    -0.029 A 
ATOM     19  C   UNL     1       3.287  -1.138  -0.364  0.00  0.00    +0.088 C 
ENDBRANCH   6  19
ENDBRANCH   5   6
ENDBRANCH   1   5
BRANCH   3  20
ATOM     20  CA  UNL     1       8.398  -2.317  -3.436  0.00  0.00    +0.222 C 
BRANCH  20  21
ATOM     21  C   UNL     1       9.225  -3.577  -3.464  0.00  0.00    +0.014 A 
ATOM     22  C   UNL     1      10.513  -3.570  -2.963  0.00  0.00    +0.010 A 
ATOM     23  C   UNL     1      11.271  -4.725  -2.989  0.00  0.00    +0.033 A 
ATOM     24  C   UNL     1      10.741  -5.888  -3.515  0.00  0.00    +0.128 A 
ATOM     25  C   UNL     1       9.452  -5.896  -4.015  0.00  0.00    +0.065 A 
ATOM     26  C   UNL     1       8.692  -4.741  -3.986  0.00  0.00    +0.134 A 
BRANCH  26  27
ATOM     27  N   UNL     1       7.311  -4.750  -4.516  0.00  0.00    +0.057 N 
ATOM     28  O   UNL     1       6.845  -5.768  -4.973  0.00  0.00    -0.126 OA
ATOM     29  O   UNL     1       6.648  -3.739  -4.494  0.00  0.00    -0.126 OA
ENDBRANCH  26  27
BRANCH  24  30
ATOM     30  N   UNL     1      11.553  -7.126  -3.544  0.00  0.00    +0.056 N 
ATOM     31  O   UNL     1      12.680  -7.119  -3.107  0.00  0.00    -0.126 OA
ATOM     32  O   UNL     1      11.088  -8.143  -4.004  0.00  0.00    -0.126 OA
ENDBRANCH  24  30
ENDBRANCH  20  21
BRANCH  20  33
ATOM     33  C   UNL     1       9.294  -1.134  -3.173  0.00  0.00    +0.380 C 
ATOM     34  O   UNL     1       9.510  -0.775  -2.028  0.00  0.00    -0.244 OA
ATOM     35  OXT UNL     1       9.804  -0.536  -4.106  0.00  0.00    -0.244 OA
ENDBRANCH  20  33
ENDBRANCH   3  20
TORSDOF 8
