REMARK  Name = ZINC15767086
REMARK  6 active torsions:
REMARK  status: ('A' for Active; 'I' for Inactive)
REMARK    1  A    between atoms: C_1  and  C_2
REMARK    2  A    between atoms: C_2  and  C_4
REMARK    3  A    between atoms: C_2  and  N_14
REMARK    4  A    between atoms: C_15  and  C_17
REMARK    5  A    between atoms: C_17  and  C_18
REMARK    6  A    between atoms: C_18  and  N_19
REMARK                            x       y       z     vdW  Elec       q    Type
REMARK                         _______ _______ _______ _____ _____    ______ ____
ROOT
ATOM      1  N   UNL     1       2.103   7.945   0.911  0.00  0.00    -0.309 N 
ATOM      2  C   UNL     1       1.992   9.163   1.478  0.00  0.00    +0.215 C 
ATOM      3  O   UNL     1       1.014   9.846   1.259  0.00  0.00    -0.276 OA
ATOM      4  H   UNL     1       2.885   7.399   1.086  0.00  0.00    +0.149 HD
ENDROOT
BRANCH   1   6
ATOM      5  C   UNL     1       1.274   7.968  -1.390  0.00  0.00    +0.033 C 
ATOM      6  C   UNL     1       1.044   7.447   0.030  0.00  0.00    +0.100 C 
BRANCH   6   7
ATOM      7  C   UNL     1       1.064   5.940   0.022  0.00  0.00    -0.027 A 
ATOM      8  C   UNL     1       2.286   5.270   0.008  0.00  0.00    +0.006 A 
ATOM      9  C   UNL     1       2.340   3.910   0.001  0.00  0.00    +0.009 A 
ATOM     10  C   UNL     1       1.147   3.167   0.008  0.00  0.00    -0.018 A 
ATOM     11  C   UNL     1       1.163   1.762   0.000  0.00  0.00    +0.008 A 
ATOM     12  C   UNL     1      -0.013   1.076   0.008  0.00  0.00    +0.001 A 
ATOM     13  C   UNL     1      -1.235   1.746   0.017  0.00  0.00    +0.001 A 
ATOM     14  C   UNL     1      -1.288   3.106   0.031  0.00  0.00    +0.008 A 
ATOM     15  C   UNL     1      -0.096   3.849   0.023  0.00  0.00    -0.018 A 
ATOM     16  C   UNL     1      -0.111   5.254   0.030  0.00  0.00    +0.014 A 
ENDBRANCH   6   7
ENDBRANCH   1   6
BRANCH   2  17
ATOM     17  C   UNL     1       3.081   9.675   2.384  0.00  0.00    +0.115 C 
BRANCH  17  18
ATOM     18  C   UNL     1       2.710  11.070   2.890  0.00  0.00    +0.127 C 
BRANCH  18  19
ATOM     19  N   UNL     1       3.769  11.569   3.771  0.00  0.00    -0.224 N 
ATOM     20  C   UNL     1       4.833  12.283   3.348  0.00  0.00    +0.247 C 
ATOM     21  O   UNL     1       5.085  12.622   2.212  0.00  0.00    -0.273 OA
ATOM     22  C   UNL     1       5.645  12.571   4.590  0.00  0.00    +0.113 C 
ATOM     23  C   UNL     1       5.744  14.075   4.822  0.00  0.00    +0.035 C 
ATOM     24  C   UNL     1       6.545  14.345   6.099  0.00  0.00    +0.003 C 
ATOM     25  C   UNL     1       7.943  13.741   5.960  0.00  0.00    +0.000 C 
ATOM     26  C   UNL     1       7.828  12.229   5.752  0.00  0.00    +0.003 C 
ATOM     27  C   UNL     1       7.032  11.950   4.474  0.00  0.00    +0.035 C 
ATOM     28  N   UNL     1       4.883  11.932   5.670  0.00  0.00    -0.285 N 
ATOM     29  C   UNL     1       3.799  11.377   5.095  0.00  0.00    +0.309 C 
ATOM     30  O   UNL     1       2.946  10.766   5.709  0.00  0.00    -0.252 OA
ATOM     31  H   UNL     1       5.112  11.917   6.613  0.00  0.00    +0.151 HD
ENDBRANCH  18  19
ENDBRANCH  17  18
ENDBRANCH   2  17
TORSDOF 5
