REMARK  Name = ZINC28053197
REMARK  2 active torsions:
REMARK  status: ('A' for Active; 'I' for Inactive)
REMARK    1  A    between atoms: C_4  and  C_7
REMARK    2  A    between atoms: C_18  and  C_20
REMARK                            x       y       z     vdW  Elec       q    Type
REMARK                         _______ _______ _______ _____ _____    ______ ____
ROOT
ATOM      1  C   UNL     1      -0.068   3.629  -0.498  0.00  0.00    +0.174 C 
ATOM      2  C   UNL     1       1.244   2.934  -0.227  0.00  0.00    +0.025 C 
ATOM      3  C   UNL     1       1.323   1.621  -0.000  0.00  0.00    +0.050 C 
ATOM      4  C   UNL     1       2.661   1.023   0.225  0.00  0.00    +0.039 A 
ATOM      5  C   UNL     1       2.805  -0.243   0.779  0.00  0.00    +0.033 A 
ATOM      6  C   UNL     1       4.072  -0.762   0.971  0.00  0.00    +0.042 A 
ATOM      7  C   UNL     1       5.190  -0.026   0.614  0.00  0.00    +0.023 A 
ATOM      8  C   UNL     1       5.054   1.235   0.062  0.00  0.00    +0.048 A 
ATOM      9  C   UNL     1       3.792   1.766  -0.135  0.00  0.00    +0.131 A 
ATOM     10  O   UNL     1       3.618   3.000  -0.673  0.00  0.00    -0.479 OA
ATOM     11  C   UNL     1       2.508   3.763  -0.202  0.00  0.00    +0.234 C 
ATOM     12 CL   UNL     1       4.263  -2.342   1.663  0.00  0.00    -0.084 Cl
ATOM     13  N   UNL     1       0.192   0.797   0.022  0.00  0.00    -0.282 N 
ATOM     14  C   UNL     1      -1.046   1.417   0.067  0.00  0.00    +0.240 A 
ATOM     15  N   UNL     1      -1.179   2.749  -0.164  0.00  0.00    -0.201 N 
ATOM     16  N   UNL     1      -2.539   3.018  -0.019  0.00  0.00    -0.042 NA
ATOM     17  N   UNL     1      -3.108   1.893   0.274  0.00  0.00    -0.021 NA
ATOM     18  N   UNL     1      -2.233   0.947   0.327  0.00  0.00    -0.092 NA
ATOM     19  H   UNL     1       0.308  -0.297   0.004  0.00  0.00    +0.155 HD
ENDROOT
BRANCH  11  20
ATOM     20  C   UNL     1       2.779   4.213   1.211  0.00  0.00    -0.003 A 
ATOM     21  C   UNL     1       2.524   5.521   1.581  0.00  0.00    +0.010 A 
ATOM     22  C   UNL     1       2.768   5.933   2.877  0.00  0.00    +0.039 A 
ATOM     23  C   UNL     1       3.277   5.038   3.803  0.00  0.00    +0.123 A 
ATOM     24  C   UNL     1       3.537   3.730   3.430  0.00  0.00    +0.039 A 
ATOM     25  C   UNL     1       3.288   3.319   2.135  0.00  0.00    +0.010 A 
ATOM     26  F   UNL     1       3.520   5.441   5.069  0.00  0.00    -0.205 F 
ENDBRANCH  11  20
BRANCH   1  30
ATOM     27  C   UNL     1      -0.286   4.682  -4.632  0.00  0.00    +0.000 A 
ATOM     28  C   UNL     1      -0.350   5.666  -3.663  0.00  0.00    +0.000 A 
ATOM     29  C   UNL     1      -0.280   5.326  -2.326  0.00  0.00    +0.006 A 
ATOM     30  C   UNL     1      -0.145   4.000  -1.956  0.00  0.00    -0.019 A 
ATOM     31  C   UNL     1      -0.075   3.017  -2.925  0.00  0.00    +0.006 A 
ATOM     32  C   UNL     1      -0.150   3.357  -4.262  0.00  0.00    +0.000 A 
ENDBRANCH   1  30
TORSDOF 2
