REMARK  Name = ZINC15948591
REMARK  9 active torsions:
REMARK  status: ('A' for Active; 'I' for Inactive)
REMARK    1  A    between atoms: C_1  and  C_2
REMARK    2  A    between atoms: C_2  and  C_3
REMARK    3  A    between atoms: C_2  and  C_4
REMARK    4  A    between atoms: C_2  and  C_5
REMARK    5  A    between atoms: C_8  and  C_11
REMARK    6  A    between atoms: N_13  and  N_14
REMARK    7  A    between atoms: C_15  and  C_17
REMARK    8  A    between atoms: C_17  and  N_18
REMARK    9  A    between atoms: C_19  and  C_21
REMARK                            x       y       z     vdW  Elec       q    Type
REMARK                         _______ _______ _______ _____ _____    ______ ____
ROOT
ATOM      1  N   UNL     1       1.193   1.683  -0.000  0.00  0.00    -0.233 N 
ATOM      2  C   UNL     1       2.369   1.025  -0.015  0.00  0.00    +0.246 C 
ATOM      3  O   UNL     1       2.385  -0.188  -0.022  0.00  0.00    -0.273 OA
ATOM      4  H   UNL     1       1.179   2.653   0.005  0.00  0.00    +0.173 HD
ENDROOT
BRANCH   1   7
ATOM      5  C   UNL     1      -1.187   1.624   0.017  0.00  0.00    +0.260 C 
ATOM      6  O   UNL     1      -1.204   2.839   0.023  0.00  0.00    -0.269 OA
ATOM      7  N   UNL     1      -0.011   0.966   0.007  0.00  0.00    -0.230 N 
ATOM      8  H   UNL     1       0.002  -0.004   0.002  0.00  0.00    +0.173 HD
BRANCH   5  12
ATOM      9  C   UNL     1      -4.837  -0.550   0.021  0.00  0.00    -0.042 A 
ATOM     10  C   UNL     1      -4.859   0.834   0.029  0.00  0.00    +0.005 A 
ATOM     11  C   UNL     1      -3.677   1.546   0.028  0.00  0.00    +0.013 A 
ATOM     12  C   UNL     1      -2.458   0.867   0.018  0.00  0.00    +0.038 A 
ATOM     13  C   UNL     1      -2.442  -0.528   0.005  0.00  0.00    +0.013 A 
ATOM     14  C   UNL     1      -3.631  -1.228   0.011  0.00  0.00    +0.005 A 
BRANCH   9  16
ATOM     15  C   UNL     1      -6.945  -0.955  -1.221  0.00  0.00    +0.015 C 
ATOM     16  C   UNL     1      -6.131  -1.321   0.022  0.00  0.00    -0.013 C 
ATOM     17  C   UNL     1      -5.832  -2.821   0.011  0.00  0.00    +0.015 C 
ATOM     18  C   UNL     1      -6.933  -0.970   1.277  0.00  0.00    +0.015 C 
ENDBRANCH   9  16
ENDBRANCH   5  12
ENDBRANCH   1   7
BRANCH   2  19
ATOM     19  C   UNL     1       3.663   1.796  -0.023  0.00  0.00    +0.202 C 
BRANCH  19  20
ATOM     20  N   UNL     1       4.790   0.859  -0.039  0.00  0.00    -0.300 N 
ATOM     21  C   UNL     1       6.054   1.326  -0.049  0.00  0.00    +0.280 C 
ATOM     22  O   UNL     1       6.260   2.525  -0.044  0.00  0.00    -0.267 OA
ATOM     23  H   UNL     1       4.625  -0.097  -0.043  0.00  0.00    +0.150 HD
BRANCH  21  24
ATOM     24  C   UNL     1       7.181   0.389  -0.064  0.00  0.00    +0.191 A 
ATOM     25  C   UNL     1       8.505   0.725  -0.075  0.00  0.00    +0.056 A 
ATOM     26  C   UNL     1       9.227  -0.477  -0.089  0.00  0.00    +0.058 A 
ATOM     27  C   UNL     1       8.324  -1.484  -0.085  0.00  0.00    +0.171 A 
ATOM     28  O   UNL     1       7.092  -0.958  -0.065  0.00  0.00    -0.444 OA
ATOM     29 BR   UNL     1       8.733  -3.331  -0.099  0.00  0.00    -0.008 Br
ENDBRANCH  21  24
ENDBRANCH  19  20
ENDBRANCH   2  19
TORSDOF 6
