REMARK  Name = ZINC19077997
REMARK  8 active torsions:
REMARK  status: ('A' for Active; 'I' for Inactive)
REMARK    1  A    between atoms: C_4  and  N_23
REMARK    2  A    between atoms: C_5  and  C_7
REMARK    3  A    between atoms: C_7  and  O_9
REMARK    4  A    between atoms: O_9  and  C_10
REMARK    5  A    between atoms: C_10  and  C_11
REMARK    6  A    between atoms: N_13  and  C_14
REMARK    7  A    between atoms: N_23  and  S_24
REMARK    8  A    between atoms: S_24  and  C_27
REMARK                            x       y       z     vdW  Elec       q    Type
REMARK                         _______ _______ _______ _____ _____    ______ ____
ROOT
ATOM      1  C   UNL     1      -1.764   7.394  -0.550  0.00  0.00    +0.341 C 
ATOM      2  O   UNL     1      -0.825   8.166  -0.566  0.00  0.00    -0.245 OA
ENDROOT
BRANCH   1   7
ATOM      3  C   UNL     1      -5.513   7.519  -0.519  0.00  0.00    +0.001 A 
ATOM      4  C   UNL     1      -5.742   8.886  -0.531  0.00  0.00    +0.002 A 
ATOM      5  C   UNL     1      -4.684   9.771  -0.550  0.00  0.00    +0.025 A 
ATOM      6  C   UNL     1      -3.378   9.296  -0.551  0.00  0.00    +0.062 A 
ATOM      7  C   UNL     1      -3.143   7.912  -0.543  0.00  0.00    +0.081 A 
ATOM      8  C   UNL     1      -4.226   7.028  -0.524  0.00  0.00    +0.017 A 
BRANCH   6   9
ATOM      9  N   UNL     1      -2.312  10.185  -0.564  0.00  0.00    -0.215 N 
ATOM     10  H   UNL     1      -1.504   9.967  -1.055  0.00  0.00    +0.174 HD
BRANCH   9  11
ATOM     11  S   UNL     1      -2.418  11.618   0.259  0.00  0.00    +0.079 S 
ATOM     12  O   UNL     1      -1.140  12.232   0.173  0.00  0.00    -0.149 OA
ATOM     13  O   UNL     1      -3.603  12.259  -0.193  0.00  0.00    -0.149 OA
BRANCH  11  14
ATOM     14  C   UNL     1      -2.675  11.225   1.958  0.00  0.00    +0.146 A 
ATOM     15  C   UNL     1      -1.758  11.024   2.935  0.00  0.00    +0.036 A 
ATOM     16  C   UNL     1      -2.194  10.724   4.212  0.00  0.00    +0.010 A 
ATOM     17  C   UNL     1      -3.526  10.640   4.449  0.00  0.00    +0.047 A 
ATOM     18  S   UNL     1      -4.210  10.998   2.839  0.00  0.00    -0.077 S 
ENDBRANCH  11  14
ENDBRANCH   9  11
ENDBRANCH   6   9
ENDBRANCH   1   7
BRANCH   1  19
ATOM     19  O   UNL     1      -1.543   6.065  -0.537  0.00  0.00    -0.452 OA
BRANCH  19  20
ATOM     20  C   UNL     1      -0.159   5.626  -0.545  0.00  0.00    +0.328 C 
BRANCH  20  21
ATOM     21  C   UNL     1      -0.109   4.120  -0.529  0.00  0.00    +0.255 C 
ATOM     22  O   UNL     1      -1.139   3.479  -0.513  0.00  0.00    -0.272 OA
ATOM     23  N   UNL     1       1.080   3.485  -0.532  0.00  0.00    -0.281 N 
ATOM     24  H   UNL     1       1.902   3.995  -0.464  0.00  0.00    +0.155 HD
BRANCH  23  25
ATOM     25  C   UNL     1       1.128   2.093  -0.634  0.00  0.00    +0.062 A 
ATOM     26  C   UNL     1       0.103   1.417  -1.221  0.00  0.00    +0.025 A 
ATOM     27  C   UNL     1       0.120   0.029  -1.339  0.00  0.00    +0.004 A 
ATOM     28  C   UNL     1       1.157  -0.710  -0.875  0.00  0.00    +0.031 A 
ATOM     29  C   UNL     1       2.263  -0.075  -0.251  0.00  0.00    +0.102 A 
ATOM     30  C   UNL     1       2.250   1.379  -0.124  0.00  0.00    +0.121 A 
ATOM     31  N   UNL     1       3.344   1.838   0.478  0.00  0.00    -0.189 NA
ATOM     32  S   UNL     1       4.220   0.583   0.812  0.00  0.00    +0.117 S 
ATOM     33  N   UNL     1       3.366  -0.612   0.266  0.00  0.00    -0.191 NA
ENDBRANCH  23  25
ENDBRANCH  20  21
ENDBRANCH  19  20
ENDBRANCH   1  19
TORSDOF 8
