REMARK  Name = ZINC66981060
REMARK  8 active torsions:
REMARK  status: ('A' for Active; 'I' for Inactive)
REMARK    1  A    between atoms: C_1  and  C_2
REMARK    2  A    between atoms: C_2  and  C_4
REMARK    3  A    between atoms: C_2  and  N_14
REMARK    4  A    between atoms: C_8  and  N_10
REMARK    5  A    between atoms: C_11  and  C_13
REMARK    6  A    between atoms: N_17  and  C_18
REMARK    7  A    between atoms: C_20  and  N_26
REMARK    8  A    between atoms: C_27  and  C_29
REMARK                            x       y       z     vdW  Elec       q    Type
REMARK                         _______ _______ _______ _____ _____    ______ ____
ROOT
ATOM      1  N   UNL     1       2.015   0.721  -0.979  0.00  0.00    -0.293 N 
ATOM      2  C   UNL     1       1.236   0.416  -2.036  0.00  0.00    +0.304 C 
ATOM      3  O   UNL     1       0.054   0.697  -2.022  0.00  0.00    -0.252 OA
ATOM      4  N   UNL     1       1.769  -0.202  -3.109  0.00  0.00    -0.267 N 
ATOM      5  H   UNL     1       2.958   0.496  -0.991  0.00  0.00    +0.151 HD
ATOM      6  H   UNL     1       2.696  -0.487  -3.094  0.00  0.00    +0.156 HD
ENDROOT
BRANCH   4   7
ATOM      7  C   UNL     1       0.984  -0.432  -4.247  0.00  0.00    +0.072 A 
ATOM      8  C   UNL     1      -0.366  -0.725  -4.111  0.00  0.00    +0.052 A 
ATOM      9  C   UNL     1      -1.141  -0.952  -5.239  0.00  0.00    +0.071 A 
ATOM     10  C   UNL     1      -0.565  -0.886  -6.503  0.00  0.00    +0.147 A 
ATOM     11  C   UNL     1       0.781  -0.595  -6.636  0.00  0.00    +0.080 A 
ATOM     12  C   UNL     1       1.555  -0.362  -5.513  0.00  0.00    +0.147 A 
ATOM     13  F   UNL     1       2.867  -0.072  -5.646  0.00  0.00    -0.203 F 
ATOM     14  F   UNL     1      -1.320  -1.107  -7.601  0.00  0.00    -0.203 F 
BRANCH   9  15
ATOM     15  N   UNL     1      -2.504  -1.248  -5.104  0.00  0.00    -0.283 N 
ATOM     16  C   UNL     1      -2.963  -1.808  -3.967  0.00  0.00    +0.214 C 
ATOM     17  O   UNL     1      -2.211  -1.987  -3.033  0.00  0.00    -0.276 OA
ATOM     18  C   UNL     1      -4.411  -2.213  -3.858  0.00  0.00    +0.109 C 
ATOM     19  H   UNL     1      -3.117  -1.050  -5.829  0.00  0.00    +0.155 HD
ENDBRANCH   9  15
ENDBRANCH   4   7
BRANCH   1  21
ATOM     20  C   UNL     1       1.419   2.903  -0.050  0.00  0.00    +0.033 C 
ATOM     21  C   UNL     1       1.436   1.392   0.187  0.00  0.00    +0.102 C 
BRANCH  21  22
ATOM     22  C   UNL     1       2.265   1.085   1.407  0.00  0.00    -0.026 A 
ATOM     23  C   UNL     1       3.645   1.057   1.315  0.00  0.00    +0.005 A 
ATOM     24  C   UNL     1       4.410   0.776   2.432  0.00  0.00    +0.002 A 
ATOM     25  C   UNL     1       3.798   0.522   3.644  0.00  0.00    +0.023 A 
ATOM     26  C   UNL     1       2.413   0.549   3.740  0.00  0.00    +0.034 A 
ATOM     27  C   UNL     1       1.648   0.837   2.617  0.00  0.00    +0.028 A 
BRANCH  26  28
ATOM     28  N   UNL     1       1.790   0.292   4.966  0.00  0.00    -0.286 N 
ATOM     29  C   UNL     1       2.446   0.531   6.119  0.00  0.00    +0.214 C 
ATOM     30  O   UNL     1       3.533   1.069   6.097  0.00  0.00    -0.276 OA
ATOM     31  C   UNL     1       1.829   0.132   7.434  0.00  0.00    +0.109 C 
ATOM     32  H   UNL     1       0.886  -0.059   4.986  0.00  0.00    +0.155 HD
ENDBRANCH  26  28
ENDBRANCH  21  22
ENDBRANCH   1  21
TORSDOF 5
