REMARK  Name = ZINC16604760
REMARK  11 active torsions:
REMARK  status: ('A' for Active; 'I' for Inactive)
REMARK    1  A    between atoms: C_1  and  C_2
REMARK    2  A    between atoms: C_2  and  C_3
REMARK    3  A    between atoms: C_3  and  C_4
REMARK    4  A    between atoms: C_4  and  N_5
REMARK    5  A    between atoms: C_6  and  C_8
REMARK    6  A    between atoms: C_8  and  S_9
REMARK    7  A    between atoms: S_9  and  C_10
REMARK    8  A    between atoms: C_21  and  C_24
REMARK    9  A    between atoms: N_27  and  C_28
REMARK   10  A    between atoms: C_28  and  C_29
REMARK   11  A    between atoms: C_28  and  C_30
REMARK                            x       y       z     vdW  Elec       q    Type
REMARK                         _______ _______ _______ _____ _____    ______ ____
ROOT
ATOM      1  C   UNL     1      -5.200   1.067  -0.143  0.00  0.00    +0.192 A 
ATOM      2  N   UNL     1      -6.459   1.476  -0.083  0.00  0.00    -0.207 NA
ATOM      3  C   UNL     1      -7.457   0.598  -0.059  0.00  0.00    +0.127 A 
ATOM      4  C   UNL     1      -7.160  -0.766  -0.099  0.00  0.00    +0.083 A 
ATOM      5  C   UNL     1      -5.833  -1.151  -0.162  0.00  0.00    +0.135 A 
ATOM      6  N   UNL     1      -4.889  -0.221  -0.187  0.00  0.00    -0.210 NA
ATOM      7 CL   UNL     1      -5.409  -2.833  -0.213  0.00  0.00    -0.062 Cl
ATOM      8  N   UNL     1      -8.772   1.030   0.003  0.00  0.00    -0.312 N 
ATOM      9  C   UNL     1      -9.464   0.443   1.159  0.00  0.00    +0.125 C 
ATOM     10  C   UNL     1     -10.850   1.081   1.297  0.00  0.00    +0.128 C 
ATOM     11  N   UNL     1     -11.557   0.945   0.014  0.00  0.00    -0.280 N 
ATOM     12  C   UNL     1     -10.869   1.386  -1.209  0.00  0.00    +0.092 C 
ATOM     13  C   UNL     1      -9.482   0.736  -1.249  0.00  0.00    +0.128 C 
ATOM     14  C   UNL     1     -11.675   0.953  -2.436  0.00  0.00    +0.030 C 
ATOM     15  C   UNL     1     -12.802   0.431  -0.040  0.00  0.00    +0.303 C 
ATOM     16  O   UNL     1     -13.410   0.420  -1.092  0.00  0.00    -0.253 OA
ATOM     17  N   UNL     1     -13.372  -0.070   1.074  0.00  0.00    -0.297 N 
ATOM     18  H   UNL     1     -12.918   0.005   1.928  0.00  0.00    +0.150 HD
ENDROOT
BRANCH  17  19
ATOM     19  C   UNL     1     -14.678  -0.730   0.995  0.00  0.00    +0.068 C 
ATOM     20  C   UNL     1     -14.485  -2.198   0.609  0.00  0.00    +0.027 C 
ATOM     21  C   UNL     1     -15.374  -0.647   2.354  0.00  0.00    +0.027 C 
ENDBRANCH  17  19
BRANCH   1  22
ATOM     22  S   UNL     1      -3.908   2.265  -0.172  0.00  0.00    -0.077 S 
BRANCH  22  23
ATOM     23  C   UNL     1      -2.468   1.171  -0.253  0.00  0.00    +0.173 C 
BRANCH  23  25
ATOM     24  N   UNL     1      -0.006   1.396  -0.350  0.00  0.00    -0.315 N 
ATOM     25  C   UNL     1      -1.210   2.000  -0.289  0.00  0.00    +0.223 C 
ATOM     26  O   UNL     1      -1.280   3.211  -0.262  0.00  0.00    -0.275 OA
ATOM     27  H   UNL     1       0.050   0.428  -0.372  0.00  0.00    +0.149 HD
BRANCH  24  28
ATOM     28  C   UNL     1       1.217   2.202  -0.391  0.00  0.00    +0.104 C 
BRANCH  28  29
ATOM     29  C   UNL     1       2.434   1.278  -0.465  0.00  0.00    +0.018 C 
BRANCH  29  31
ATOM     30  C   UNL     1       4.928   1.195  -0.582  0.00  0.00    +0.004 C 
ATOM     31  C   UNL     1       3.711   2.119  -0.507  0.00  0.00    -0.002 C 
ENDBRANCH  29  31
ENDBRANCH  28  29
ENDBRANCH  24  28
ENDBRANCH  23  25
ENDBRANCH  22  23
ENDBRANCH   1  22
TORSDOF 7
