REMARK  Name = ZINC28856266
REMARK  7 active torsions:
REMARK  status: ('A' for Active; 'I' for Inactive)
REMARK    1  A    between atoms: C_1  and  C_2
REMARK    2  A    between atoms: C_5  and  C_8
REMARK    3  A    between atoms: C_14  and  C_16
REMARK    4  A    between atoms: N_21  and  C_23
REMARK    5  A    between atoms: C_23  and  C_24
REMARK    6  A    between atoms: C_24  and  O_25
REMARK    7  A    between atoms: O_25  and  C_26
REMARK                            x       y       z     vdW  Elec       q    Type
REMARK                         _______ _______ _______ _____ _____    ______ ____
ROOT
ATOM      1  C   UNL     1       2.045   0.590  -0.014  0.00  0.00    +0.163 A 
ATOM      2  N   UNL     1       1.282   1.732  -0.001  0.00  0.00    -0.309 N 
ATOM      3  C   UNL     1      -0.016   1.309   0.009  0.00  0.00    +0.221 A 
ATOM      4  N   UNL     1       0.002  -0.004   0.008  0.00  0.00    -0.113 NA
ATOM      5  N   UNL     1       1.215  -0.428  -0.003  0.00  0.00    -0.128 NA
ATOM      6  N   UNL     1      -1.144   2.116   0.019  0.00  0.00    -0.249 N 
ATOM      7  C   UNL     1      -1.013   3.458   0.025  0.00  0.00    +0.270 C 
ATOM      8  O   UNL     1       0.094   3.960   0.022  0.00  0.00    -0.268 OA
ATOM      9  H   UNL     1      -2.146   1.661   0.022  0.00  0.00    +0.158 HD
ATOM     10  H   UNL     1       1.510   2.808   0.003  0.00  0.00    +0.170 HD
ENDROOT
BRANCH   1  15
ATOM     11  C   UNL     1       7.793   0.316  -0.104  0.00  0.00    +0.044 C 
ATOM     12  C   UNL     1       6.287   0.388  -0.081  0.00  0.00    -0.050 A 
ATOM     13  C   UNL     1       5.542  -0.778  -0.081  0.00  0.00    +0.004 A 
ATOM     14  C   UNL     1       4.164  -0.720  -0.059  0.00  0.00    +0.012 A 
ATOM     15  C   UNL     1       3.522   0.519  -0.037  0.00  0.00    +0.019 A 
ATOM     16  C   UNL     1       4.279   1.692  -0.044  0.00  0.00    +0.012 A 
ATOM     17  C   UNL     1       5.657   1.619  -0.059  0.00  0.00    +0.004 A 
ENDBRANCH   1  15
BRANCH   7  18
ATOM     18  C   UNL     1      -2.215   4.318   0.036  0.00  0.00    +0.146 A 
ATOM     19  C   UNL     1      -2.074   5.727   0.042  0.00  0.00    +0.040 A 
ATOM     20  C   UNL     1      -3.205   6.488   0.052  0.00  0.00    +0.074 A 
ATOM     21  C   UNL     1      -4.451   5.821   0.055  0.00  0.00    +0.267 A 
ATOM     22  O   UNL     1      -5.490   6.461   0.063  0.00  0.00    -0.266 OA
ATOM     23  N   UNL     1      -4.485   4.476   0.049  0.00  0.00    -0.226 N 
ATOM     24  N   UNL     1      -3.411   3.772   0.034  0.00  0.00    -0.163 NA
BRANCH  23  25
ATOM     25  C   UNL     1      -5.782   3.795   0.052  0.00  0.00    +0.188 C 
BRANCH  25  26
ATOM     26  C   UNL     1      -6.241   3.566  -1.390  0.00  0.00    +0.252 C 
BRANCH  26  27
ATOM     27  O   UNL     1      -5.342   2.663  -2.038  0.00  0.00    -0.490 OA
BRANCH  27  28
ATOM     28  C   UNL     1      -5.609   2.351  -3.333  0.00  0.00    +0.121 A 
ATOM     29  C   UNL     1      -6.716   2.898  -3.966  0.00  0.00    +0.045 A 
ATOM     30  C   UNL     1      -6.982   2.583  -5.285  0.00  0.00    +0.004 A 
ATOM     31  C   UNL     1      -6.152   1.716  -5.971  0.00  0.00    +0.000 A 
ATOM     32  C   UNL     1      -5.051   1.165  -5.341  0.00  0.00    +0.004 A 
ATOM     33  C   UNL     1      -4.778   1.481  -4.024  0.00  0.00    +0.045 A 
ENDBRANCH  27  28
ENDBRANCH  26  27
ENDBRANCH  25  26
ENDBRANCH  23  25
ENDBRANCH   7  18
TORSDOF 6
