REMARK  Name = ZINC39672202
REMARK  9 active torsions:
REMARK  status: ('A' for Active; 'I' for Inactive)
REMARK    1  A    between atoms: C_1  and  C_2
REMARK    2  A    between atoms: C_2  and  C_3
REMARK    3  A    between atoms: C_3  and  C_4
REMARK    4  A    between atoms: C_3  and  C_6
REMARK    5  A    between atoms: C_4  and  C_5
REMARK    6  A    between atoms: C_10  and  C_19
REMARK    7  A    between atoms: N_21  and  C_22
REMARK    8  A    between atoms: C_22  and  C_23
REMARK    9  A    between atoms: N_32  and  C_33
REMARK                            x       y       z     vdW  Elec       q    Type
REMARK                         _______ _______ _______ _____ _____    ______ ____
ROOT
ATOM      1  C   UNL     1       1.232  -1.847   1.241  0.00  0.00    +0.219 C 
ATOM      2  O   UNL     1       0.955  -2.616   2.137  0.00  0.00    -0.275 OA
ATOM      3  N   UNL     1       1.769  -2.314   0.095  0.00  0.00    -0.300 N 
ATOM      4  C   UNL     1       2.176  -1.537  -1.099  0.00  0.00    +0.121 C 
ATOM      5  C   UNL     1       3.487  -2.205  -1.571  0.00  0.00    +0.100 C 
ATOM      6  C   UNL     1       3.420  -3.637  -1.015  0.00  0.00    -0.004 C 
ATOM      7  C   UNL     1       2.090  -3.719  -0.252  0.00  0.00    +0.115 C 
ATOM      8  C   UNL     1       4.584  -3.889  -0.061  0.00  0.00    -0.010 C 
ATOM      9  C   UNL     1       4.528  -5.337   0.434  0.00  0.00    -0.082 C 
ATOM     10  N   UNL     1       4.601  -6.252  -0.712  0.00  0.00    +0.379 N 
ATOM     11  C   UNL     1       3.428  -6.066  -1.576  0.00  0.00    -0.082 C 
ATOM     12  C   UNL     1       3.438  -4.649  -2.156  0.00  0.00    -0.010 C 
ATOM     13  H   UNL     1       5.439  -6.061  -1.240  0.00  0.00    -0.086 HD
ATOM     14  H   UNL     1       4.625  -7.204  -0.380  0.00  0.00    -0.086 HD
ENDROOT
BRANCH   5  15
ATOM     15  C   UNL     1       3.553  -2.227  -3.076  0.00  0.00    +0.218 C 
ATOM     16  O   UNL     1       2.531  -2.204  -3.728  0.00  0.00    -0.275 OA
ATOM     17  N   UNL     1       4.748  -2.272  -3.698  0.00  0.00    -0.311 N 
ATOM     18  H   UNL     1       5.566  -2.291  -3.176  0.00  0.00    +0.149 HD
BRANCH  17  19
ATOM     19  C   UNL     1       4.812  -2.294  -5.161  0.00  0.00    +0.139 C 
BRANCH  19  20
ATOM     20  C   UNL     1       6.253  -2.344  -5.600  0.00  0.00    -0.030 A 
ATOM     21  C   UNL     1       6.951  -1.170  -5.811  0.00  0.00    +0.007 A 
ATOM     22  C   UNL     1       8.270  -1.216  -6.215  0.00  0.00    +0.024 A 
ATOM     23  C   UNL     1       8.896  -2.443  -6.408  0.00  0.00    +0.033 A 
ATOM     24  C   UNL     1       8.196  -3.620  -6.193  0.00  0.00    -0.026 A 
ATOM     25  C   UNL     1       6.874  -3.564  -5.785  0.00  0.00    +0.010 A 
ATOM     26  C   UNL     1       8.844  -4.966  -6.382  0.00  0.00    +0.038 C 
ATOM     27  C   UNL     1      10.075  -4.847  -7.280  0.00  0.00    +0.024 C 
ATOM     28  C   UNL     1      10.978  -3.732  -6.737  0.00  0.00    +0.105 C 
ATOM     29  N   UNL     1      10.232  -2.469  -6.822  0.00  0.00    -0.333 N 
ATOM     30  C   UNL     1      10.877  -1.256  -7.332  0.00  0.00    +0.129 C 
ENDBRANCH  19  20
ENDBRANCH  17  19
ENDBRANCH   5  15
BRANCH   1  31
ATOM     31  C   UNL     1       0.978  -0.371   1.407  0.00  0.00    +0.075 C 
BRANCH  31  33
ATOM     32  C   UNL     1      -0.142   1.624   0.404  0.00  0.00    +0.004 C 
ATOM     33  C   UNL     1       0.007   0.104   0.324  0.00  0.00    +0.009 C 
ENDBRANCH  31  33
BRANCH  31  34
ATOM     34  C   UNL     1       0.370  -0.111   2.787  0.00  0.00    +0.009 C 
ATOM     35  C   UNL     1       1.403  -0.433   3.868  0.00  0.00    +0.004 C 
ENDBRANCH  31  34
ENDBRANCH   1  31
TORSDOF 6
