REMARK  Name = ZINC12873794
REMARK  9 active torsions:
REMARK  status: ('A' for Active; 'I' for Inactive)
REMARK    1  A    between atoms: C_1  and  C_2
REMARK    2  A    between atoms: C_9  and  C_13
REMARK    3  A    between atoms: C_13  and  N_14
REMARK    4  A    between atoms: N_14  and  C_15
REMARK    5  A    between atoms: N_14  and  C_28
REMARK    6  A    between atoms: C_15  and  C_16
REMARK    7  A    between atoms: C_23  and  C_27
REMARK    8  A    between atoms: C_28  and  C_30
REMARK    9  A    between atoms: C_28  and  C_31
REMARK                            x       y       z     vdW  Elec       q    Type
REMARK                         _______ _______ _______ _____ _____    ______ ____
ROOT
ATOM      1  N   UNL     1       1.473  -4.284   4.498  0.00  0.00    -0.288 NA
ENDROOT
BRANCH   1   2
ATOM      2  C   UNL     1       2.290  -4.735   3.364  0.00  0.00    +0.057 C 
ATOM      3  C   UNL     1       1.720  -6.044   2.814  0.00  0.00    +0.024 C 
BRANCH   2   4
ATOM      4  C   UNL     1       2.271  -3.670   2.266  0.00  0.00    +0.006 C 
ATOM      5  C   UNL     1       1.675  -4.061   0.912  0.00  0.00    +0.005 C 
ATOM      6  C   UNL     1       3.188  -3.882   1.059  0.00  0.00    +0.005 C 
ENDBRANCH   2   4
ENDBRANCH   1   2
BRANCH   1   7
ATOM      7  C   UNL     1       0.042  -4.341   4.172  0.00  0.00    +0.138 C 
BRANCH   7  16
ATOM      8  C   UNL     1      -0.217   2.837   2.853  0.00  0.00    +0.044 C 
ATOM      9  C   UNL     1      -0.462   1.419   2.407  0.00  0.00    -0.046 A 
ATOM     10  C   UNL     1      -1.003   1.161   1.140  0.00  0.00    +0.021 A 
ATOM     11  C   UNL     1      -1.223  -0.112   0.742  0.00  0.00    +0.096 A 
ATOM     12  N   UNL     1      -0.924  -1.159   1.560  0.00  0.00    -0.270 N 
ATOM     13  C   UNL     1      -0.394  -0.940   2.800  0.00  0.00    +0.118 A 
ATOM     14  C   UNL     1      -0.154   0.378   3.231  0.00  0.00    +0.048 A 
ATOM     15  N   UNL     1      -0.098  -1.958   3.606  0.00  0.00    -0.343 N 
ATOM     16  C   UNL     1      -0.305  -3.212   3.236  0.00  0.00    +0.037 A 
ATOM     17  C   UNL     1      -0.838  -3.487   1.992  0.00  0.00    +0.093 A 
ATOM     18  C   UNL     1      -1.152  -2.422   1.139  0.00  0.00    +0.258 A 
ATOM     19  O   UNL     1      -1.625  -2.631   0.033  0.00  0.00    -0.267 OA
ATOM     20  H   UNL     1       0.277  -1.777   4.482  0.00  0.00    +0.167 HD
ENDBRANCH   7  16
ENDBRANCH   1   7
BRANCH   1  21
ATOM     21  C   UNL     1       1.770  -5.067   5.705  0.00  0.00    +0.138 C 
BRANCH  21  22
ATOM     22  C   UNL     1       3.132  -4.689   6.227  0.00  0.00    +0.037 A 
ATOM     23  C   UNL     1       3.245  -3.900   7.355  0.00  0.00    +0.093 A 
ATOM     24  C   UNL     1       4.521  -3.563   7.821  0.00  0.00    +0.258 A 
ATOM     25  O   UNL     1       4.654  -2.867   8.815  0.00  0.00    -0.267 OA
ATOM     26  N   UNL     1       5.602  -4.020   7.153  0.00  0.00    -0.270 N 
ATOM     27  C   UNL     1       6.851  -3.701   7.594  0.00  0.00    +0.096 A 
ATOM     28  C   UNL     1       7.948  -4.146   6.943  0.00  0.00    +0.021 A 
ATOM     29  C   UNL     1       7.813  -4.947   5.800  0.00  0.00    -0.046 A 
ATOM     30  C   UNL     1       6.568  -5.272   5.351  0.00  0.00    +0.048 A 
ATOM     31  C   UNL     1       5.438  -4.799   6.042  0.00  0.00    +0.118 A 
ATOM     32  N   UNL     1       4.220  -5.119   5.607  0.00  0.00    -0.343 N 
ATOM     33  C   UNL     1       9.036  -5.444   5.073  0.00  0.00    +0.044 C 
ATOM     34  H   UNL     1       4.129  -5.676   4.818  0.00  0.00    +0.167 HD
ENDBRANCH  21  22
ENDBRANCH   1  21
TORSDOF 6
