REMARK  Name = ZINC66704599
REMARK  7 active torsions:
REMARK  status: ('A' for Active; 'I' for Inactive)
REMARK    1  A    between atoms: C_1  and  C_2
REMARK    2  A    between atoms: C_2  and  C_3
REMARK    3  A    between atoms: C_3  and  C_4
REMARK    4  A    between atoms: C_4  and  N_5
REMARK    5  A    between atoms: C_10  and  C_12
REMARK    6  A    between atoms: C_12  and  N_13
REMARK    7  A    between atoms: C_19  and  N_22
REMARK                            x       y       z     vdW  Elec       q    Type
REMARK                         _______ _______ _______ _____ _____    ______ ____
ROOT
ATOM      1  N   UNL     1       1.320  -3.869   0.130  0.00  0.00    -0.301 N 
ATOM      2  C   UNL     1       1.723  -4.010   1.408  0.00  0.00    +0.302 C 
ATOM      3  O   UNL     1       2.756  -4.601   1.658  0.00  0.00    -0.253 OA
ATOM      4  N   UNL     1       0.981  -3.497   2.410  0.00  0.00    -0.286 N 
ATOM      5  C   UNL     1       1.463  -3.542   3.797  0.00  0.00    +0.111 C 
ATOM      6  C   UNL     1       1.425  -2.124   4.378  0.00  0.00    +0.044 C 
ATOM      7  C   UNL     1       0.015  -1.551   4.220  0.00  0.00    +0.091 C 
ATOM      8  C   UNL     1      -0.344  -1.474   2.734  0.00  0.00    +0.044 C 
ATOM      9  C   UNL     1      -0.323  -2.878   2.134  0.00  0.00    +0.111 C 
ATOM     10  H   UNL     1       0.461  -3.462  -0.066  0.00  0.00    +0.150 HD
ENDROOT
BRANCH   7  11
ATOM     11  N   UNL     1      -0.034  -0.208   4.804  0.00  0.00    -0.335 N 
ATOM     12  C   UNL     1       0.713   0.873   4.419  0.00  0.00    +0.104 A 
ATOM     13  C   UNL     1       0.354   1.898   5.215  0.00  0.00    +0.101 A 
ATOM     14  N   UNL     1      -0.588   1.456   6.062  0.00  0.00    -0.352 N 
ATOM     15  C   UNL     1      -0.829   0.197   5.818  0.00  0.00    +0.174 A 
ATOM     16  H   UNL     1      -1.024   1.989   6.745  0.00  0.00    +0.166 HD
ENDBRANCH   7  11
BRANCH   1  17
ATOM     17  C   UNL     1       2.179  -4.328  -0.964  0.00  0.00    +0.090 C 
BRANCH  17  23
ATOM     18  N   UNL     1       0.176  -4.462  -2.365  0.00  0.00    +0.383 N 
ATOM     19  C   UNL     1      -0.412  -4.164  -3.676  0.00  0.00    -0.078 C 
ATOM     20  C   UNL     1      -0.508  -2.649  -3.864  0.00  0.00    -0.019 C 
ATOM     21  C   UNL     1       0.895  -2.040  -3.781  0.00  0.00    -0.003 C 
ATOM     22  C   UNL     1       1.527  -2.420  -2.439  0.00  0.00    -0.014 C 
ATOM     23  C   UNL     1       1.548  -3.944  -2.304  0.00  0.00    -0.051 C 
ATOM     24  H   UNL     1      -0.379  -4.028  -1.643  0.00  0.00    -0.081 HD
BRANCH  18  25
ATOM     25  C   UNL     1       0.194  -5.917  -2.157  0.00  0.00    -0.078 C 
BRANCH  25  26
ATOM     26  C   UNL     1      -1.242  -6.439  -2.080  0.00  0.00    -0.019 C 
BRANCH  26  28
ATOM     27  C   UNL     1      -2.659  -8.476  -1.788  0.00  0.00    +0.004 C 
ATOM     28  C   UNL     1      -1.223  -7.953  -1.864  0.00  0.00    -0.005 C 
ENDBRANCH  26  28
ENDBRANCH  25  26
ENDBRANCH  18  25
ENDBRANCH  17  23
ENDBRANCH   1  17
TORSDOF 6
