REMARK  Name = ZINC37061161
REMARK  5 active torsions:
REMARK  status: ('A' for Active; 'I' for Inactive)
REMARK    1  A    between atoms: C_1  and  C_2
REMARK    2  A    between atoms: C_3  and  N_11
REMARK    3  A    between atoms: C_7  and  N_8
REMARK    4  A    between atoms: N_11  and  C_12
REMARK    5  A    between atoms: C_12  and  C_13
REMARK                            x       y       z     vdW  Elec       q    Type
REMARK                         _______ _______ _______ _____ _____    ______ ____
ROOT
ATOM      1  N   UNL     1      -0.720  -0.045  -2.327  0.00  0.00    -0.336 N 
ATOM      2  H   UNL     1      -0.908   0.906  -2.297  0.00  0.00    +0.147 HD
ENDROOT
BRANCH   1   5
ATOM      3  C   UNL     1      -0.538   1.447   0.089  0.00  0.00    +0.048 C 
ATOM      4  C   UNL     1      -0.246  -0.031   0.040  0.00  0.00    +0.001 A 
ATOM      5  C   UNL     1      -0.348  -0.720  -1.163  0.00  0.00    +0.033 A 
ATOM      6  C   UNL     1      -0.078  -2.082  -1.204  0.00  0.00    +0.023 A 
ATOM      7  C   UNL     1       0.290  -2.746  -0.050  0.00  0.00    +0.004 A 
ATOM      8  C   UNL     1       0.389  -2.058   1.145  0.00  0.00    +0.033 A 
ATOM      9  C   UNL     1       0.127  -0.700   1.188  0.00  0.00    +0.131 A 
BRANCH   9  10
ATOM     10  N   UNL     1       0.241   0.034   2.468  0.00  0.00    +0.057 N 
ATOM     11  O   UNL     1       0.675   1.163   2.481  0.00  0.00    -0.126 OA
ATOM     12  O   UNL     1      -0.101  -0.494   3.500  0.00  0.00    -0.126 OA
ENDBRANCH   9  10
ENDBRANCH   1   5
BRANCH   1  13
ATOM     13  C   UNL     1      -0.826  -0.773  -3.594  0.00  0.00    +0.176 C 
BRANCH  13  14
ATOM     14  C   UNL     1      -1.241   0.178  -4.687  0.00  0.00    +0.123 A 
ATOM     15  C   UNL     1      -0.396   0.874  -5.460  0.00  0.00    +0.054 A 
ATOM     16  C   UNL     1      -1.231   1.659  -6.375  0.00  0.00    +0.020 A 
ATOM     17  C   UNL     1      -0.967   2.566  -7.401  0.00  0.00    +0.011 A 
ATOM     18  C   UNL     1      -2.004   3.141  -8.081  0.00  0.00    +0.001 A 
ATOM     19  C   UNL     1      -3.316   2.829  -7.756  0.00  0.00    +0.004 A 
ATOM     20  C   UNL     1      -3.597   1.935  -6.745  0.00  0.00    +0.047 A 
ATOM     21  C   UNL     1      -2.558   1.339  -6.042  0.00  0.00    +0.135 A 
ATOM     22  O   UNL     1      -2.512   0.447  -5.032  0.00  0.00    -0.458 OA
ENDBRANCH  13  14
ENDBRANCH   1  13
TORSDOF 4
