REMARK  Name = ZINC66489984
REMARK  4 active torsions:
REMARK  status: ('A' for Active; 'I' for Inactive)
REMARK    1  A    between atoms: C_4  and  O_7
REMARK    2  A    between atoms: O_7  and  C_8
REMARK    3  A    between atoms: N_10  and  C_11
REMARK    4  A    between atoms: C_17  and  C_19
REMARK                            x       y       z     vdW  Elec       q    Type
REMARK                         _______ _______ _______ _____ _____    ______ ____
ROOT
ATOM      1  C   UNL     1       4.524  -4.426  -0.217  0.00  0.00    +0.079 C 
ATOM      2  C   UNL     1       4.645  -4.375   1.308  0.00  0.00    +0.041 C 
ATOM      3  C   UNL     1       4.613  -5.802   1.866  0.00  0.00    +0.110 C 
ATOM      4  N   UNL     1       5.660  -6.592   1.203  0.00  0.00    -0.298 N 
ATOM      5  C   UNL     1       5.690  -6.635  -0.266  0.00  0.00    +0.110 C 
ATOM      6  C   UNL     1       5.710  -5.199  -0.800  0.00  0.00    +0.041 C 
ATOM      7  C   UNL     1       6.574  -7.266   1.928  0.00  0.00    +0.239 C 
ATOM      8  O   UNL     1       6.481  -7.304   3.140  0.00  0.00    -0.271 OA
ENDROOT
BRANCH   7   9
ATOM      9  C   UNL     1       7.685  -7.955   1.254  0.00  0.00    +0.066 C 
ATOM     10  C   UNL     1       8.513  -8.726   1.954  0.00  0.00    -0.065 C 
ATOM     11  C   UNL     1       8.130  -9.226   3.329  0.00  0.00    +0.031 C 
ATOM     12  C   UNL     1       8.334 -10.745   3.369  0.00  0.00    +0.004 C 
ATOM     13  C   UNL     1       9.769 -11.075   2.955  0.00  0.00    +0.001 C 
ATOM     14  C   UNL     1      10.002 -10.647   1.505  0.00  0.00    +0.004 C 
ATOM     15  C   UNL     1       9.858  -9.130   1.392  0.00  0.00    +0.031 C 
ENDBRANCH   7   9
BRANCH   1  18
ATOM     16  C   UNL     1       3.370  -2.364  -0.811  0.00  0.00    +0.406 C 
ATOM     17  O   UNL     1       2.334  -2.866  -0.421  0.00  0.00    -0.226 OA
ATOM     18  N   UNL     1       4.521  -3.062  -0.752  0.00  0.00    -0.278 N 
ATOM     19  H   UNL     1       5.348  -2.661  -1.063  0.00  0.00    +0.152 HD
BRANCH  16  20
ATOM     20  O   UNL     1       3.367  -1.110  -1.302  0.00  0.00    -0.412 OA
BRANCH  20  24
ATOM     21  C   UNL     1      -0.154   1.034  -1.125  0.00  0.00    +0.000 A 
ATOM     22  C   UNL     1       0.526   0.726   0.039  0.00  0.00    +0.004 A 
ATOM     23  C   UNL     1       1.705   0.008  -0.018  0.00  0.00    +0.046 A 
ATOM     24  C   UNL     1       2.207  -0.404  -1.244  0.00  0.00    +0.133 A 
ATOM     25  C   UNL     1       1.522  -0.095  -2.410  0.00  0.00    +0.046 A 
ATOM     26  C   UNL     1       0.343   0.624  -2.348  0.00  0.00    +0.004 A 
ENDBRANCH  20  24
ENDBRANCH  16  20
ENDBRANCH   1  18
TORSDOF 4
