REMARK  Name = ZINC02173629
REMARK  4 active torsions:
REMARK  status: ('A' for Active; 'I' for Inactive)
REMARK    1  A    between atoms: C_4  and  N_10
REMARK    2  A    between atoms: C_6  and  N_7
REMARK    3  A    between atoms: C_11  and  O_13
REMARK    4  A    between atoms: O_13  and  C_14
REMARK                            x       y       z     vdW  Elec       q    Type
REMARK                         _______ _______ _______ _____ _____    ______ ____
ROOT
ATOM      1  N   UNL     1      -3.524   1.905  -0.183  0.00  0.00    -0.248 N 
ATOM      2  C   UNL     1      -2.321   1.304  -0.080  0.00  0.00    +0.410 C 
ATOM      3  O   UNL     1      -2.245   0.091  -0.092  0.00  0.00    -0.226 OA
ATOM      4  H   UNL     1      -3.579   2.870  -0.256  0.00  0.00    +0.158 HD
ENDROOT
BRANCH   1   8
ATOM      5  C   UNL     1      -7.006  -0.388  -0.189  0.00  0.00    +0.035 A 
ATOM      6  C   UNL     1      -7.000   0.858  -0.789  0.00  0.00    +0.042 A 
ATOM      7  C   UNL     1      -5.848   1.622  -0.789  0.00  0.00    +0.145 A 
ATOM      8  C   UNL     1      -4.694   1.135  -0.185  0.00  0.00    +0.074 A 
ATOM      9  C   UNL     1      -4.702  -0.118   0.411  0.00  0.00    +0.059 A 
ATOM     10  C   UNL     1      -5.859  -0.874   0.412  0.00  0.00    +0.128 A 
ATOM     11  F   UNL     1      -5.843   2.839  -1.375  0.00  0.00    -0.204 F 
BRANCH  10  12
ATOM     12  N   UNL     1      -5.870  -2.208   1.053  0.00  0.00    +0.056 N 
ATOM     13  O   UNL     1      -6.888  -2.877   1.050  0.00  0.00    -0.126 OA
ATOM     14  O   UNL     1      -4.861  -2.637   1.583  0.00  0.00    -0.126 OA
ENDBRANCH  10  12
ENDBRANCH   1   8
BRANCH   2  15
ATOM     15  O   UNL     1      -1.205   2.048   0.037  0.00  0.00    -0.410 OA
BRANCH  15  16
ATOM     16  C   UNL     1      -0.018   1.384   0.031  0.00  0.00    +0.152 A 
ATOM     17  C   UNL     1       0.635   1.119   1.225  0.00  0.00    +0.051 A 
ATOM     18  C   UNL     1       1.838   0.440   1.218  0.00  0.00    +0.042 A 
ATOM     19  C   UNL     1       2.393   0.024   0.020  0.00  0.00    +0.125 A 
ATOM     20  C   UNL     1       1.743   0.288  -1.174  0.00  0.00    +0.062 A 
ATOM     21  C   UNL     1       0.539   0.967  -1.170  0.00  0.00    +0.086 A 
ATOM     22 CL   UNL     1      -0.277   1.298  -2.667  0.00  0.00    -0.080 Cl
ATOM     23  F   UNL     1       3.569  -0.641   0.015  0.00  0.00    -0.205 F 
ENDBRANCH  15  16
ENDBRANCH   2  15
TORSDOF 4
