REMARK  Name = ZINC06189199
REMARK  8 active torsions:
REMARK  status: ('A' for Active; 'I' for Inactive)
REMARK    1  A    between atoms: C_1  and  C_2
REMARK    2  A    between atoms: C_4  and  C_28
REMARK    3  A    between atoms: N_5  and  C_7
REMARK    4  A    between atoms: C_7  and  C_8
REMARK    5  A    between atoms: C_11  and  C_14
REMARK    6  A    between atoms: N_16  and  N_17
REMARK    7  A    between atoms: C_18  and  C_19
REMARK    8  A    between atoms: C_21  and  N_25
REMARK                            x       y       z     vdW  Elec       q    Type
REMARK                         _______ _______ _______ _____ _____    ______ ____
ROOT
ATOM      1  C   UNL     1      -1.187   1.624   0.017  0.00  0.00    +0.263 C 
ATOM      2  O   UNL     1      -1.204   2.840   0.023  0.00  0.00    -0.268 OA
ATOM      3  N   UNL     1      -0.011   0.966   0.007  0.00  0.00    -0.203 N 
ATOM      4  H   UNL     1       0.002  -0.004   0.002  0.00  0.00    +0.178 HD
ENDROOT
BRANCH   1   8
ATOM      5  C   UNL     1      -4.836  -0.550   0.021  0.00  0.00    -0.026 A 
ATOM      6  C   UNL     1      -4.859   0.834   0.029  0.00  0.00    +0.006 A 
ATOM      7  C   UNL     1      -3.677   1.546   0.028  0.00  0.00    +0.013 A 
ATOM      8  C   UNL     1      -2.457   0.868   0.018  0.00  0.00    +0.038 A 
ATOM      9  C   UNL     1      -2.442  -0.528   0.005  0.00  0.00    +0.013 A 
ATOM     10  C   UNL     1      -3.631  -1.228   0.012  0.00  0.00    +0.006 A 
BRANCH   5  11
ATOM     11  C   UNL     1      -6.131  -1.321   0.024  0.00  0.00    +0.178 C 
BRANCH  11  16
ATOM     12  C   UNL     1      -8.346  -0.712  -4.439  0.00  0.00    +0.067 C 
ATOM     13  C   UNL     1      -7.536  -1.277  -3.301  0.00  0.00    +0.060 A 
ATOM     14  C   UNL     1      -6.822  -2.480  -3.320  0.00  0.00    +0.047 A 
ATOM     15  C   UNL     1      -6.231  -2.632  -2.112  0.00  0.00    +0.037 A 
ATOM     16  N   UNL     1      -6.558  -1.563  -1.357  0.00  0.00    -0.264 N 
ATOM     17  N   UNL     1      -7.382  -0.729  -2.123  0.00  0.00    -0.176 NA
ATOM     18  C   UNL     1      -5.362  -3.788  -1.688  0.00  0.00    +0.065 C 
ENDBRANCH  11  16
ENDBRANCH   5  11
ENDBRANCH   1   8
BRANCH   3  19
ATOM     19  N   UNL     1       1.193   1.683  -0.000  0.00  0.00    -0.187 NA
ATOM     20  C   UNL     1       2.325   1.049  -0.015  0.00  0.00    +0.142 C 
BRANCH  20  21
ATOM     21  C   UNL     1       3.592   1.803  -0.023  0.00  0.00    +0.043 A 
ATOM     22  C   UNL     1       4.813   1.125  -0.032  0.00  0.00    +0.046 A 
ATOM     23  C   UNL     1       5.994   1.837  -0.045  0.00  0.00    +0.127 A 
ATOM     24  C   UNL     1       5.975   3.221  -0.037  0.00  0.00    +0.036 A 
ATOM     25  C   UNL     1       4.773   3.904  -0.023  0.00  0.00    +0.054 A 
ATOM     26  C   UNL     1       3.577   3.205  -0.015  0.00  0.00    +0.188 A 
ATOM     27  O   UNL     1       2.396   3.874   0.001  0.00  0.00    -0.287 OA
BRANCH  23  28
ATOM     28  N   UNL     1       7.288   1.118  -0.061  0.00  0.00    +0.056 N 
ATOM     29  O   UNL     1       8.332   1.744  -0.067  0.00  0.00    -0.126 OA
ATOM     30  O   UNL     1       7.307  -0.100  -0.068  0.00  0.00    -0.126 OA
ENDBRANCH  23  28
ENDBRANCH  20  21
ENDBRANCH   3  19
TORSDOF 6
