REMARK  Name = ZINC55414655
REMARK  12 active torsions:
REMARK  status: ('A' for Active; 'I' for Inactive)
REMARK    1  A    between atoms: C_1  and  C_2
REMARK    2  A    between atoms: C_2  and  C_3
REMARK    3  A    between atoms: C_3  and  N_4
REMARK    4  A    between atoms: C_5  and  C_27
REMARK    5  A    between atoms: C_6  and  C_10
REMARK    6  A    between atoms: C_7  and  C_9
REMARK    7  A    between atoms: C_10  and  N_11
REMARK    8  A    between atoms: N_11  and  C_12
REMARK    9  A    between atoms: C_12  and  C_13
REMARK   10  A    between atoms: C_14  and  C_26
REMARK   11  A    between atoms: N_15  and  C_22
REMARK   12  A    between atoms: C_22  and  C_23
REMARK                            x       y       z     vdW  Elec       q    Type
REMARK                         _______ _______ _______ _____ _____    ______ ____
ROOT
ATOM      1  C   UNL     1       1.448  -7.247  -3.019  0.00  0.00    -0.036 A 
ATOM      2  C   UNL     1       2.192  -6.814  -4.049  0.00  0.00    +0.019 A 
ATOM      3  N   UNL     1       3.436  -7.381  -3.998  0.00  0.00    -0.335 N 
ATOM      4  C   UNL     1       3.525  -8.215  -2.905  0.00  0.00    +0.050 A 
ATOM      5  C   UNL     1       2.286  -8.162  -2.241  0.00  0.00    +0.001 A 
ATOM      6  C   UNL     1       2.086  -8.912  -1.080  0.00  0.00    +0.010 A 
ATOM      7  C   UNL     1       3.097  -9.691  -0.593  0.00  0.00    +0.001 A 
ATOM      8  C   UNL     1       4.322  -9.744  -1.243  0.00  0.00    +0.002 A 
ATOM      9  C   UNL     1       4.538  -9.019  -2.395  0.00  0.00    +0.026 A 
ATOM     10  C   UNL     1       1.726  -5.846  -5.106  0.00  0.00    +0.064 C 
ENDROOT
BRANCH   1  11
ATOM     11  C   UNL     1       0.024  -6.859  -2.716  0.00  0.00    -0.044 C 
BRANCH  11  12
ATOM     12  N   UNL     1       0.012  -5.670  -1.853  0.00  0.00    +0.385 N 
ATOM     13  H   UNL     1       0.475  -4.908  -2.325  0.00  0.00    -0.085 HD
ATOM     14  H   UNL     1       0.495  -5.876  -0.992  0.00  0.00    -0.085 HD
BRANCH  12  15
ATOM     15  C   UNL     1      -1.377  -5.293  -1.559  0.00  0.00    -0.043 C 
BRANCH  15  18
ATOM     16  N   UNL     1      -1.413  -1.998   0.005  0.00  0.00    -0.268 N 
ATOM     17  C   UNL     1      -1.408  -2.786  -1.091  0.00  0.00    +0.038 A 
ATOM     18  C   UNL     1      -1.388  -4.073  -0.673  0.00  0.00    -0.021 A 
ATOM     19  C   UNL     1      -1.382  -4.072   0.726  0.00  0.00    +0.062 A 
ATOM     20  N   UNL     1      -1.391  -2.829   1.133  0.00  0.00    -0.176 NA
ATOM     21  C   UNL     1      -1.361  -5.292   1.610  0.00  0.00    +0.068 C 
ATOM     22  C   UNL     1      -1.421  -2.317  -2.523  0.00  0.00    +0.065 C 
BRANCH  16  23
ATOM     23  C   UNL     1      -1.433  -0.534   0.013  0.00  0.00    +0.143 C 
BRANCH  23  25
ATOM     24  C   UNL     1      -0.019   1.526   0.010  0.00  0.00    +0.005 C 
ATOM     25  C   UNL     1       0.002  -0.004   0.002  0.00  0.00    +0.020 C 
ENDBRANCH  23  25
ENDBRANCH  16  23
ENDBRANCH  15  18
ENDBRANCH  12  15
ENDBRANCH  11  12
ENDBRANCH   1  11
BRANCH   3  26
ATOM     26  C   UNL     1       4.512  -7.139  -4.962  0.00  0.00    +0.217 C 
BRANCH  26  27
ATOM     27  C   UNL     1       5.344  -5.970  -4.502  0.00  0.00    +0.230 C 
ATOM     28  O   UNL     1       5.066  -5.396  -3.471  0.00  0.00    -0.274 OA
ATOM     29  N   UNL     1       6.398  -5.562  -5.237  0.00  0.00    -0.328 N 
ATOM     30  H   UNL     1       6.621  -6.021  -6.062  0.00  0.00    +0.145 HD
ATOM     31  H   UNL     1       6.934  -4.810  -4.941  0.00  0.00    +0.145 HD
ENDBRANCH  26  27
ENDBRANCH   3  26
TORSDOF 8
