REMARK  Name = ZINC39843398
REMARK  8 active torsions:
REMARK  status: ('A' for Active; 'I' for Inactive)
REMARK    1  A    between atoms: C_1  and  O_2
REMARK    2  A    between atoms: O_2  and  C_3
REMARK    3  A    between atoms: C_6  and  N_9
REMARK    4  A    between atoms: C_10  and  C_12
REMARK    5  A    between atoms: C_12  and  C_13
REMARK    6  A    between atoms: N_19  and  N_20
REMARK    7  A    between atoms: C_21  and  C_22
REMARK    8  A    between atoms: C_25  and  N_28
REMARK                            x       y       z     vdW  Elec       q    Type
REMARK                         _______ _______ _______ _____ _____    ______ ____
ROOT
ATOM      1  C   UNL     1       3.369  -5.973  -5.231  0.00  0.00    +0.149 C 
ATOM      2  C   UNL     1       4.155  -6.681  -6.325  0.00  0.00    +0.233 C 
ATOM      3  O   UNL     1       5.340  -6.508  -6.516  0.00  0.00    -0.274 OA
ATOM      4  N   UNL     1       3.411  -7.508  -7.047  0.00  0.00    -0.263 N 
ATOM      5  C   UNL     1       2.090  -7.691  -6.821  0.00  0.00    +0.183 C 
ATOM      6  N   UNL     1       1.242  -8.517  -7.508  0.00  0.00    -0.127 NA
ATOM      7  S   UNL     1       1.702  -6.695  -5.521  0.00  0.00    -0.075 S 
ATOM      8  H   UNL     1       3.831  -8.002  -7.768  0.00  0.00    +0.157 HD
ENDROOT
BRANCH   6   9
ATOM      9  N   UNL     1       1.688  -9.226  -8.489  0.00  0.00    -0.155 NA
ATOM     10  C   UNL     1       0.850 -10.043  -9.167  0.00  0.00    +0.143 C 
BRANCH  10  11
ATOM     11  C   UNL     1       1.334 -10.813 -10.233  0.00  0.00    -0.005 A 
ATOM     12  C   UNL     1       2.699 -10.745 -10.602  0.00  0.00    +0.012 A 
ATOM     13  C   UNL     1       3.156 -11.501 -11.641  0.00  0.00    +0.033 A 
ATOM     14  C   UNL     1       2.288 -12.333 -12.338  0.00  0.00    +0.126 A 
ATOM     15  C   UNL     1       0.946 -12.409 -11.988  0.00  0.00    +0.033 A 
ATOM     16  C   UNL     1       0.463 -11.670 -10.948  0.00  0.00    +0.012 A 
BRANCH  14  17
ATOM     17  N   UNL     1       2.800 -13.147 -13.464  0.00  0.00    +0.056 N 
ATOM     18  O   UNL     1       4.071 -13.080 -13.802  0.00  0.00    -0.126 OA
ATOM     19  O   UNL     1       1.983 -13.939 -14.129  0.00  0.00    -0.126 OA
ENDBRANCH  14  17
ENDBRANCH  10  11
ENDBRANCH   6   9
BRANCH   1  20
ATOM     20  C   UNL     1       3.363  -4.458  -5.442  0.00  0.00    +0.120 C 
BRANCH  20  22
ATOM     21  N   UNL     1       2.458  -2.458  -4.302  0.00  0.00    -0.285 N 
ATOM     22  C   UNL     1       2.596  -3.798  -4.325  0.00  0.00    +0.219 C 
ATOM     23  O   UNL     1       2.102  -4.474  -3.447  0.00  0.00    -0.275 OA
ATOM     24  H   UNL     1       2.786  -1.924  -5.042  0.00  0.00    +0.155 HD
BRANCH  21  28
ATOM     25  C   UNL     1       0.623  -0.606  -1.048  0.00  0.00    +0.120 A 
ATOM     26  C   UNL     1       1.376  -1.755  -0.857  0.00  0.00    +0.047 A 
ATOM     27  C   UNL     1       1.984  -2.369  -1.935  0.00  0.00    +0.027 A 
ATOM     28  C   UNL     1       1.841  -1.835  -3.208  0.00  0.00    +0.034 A 
ATOM     29  C   UNL     1       1.087  -0.685  -3.398  0.00  0.00    +0.027 A 
ATOM     30  C   UNL     1       0.475  -0.075  -2.321  0.00  0.00    +0.047 A 
BRANCH  25  32
ATOM     31  C   UNL     1       0.219  -0.601   1.296  0.00  0.00    +0.277 C 
ATOM     32  O   UNL     1       0.025  -0.001   0.013  0.00  0.00    -0.495 OA
ENDBRANCH  25  32
ENDBRANCH  21  28
ENDBRANCH  20  22
ENDBRANCH   1  20
TORSDOF 7
