REMARK  Name = ZINC13667189
REMARK  4 active torsions:
REMARK  status: ('A' for Active; 'I' for Inactive)
REMARK    1  A    between atoms: C_3  and  C_10
REMARK    2  A    between atoms: C_5  and  N_7
REMARK    3  A    between atoms: C_11  and  C_12
REMARK    4  A    between atoms: C_18  and  C_20
REMARK                            x       y       z     vdW  Elec       q    Type
REMARK                         _______ _______ _______ _____ _____    ______ ____
ROOT
ATOM      1  C   UNL     1      -1.268   7.438   0.057  0.00  0.00    +0.244 C 
ATOM      2  O   UNL     1      -0.223   8.061   0.051  0.00  0.00    -0.270 OA
ATOM      3  N   UNL     1      -2.444   8.096   0.071  0.00  0.00    -0.235 N 
ATOM      4  C   UNL     1      -2.462   9.444   0.080  0.00  0.00    +0.315 A 
ATOM      5  N   UNL     1      -1.384  10.254   0.080  0.00  0.00    -0.092 NA
ATOM      6  N   UNL     1      -1.778  11.480   0.086  0.00  0.00    -0.105 NA
ATOM      7  C   UNL     1      -3.128  11.504   0.098  0.00  0.00    +0.257 A 
ATOM      8  O   UNL     1      -3.558  10.221   0.094  0.00  0.00    -0.404 OA
ATOM      9  H   UNL     1      -3.278   7.600   0.076  0.00  0.00    +0.160 HD
ENDROOT
BRANCH   7  10
ATOM     10  C   UNL     1      -3.929  12.638   0.112  0.00  0.00    +0.077 A 
ATOM     11  C   UNL     1      -3.531  14.058   0.116  0.00  0.00    +0.022 A 
ATOM     12  C   UNL     1      -4.532  14.942   0.130  0.00  0.00    +0.024 A 
ATOM     13  C   UNL     1      -5.857  14.486   0.139  0.00  0.00    +0.056 A 
ATOM     14  S   UNL     1      -5.709  12.759   0.120  0.00  0.00    -0.077 S 
ATOM     15 BR   UNL     1      -7.442  15.518   0.159  0.00  0.00    -0.043 Br
ENDBRANCH   7  10
BRANCH   1  17
ATOM     16  C   UNL     1      -0.070   5.317   0.033  0.00  0.00    +0.013 C 
ATOM     17  C   UNL     1      -1.248   5.976   0.048  0.00  0.00    +0.068 C 
BRANCH  16  20
ATOM     18  C   UNL     1      -1.222   1.748   0.017  0.00  0.00    +0.003 A 
ATOM     19  C   UNL     1      -1.250   3.126   0.031  0.00  0.00    +0.008 A 
ATOM     20  C   UNL     1      -0.050   3.846   0.024  0.00  0.00    -0.023 A 
ATOM     21  C   UNL     1       1.169   3.159   0.008  0.00  0.00    +0.040 A 
ATOM     22  C   UNL     1       1.179   1.781   0.000  0.00  0.00    +0.127 A 
ATOM     23  C   UNL     1      -0.013   1.076   0.008  0.00  0.00    +0.033 A 
BRANCH  22  24
ATOM     24  N   UNL     1       2.467   1.052  -0.016  0.00  0.00    +0.056 N 
ATOM     25  O   UNL     1       2.479  -0.265  -0.023  0.00  0.00    -0.126 OA
ATOM     26  O   UNL     1       3.602   1.721  -0.023  0.00  0.00    -0.126 OA
ENDBRANCH  22  24
ENDBRANCH  16  20
ENDBRANCH   1  17
TORSDOF 4
