REMARK  Name = ZINC04812343
REMARK  5 active torsions:
REMARK  status: ('A' for Active; 'I' for Inactive)
REMARK    1  A    between atoms: C_4  and  C_7
REMARK    2  A    between atoms: C_7  and  C_8
REMARK    3  A    between atoms: C_8  and  N_9
REMARK    4  A    between atoms: C_10  and  C_12
REMARK    5  A    between atoms: C_17  and  N_18
REMARK                            x       y       z     vdW  Elec       q    Type
REMARK                         _______ _______ _______ _____ _____    ______ ____
ROOT
ATOM      1  C   UNL     1       0.023  -0.710   1.206  0.00  0.00    +0.068 A 
ATOM      2  C   UNL     1       0.042  -2.105   1.198  0.00  0.00    +0.016 A 
ATOM      3  C   UNL     1       0.040  -2.796   0.001  0.00  0.00    +0.013 A 
ATOM      4  C   UNL     1       0.019  -2.102  -1.206  0.00  0.00    +0.035 A 
ATOM      5  C   UNL     1      -0.006  -0.695  -1.205  0.00  0.00    +0.064 A 
ATOM      6  C   UNL     1       0.002  -0.004   0.002  0.00  0.00    +0.150 A 
ATOM      7  C   UNL     1      -0.034   0.045  -2.484  0.00  0.00    +0.197 C 
ATOM      8  O   UNL     1      -0.050   1.260  -2.483  0.00  0.00    -0.287 OA
ATOM      9  C   UNL     1      -0.042  -0.694  -3.764  0.00  0.00    +0.033 A 
ATOM     10  C   UNL     1      -0.069  -0.003  -4.972  0.00  0.00    +0.012 A 
ATOM     11  C   UNL     1      -0.078  -0.703  -6.166  0.00  0.00    +0.001 A 
ATOM     12  C   UNL     1      -0.059  -2.086  -6.168  0.00  0.00    +0.001 A 
ATOM     13  C   UNL     1      -0.032  -2.788  -4.976  0.00  0.00    +0.012 A 
ATOM     14  C   UNL     1      -0.024  -2.100  -3.765  0.00  0.00    +0.033 A 
ATOM     15  C   UNL     1       0.016  -2.841  -2.488  0.00  0.00    +0.195 C 
ATOM     16  O   UNL     1       0.034  -4.056  -2.490  0.00  0.00    -0.287 OA
ENDROOT
BRANCH   1  18
ATOM     17  N   UNL     1       0.046  -0.659   3.655  0.00  0.00    -0.311 N 
ATOM     18  C   UNL     1       0.026   0.022   2.492  0.00  0.00    +0.246 C 
ATOM     19  O   UNL     1       0.010   1.237   2.499  0.00  0.00    -0.270 OA
ATOM     20  H   UNL     1       0.059  -1.629   3.649  0.00  0.00    +0.149 HD
BRANCH  17  21
ATOM     21  C   UNL     1       0.049   0.066   4.928  0.00  0.00    +0.109 C 
BRANCH  21  22
ATOM     22  C   UNL     1       0.073  -0.935   6.085  0.00  0.00    +0.054 C 
BRANCH  22  26
ATOM     23  C   UNL     1       0.081   1.177   9.797  0.00  0.00    +0.000 A 
ATOM     24  C   UNL     1      -1.117   0.820   9.208  0.00  0.00    +0.000 A 
ATOM     25  C   UNL     1      -1.120   0.136   8.007  0.00  0.00    +0.004 A 
ATOM     26  C   UNL     1       0.076  -0.190   7.394  0.00  0.00    -0.046 A 
ATOM     27  C   UNL     1       1.274   0.163   7.986  0.00  0.00    +0.004 A 
ATOM     28  C   UNL     1       1.277   0.851   9.185  0.00  0.00    +0.000 A 
ENDBRANCH  22  26
ENDBRANCH  21  22
ENDBRANCH  17  21
ENDBRANCH   1  18
BRANCH   6  29
ATOM     29  N   UNL     1      -0.018   1.476   0.010  0.00  0.00    +0.058 N 
ATOM     30  O   UNL     1       1.028   2.099   0.004  0.00  0.00    -0.126 OA
ATOM     31  O   UNL     1      -1.081   2.071   0.018  0.00  0.00    -0.126 OA
ENDBRANCH   6  29
TORSDOF 5
