REMARK  Name = ZINC67469418
REMARK  9 active torsions:
REMARK  status: ('A' for Active; 'I' for Inactive)
REMARK    1  A    between atoms: C_1  and  C_2
REMARK    2  A    between atoms: C_7  and  C_9
REMARK    3  A    between atoms: C_7  and  C_10
REMARK    4  A    between atoms: N_13  and  C_14
REMARK    5  A    between atoms: C_14  and  C_16
REMARK    6  A    between atoms: C_14  and  C_17
REMARK    7  A    between atoms: C_21  and  S_23
REMARK    8  A    between atoms: S_23  and  N_26
REMARK    9  A    between atoms: N_26  and  C_27
REMARK                            x       y       z     vdW  Elec       q    Type
REMARK                         _______ _______ _______ _____ _____    ______ ____
ROOT
ATOM      1  C   UNL     1      -0.607  -3.172  -4.278  0.00  0.00    +0.102 C 
ATOM      2  C   UNL     1      -1.996  -3.680  -3.888  0.00  0.00    +0.033 C 
ENDROOT
BRANCH   1  14
ATOM      3  C   UNL     1      -0.025   1.523   0.013  0.00  0.00    +0.039 C 
ATOM      4  C   UNL     1      -0.003  -0.006   0.004  0.00  0.00    +0.133 C 
ATOM      5  C   UNL     1       0.718  -0.500  -1.256  0.00  0.00    +0.140 C 
ATOM      6  N   UNL     1       0.892  -1.957  -1.150  0.00  0.00    -0.280 N 
ATOM      7  C   UNL     1       1.481  -2.496   0.086  0.00  0.00    +0.143 C 
ATOM      8  C   UNL     1       0.723  -1.905   1.280  0.00  0.00    +0.080 C 
ATOM      9  O   UNL     1       0.691  -0.481   1.161  0.00  0.00    -0.368 OA
ATOM     10  C   UNL     1      -0.707  -2.448   1.297  0.00  0.00    +0.043 C 
ATOM     11  C   UNL     1       1.434  -2.293   2.579  0.00  0.00    +0.043 C 
ATOM     12  C   UNL     1       0.523  -2.775  -2.156  0.00  0.00    +0.303 C 
ATOM     13  O   UNL     1       0.757  -3.966  -2.089  0.00  0.00    -0.253 OA
ATOM     14  N   UNL     1      -0.106  -2.272  -3.237  0.00  0.00    -0.293 N 
ATOM     15  H   UNL     1      -0.227  -1.313  -3.325  0.00  0.00    +0.151 HD
ENDBRANCH   1  14
BRANCH   1  16
ATOM     16  C   UNL     1      -0.693  -2.429  -5.587  0.00  0.00    -0.026 A 
ATOM     17  C   UNL     1      -1.134  -1.119  -5.610  0.00  0.00    +0.005 A 
ATOM     18  C   UNL     1      -1.213  -0.438  -6.810  0.00  0.00    +0.002 A 
ATOM     19  C   UNL     1      -0.849  -1.066  -7.987  0.00  0.00    +0.028 A 
ATOM     20  C   UNL     1      -0.407  -2.375  -7.963  0.00  0.00    +0.106 A 
ATOM     21  C   UNL     1      -0.324  -3.055  -6.762  0.00  0.00    +0.034 A 
BRANCH  20  22
ATOM     22  S   UNL     1       0.056  -3.175  -9.463  0.00  0.00    +0.058 S 
ATOM     23  O   UNL     1      -0.083  -4.572  -9.238  0.00  0.00    -0.153 OA
ATOM     24  O   UNL     1      -0.626  -2.501 -10.511  0.00  0.00    -0.153 OA
BRANCH  22  25
ATOM     25  N   UNL     1       1.672  -2.892  -9.691  0.00  0.00    -0.193 NA
ATOM     26  C   UNL     1       2.651  -3.439  -8.749  0.00  0.00    +0.127 C 
ATOM     27  H   UNL     1       1.969  -2.364 -10.448  0.00  0.00    +0.148 HD
ENDBRANCH  22  25
ENDBRANCH  20  22
ENDBRANCH   1  16
TORSDOF 4
