REMARK  Name = ZINC04195659
REMARK  12 active torsions:
REMARK  status: ('A' for Active; 'I' for Inactive)
REMARK    1  A    between atoms: C_1  and  N_2
REMARK    2  A    between atoms: N_2  and  C_3
REMARK    3  A    between atoms: N_2  and  S_4
REMARK    4  A    between atoms: S_4  and  N_7
REMARK    5  A    between atoms: C_12  and  C_13
REMARK    6  A    between atoms: C_12  and  N_60
REMARK    7  A    between atoms: C_13  and  C_15
REMARK    8  A    between atoms: C_13  and  O_31
REMARK    9  A    between atoms: C_15  and  O_16
REMARK   10  A    between atoms: O_16  and  C_17
REMARK   11  A    between atoms: C_20  and  C_23
REMARK   12  A    between atoms: C_23  and  C_25
REMARK                            x       y       z     vdW  Elec       q    Type
REMARK                         _______ _______ _______ _____ _____    ______ ____
ROOT
ATOM      1  C   UNL     1       8.436   6.259  -0.245  0.00  0.00    +0.135 C 
ENDROOT
BRANCH   1   2
ATOM      2  O   UNL     1       9.312   6.175   0.880  0.00  0.00    -0.390 OA
ATOM      3  H   UNL     1       8.980   6.621   1.671  0.00  0.00    +0.210 HD
ENDBRANCH   1   2
BRANCH   1   4
ATOM      4  C   UNL     1       8.217   7.728  -0.613  0.00  0.00    -0.044 C 
BRANCH   4  10
ATOM      5  N   UNL     1      11.383   9.887  -2.324  0.00  0.00    -0.170 NA
ATOM      6  C   UNL     1      11.358   8.436  -2.564  0.00  0.00    +0.092 C 
ATOM      7  C   UNL     1       9.936   7.926  -2.307  0.00  0.00    -0.061 C 
ATOM      8  C   UNL     1       9.438   9.804  -0.857  0.00  0.00    -0.061 C 
ATOM      9  C   UNL     1      10.840  10.392  -1.054  0.00  0.00    +0.092 C 
ATOM     10  N   UNL     1       9.525   8.330  -0.945  0.00  0.00    +0.383 N 
ATOM     11  H   UNL     1      10.226   7.997  -0.273  0.00  0.00    -0.082 HD
BRANCH   5  12
ATOM     12  S   UNL     1      12.009  10.924  -3.453  0.00  0.00    +0.099 S 
ATOM     13  O   UNL     1      12.404  12.096  -2.753  0.00  0.00    -0.141 OA
ATOM     14  O   UNL     1      12.915  10.167  -4.243  0.00  0.00    -0.141 OA
BRANCH  12  16
ATOM     15  C   UNL     1       9.954  12.546  -4.137  0.00  0.00    +0.132 C 
ATOM     16  N   UNL     1      10.765  11.367  -4.453  0.00  0.00    -0.173 NA
ATOM     17  C   UNL     1      10.475  10.580  -5.654  0.00  0.00    +0.132 C 
ENDBRANCH  12  16
ENDBRANCH   5  12
ENDBRANCH   4  10
ENDBRANCH   1   4
BRANCH   1  18
ATOM     18  C   UNL     1       7.092   5.616   0.105  0.00  0.00    +0.258 C 
BRANCH  18  19
ATOM     19  O   UNL     1       7.279   4.218   0.336  0.00  0.00    -0.489 OA
BRANCH  19  20
ATOM     20  C   UNL     1       6.178   3.494   0.660  0.00  0.00    +0.121 A 
ATOM     21  C   UNL     1       6.290   2.129   0.897  0.00  0.00    +0.046 A 
ATOM     22  C   UNL     1       5.176   1.391   1.226  0.00  0.00    +0.015 A 
ATOM     23  C   UNL     1       3.929   2.017   1.323  0.00  0.00    +0.022 A 
ATOM     24  C   UNL     1       3.820   3.390   1.078  0.00  0.00    +0.015 A 
ATOM     25  C   UNL     1       4.940   4.121   0.754  0.00  0.00    +0.046 A 
BRANCH  23  26
ATOM     26  C   UNL     1       2.732   1.231   1.675  0.00  0.00    +0.193 C 
ATOM     27  O   UNL     1       2.642   0.070   1.324  0.00  0.00    -0.287 OA
BRANCH  26  28
ATOM     28  C   UNL     1       1.642   1.853   2.455  0.00  0.00    +0.022 A 
ATOM     29  C   UNL     1       0.438   1.172   2.646  0.00  0.00    +0.012 A 
ATOM     30  C   UNL     1      -0.577   1.761   3.369  0.00  0.00    +0.001 A 
ATOM     31  C   UNL     1      -0.401   3.021   3.916  0.00  0.00    +0.000 A 
ATOM     32  C   UNL     1       0.790   3.701   3.731  0.00  0.00    +0.001 A 
ATOM     33  C   UNL     1       1.811   3.126   3.004  0.00  0.00    +0.012 A 
ENDBRANCH  26  28
ENDBRANCH  23  26
ENDBRANCH  19  20
ENDBRANCH  18  19
ENDBRANCH   1  18
TORSDOF 10
