REMARK  Name = ZINC01072358
REMARK  10 active torsions:
REMARK  status: ('A' for Active; 'I' for Inactive)
REMARK    1  A    between atoms: C_1  and  C_2
REMARK    2  A    between atoms: C_2  and  C_3
REMARK    3  A    between atoms: C_2  and  C_4
REMARK    4  A    between atoms: C_4  and  C_6
REMARK    5  A    between atoms: C_4  and  N_21
REMARK    6  A    between atoms: C_6  and  O_8
REMARK    7  A    between atoms: O_8  and  C_9
REMARK    8  A    between atoms: C_14  and  N_16
REMARK    9  A    between atoms: C_17  and  O_19
REMARK   10  A    between atoms: O_19  and  C_20
REMARK                            x       y       z     vdW  Elec       q    Type
REMARK                         _______ _______ _______ _____ _____    ______ ____
ROOT
ATOM      1  C   UNL     1      -1.235   2.154   0.020  0.00  0.00    +0.196 C 
ENDROOT
BRANCH   1   2
ATOM      2  N   UNL     1      -0.016   1.341   0.009  0.00  0.00    -0.220 N 
ATOM      3  C   UNL     1       1.232   1.842   0.000  0.00  0.00    +0.255 C 
ATOM      4  O   UNL     1       1.523   3.021   0.003  0.00  0.00    -0.270 OA
ATOM      5  C   UNL     1       2.191   0.717  -0.015  0.00  0.00    +0.049 A 
ATOM      6  C   UNL     1       3.574   0.624  -0.028  0.00  0.00    +0.014 A 
ATOM      7  C   UNL     1       4.178  -0.624  -0.041  0.00  0.00    +0.001 A 
ATOM      8  C   UNL     1       3.411  -1.774  -0.040  0.00  0.00    +0.001 A 
ATOM      9  C   UNL     1       2.027  -1.696  -0.026  0.00  0.00    +0.014 A 
ATOM     10  C   UNL     1       1.409  -0.456  -0.014  0.00  0.00    +0.049 A 
ATOM     11  C   UNL     1       0.002  -0.004   0.002  0.00  0.00    +0.255 C 
ATOM     12  O   UNL     1      -0.974  -0.726   0.008  0.00  0.00    -0.270 OA
ENDBRANCH   1   2
BRANCH   1  14
ATOM     13  C   UNL     1      -1.247   2.167  -2.479  0.00  0.00    +0.009 C 
ATOM     14  C   UNL     1      -1.266   3.043  -1.224  0.00  0.00    +0.015 C 
ATOM     15  C   UNL     1      -2.539   3.892  -1.214  0.00  0.00    +0.009 C 
ENDBRANCH   1  14
BRANCH   1  16
ATOM     16  C   UNL     1      -1.253   3.017   1.255  0.00  0.00    +0.329 C 
ATOM     17  O   UNL     1      -0.341   2.959   2.046  0.00  0.00    -0.249 OA
BRANCH  16  18
ATOM     18  O   UNL     1      -2.282   3.849   1.477  0.00  0.00    -0.457 OA
BRANCH  18  19
ATOM     19  C   UNL     1      -2.233   4.650   2.687  0.00  0.00    +0.207 C 
ATOM     20  C   UNL     1      -1.496   5.986   2.390  0.00  0.00    +0.115 C 
ATOM     21  S   UNL     1      -2.122   7.003   3.799  0.00  0.00    -0.155 S 
ATOM     22  C   UNL     1      -3.797   6.253   3.941  0.00  0.00    +0.095 C 
ATOM     23  C   UNL     1      -3.656   4.926   3.169  0.00  0.00    +0.127 C 
BRANCH  23  24
ATOM     24  N   UNL     1      -4.076   3.830   4.046  0.00  0.00    -0.274 N 
ATOM     25  C   UNL     1      -5.386   3.552   4.197  0.00  0.00    +0.400 C 
ATOM     26  O   UNL     1      -6.219   4.210   3.607  0.00  0.00    -0.226 OA
ATOM     27  H   UNL     1      -3.411   3.304   4.517  0.00  0.00    +0.152 HD
BRANCH  25  28
ATOM     28  O   UNL     1      -5.771   2.544   5.003  0.00  0.00    -0.454 OA
ATOM     29  C   UNL     1      -7.198   2.302   5.119  0.00  0.00    +0.282 C 
ENDBRANCH  25  28
ENDBRANCH  23  24
ENDBRANCH  18  19
ENDBRANCH  16  18
ENDBRANCH   1  16
TORSDOF 7
