REMARK  Name = ZINC38689365
REMARK  5 active torsions:
REMARK  status: ('A' for Active; 'I' for Inactive)
REMARK    1  A    between atoms: C_1  and  N_2
REMARK    2  A    between atoms: C_3  and  S_7
REMARK    3  A    between atoms: S_7  and  C_8
REMARK    4  A    between atoms: C_8  and  C_9
REMARK    5  A    between atoms: C_14  and  C_19
REMARK                            x       y       z     vdW  Elec       q    Type
REMARK                         _______ _______ _______ _____ _____    ______ ____
ROOT
ATOM      1  C   UNL     1      -5.213  -1.526   0.018  0.00  0.00    +0.134 C 
ATOM      2  N   UNL     1      -5.578  -0.266   0.021  0.00  0.00    -0.160 NA
ATOM      3  C   UNL     1      -6.859   0.115   0.028  0.00  0.00    +0.272 C 
ATOM      4  O   UNL     1      -7.165   1.296   0.030  0.00  0.00    -0.268 OA
ATOM      5  C   UNL     1      -7.905  -0.950   0.032  0.00  0.00    +0.075 C 
ATOM      6  C   UNL     1      -9.271  -0.804   0.039  0.00  0.00    -0.015 C 
ATOM      7  C   UNL     1     -10.098  -2.070   0.042  0.00  0.00    +0.112 C 
ATOM      8  S   UNL     1      -8.800  -3.371   0.034  0.00  0.00    -0.100 S 
ATOM      9  C   UNL     1      -7.371  -2.320   0.028  0.00  0.00    +0.112 C 
ATOM     10  N   UNL     1      -6.073  -2.530   0.016  0.00  0.00    -0.227 NA
ENDROOT
BRANCH   6  11
ATOM     11  C   UNL     1      -9.898   0.517   0.044  0.00  0.00    -0.020 A 
ATOM     12  C   UNL     1      -9.727   1.375   1.141  0.00  0.00    +0.009 A 
ATOM     13  C   UNL     1     -10.321   2.617   1.137  0.00  0.00    +0.020 A 
ATOM     14  C   UNL     1     -11.086   3.021   0.053  0.00  0.00    +0.041 A 
ATOM     15  C   UNL     1     -11.260   2.180  -1.035  0.00  0.00    +0.020 A 
ATOM     16  C   UNL     1     -10.669   0.936  -1.051  0.00  0.00    +0.009 A 
ATOM     17 CL   UNL     1     -11.831   4.589   0.059  0.00  0.00    -0.084 Cl
ENDBRANCH   6  11
BRANCH   1  18
ATOM     18  C   UNL     1      -3.740  -1.844   0.009  0.00  0.00    +0.150 C 
BRANCH  18  19
ATOM     19  S   UNL     1      -2.788  -0.301   0.013  0.00  0.00    -0.080 S 
BRANCH  19  22
ATOM     20  C   UNL     1      -0.018   1.461   0.010  0.00  0.00    +0.153 C 
ATOM     21  N   UNL     1       0.002  -0.004   0.002  0.00  0.00    -0.230 N 
ATOM     22  C   UNL     1      -1.109  -0.836   0.003  0.00  0.00    +0.190 C 
ATOM     23  N   UNL     1      -0.712  -2.071  -0.006  0.00  0.00    -0.147 NA
ATOM     24  N   UNL     1       0.689  -2.092  -0.013  0.00  0.00    -0.184 N 
ATOM     25  N   UNL     1       1.119  -0.794  -0.013  0.00  0.00    -0.144 NA
ATOM     26  H   UNL     1       1.251  -2.883  -0.019  0.00  0.00    +0.191 HD
ATOM     27  H   UNL     1       1.704  -0.608   0.787  0.00  0.00    +0.169 HD
ENDBRANCH  19  22
ENDBRANCH  18  19
ENDBRANCH   1  18
TORSDOF 4
