REMARK  Name = ZINC40431395
REMARK  4 active torsions:
REMARK  status: ('A' for Active; 'I' for Inactive)
REMARK    1  A    between atoms: C_4  and  C_7
REMARK    2  A    between atoms: C_7  and  C_8
REMARK    3  A    between atoms: C_27  and  C_30
REMARK    4  A    between atoms: C_30  and  O_31
REMARK                            x       y       z     vdW  Elec       q    Type
REMARK                         _______ _______ _______ _____ _____    ______ ____
ROOT
ATOM      1  C   UNL     1       4.107  -0.802   1.435  0.00  0.00    +0.073 A 
ATOM      2  C   UNL     1       5.289  -1.559   1.544  0.00  0.00    +0.009 A 
ATOM      3  C   UNL     1       6.055  -1.930   0.431  0.00  0.00    +0.010 A 
ATOM      4  C   UNL     1       7.189  -2.664   0.615  0.00  0.00    +0.001 A 
ATOM      5  C   UNL     1       7.596  -3.050   1.889  0.00  0.00    +0.001 A 
ATOM      6  C   UNL     1       6.874  -2.705   2.994  0.00  0.00    +0.012 A 
ATOM      7  C   UNL     1       5.705  -1.953   2.842  0.00  0.00    +0.023 A 
ATOM      8  C   UNL     1       4.902  -1.556   3.936  0.00  0.00    +0.123 A 
ATOM      9  N   UNL     1       3.813  -0.845   3.701  0.00  0.00    -0.263 N 
ATOM     10  N   UNL     1       3.447  -0.490   2.526  0.00  0.00    -0.176 NA
ATOM     11  N   UNL     1       5.250  -1.907   5.230  0.00  0.00    -0.312 N 
ATOM     12  C   UNL     1       6.192  -1.083   6.001  0.00  0.00    +0.125 C 
ATOM     13  C   UNL     1       5.523  -0.679   7.321  0.00  0.00    +0.125 C 
ATOM     14  N   UNL     1       4.957  -1.882   7.947  0.00  0.00    -0.314 N 
ATOM     15  C   UNL     1       4.015  -2.706   7.176  0.00  0.00    +0.125 C 
ATOM     16  C   UNL     1       4.680  -3.107   5.859  0.00  0.00    +0.125 C 
ATOM     17  C   UNL     1       5.306  -2.234   9.246  0.00  0.00    +0.099 A 
ATOM     18  C   UNL     1       6.089  -1.372  10.007  0.00  0.00    +0.042 A 
ATOM     19  C   UNL     1       6.429  -1.735  11.298  0.00  0.00    +0.010 A 
ATOM     20  C   UNL     1       5.973  -2.952  11.786  0.00  0.00    -0.006 A 
ATOM     21  C   UNL     1       5.200  -3.759  10.975  0.00  0.00    +0.090 A 
ATOM     22  N   UNL     1       4.886  -3.385   9.749  0.00  0.00    -0.349 N 
ATOM     23  H   UNL     1       4.338  -3.969   9.202  0.00  0.00    +0.167 HD
ATOM     24  H   UNL     1       3.267  -0.576   4.456  0.00  0.00    +0.190 HD
ENDROOT
BRANCH   1  25
ATOM     25  C   UNL     1       3.609  -0.351   0.086  0.00  0.00    +0.093 C 
BRANCH  25  29
ATOM     26  C   UNL     1       5.295   3.459  -0.855  0.00  0.00    +0.000 A 
ATOM     27  C   UNL     1       5.953   2.301  -1.226  0.00  0.00    +0.000 A 
ATOM     28  C   UNL     1       5.408   1.068  -0.921  0.00  0.00    +0.004 A 
ATOM     29  C   UNL     1       4.204   0.993  -0.245  0.00  0.00    -0.042 A 
ATOM     30  C   UNL     1       3.547   2.151   0.126  0.00  0.00    +0.004 A 
ATOM     31  C   UNL     1       4.091   3.384  -0.180  0.00  0.00    +0.000 A 
ENDBRANCH  25  29
ENDBRANCH   1  25
BRANCH  20  32
ATOM     32  C   UNL     1       6.320  -3.389  13.186  0.00  0.00    +0.192 C 
BRANCH  32  33
ATOM     33  O   UNL     1       5.316  -2.925  14.091  0.00  0.00    -0.390 OA
ATOM     34  H   UNL     1       5.475  -3.170  15.013  0.00  0.00    +0.210 HD
ENDBRANCH  32  33
ENDBRANCH  20  32
TORSDOF 4
