REMARK  Name = ZINC19852613
REMARK  14 active torsions:
REMARK  status: ('A' for Active; 'I' for Inactive)
REMARK    1  A    between atoms: C_1  and  C_2
REMARK    2  A    between atoms: C_2  and  O_3
REMARK    3  A    between atoms: O_3  and  C_4
REMARK    4  A    between atoms: C_6  and  C_19
REMARK    5  A    between atoms: C_9  and  O_10
REMARK    6  A    between atoms: O_10  and  C_11
REMARK    7  A    between atoms: C_11  and  C_12
REMARK    8  A    between atoms: C_12  and  N_13
REMARK    9  A    between atoms: C_22  and  C_33
REMARK   10  A    between atoms: C_28  and  N_32
REMARK   11  A    between atoms: C_29  and  C_30
REMARK   12  A    between atoms: C_33  and  C_34
REMARK   13  A    between atoms: C_33  and  C_35
REMARK   14  A    between atoms: C_33  and  C_36
REMARK                            x       y       z     vdW  Elec       q    Type
REMARK                         _______ _______ _______ _____ _____    ______ ____
ROOT
ATOM      1  C   UNL     1      -0.111  -4.788   1.002  0.00  0.00    +0.101 C 
ATOM      2  C   UNL     1       0.952  -5.763   1.441  0.00  0.00    +0.050 A 
ATOM      3  C   UNL     1       2.018  -5.568   2.231  0.00  0.00    +0.049 A 
ATOM      4  N   UNL     1       2.677  -6.746   2.329  0.00  0.00    -0.277 N 
ATOM      5  H   UNL     1       3.488  -6.905   2.837  0.00  0.00    +0.189 HD
ATOM      6  N   UNL     1       1.982  -7.699   1.567  0.00  0.00    -0.135 NA
ATOM      7  C   UNL     1       0.948  -7.115   1.034  0.00  0.00    +0.245 A 
ATOM      8  O   UNL     1      -0.019  -7.621   0.223  0.00  0.00    -0.421 OA
ATOM      9  C   UNL     1      -1.123  -6.873   0.032  0.00  0.00    +0.201 C 
ATOM     10  C   UNL     1      -1.233  -5.569   0.368  0.00  0.00    +0.098 C 
ENDROOT
BRANCH   1  13
ATOM     11  C   UNL     1       0.748  -1.580  -0.799  0.00  0.00    +0.162 A 
ATOM     12  C   UNL     1       0.217  -2.469   0.122  0.00  0.00    +0.054 A 
ATOM     13  C   UNL     1       0.467  -3.823  -0.000  0.00  0.00    -0.031 A 
ATOM     14  C   UNL     1       1.247  -4.293  -1.041  0.00  0.00    +0.008 A 
ATOM     15  C   UNL     1       1.779  -3.412  -1.963  0.00  0.00    +0.050 A 
ATOM     16  C   UNL     1       1.528  -2.054  -1.849  0.00  0.00    +0.162 A 
BRANCH  11  17
ATOM     17  O   UNL     1       0.502  -0.247  -0.679  0.00  0.00    -0.489 OA
BRANCH  17  19
ATOM     18  C   UNL     1      -0.471   1.688   0.392  0.00  0.00    +0.048 C 
ATOM     19  C   UNL     1      -0.306   0.167   0.423  0.00  0.00    +0.226 C 
ENDBRANCH  17  19
ENDBRANCH  11  17
BRANCH  16  20
ATOM     20  O   UNL     1       2.046  -1.186  -2.759  0.00  0.00    -0.487 OA
BRANCH  20  21
ATOM     21  C   UNL     1       2.837  -1.744  -3.810  0.00  0.00    +0.244 C 
BRANCH  21  22
ATOM     22  C   UNL     1       3.329  -0.623  -4.728  0.00  0.00    +0.125 C 
BRANCH  22  23
ATOM     23  N   UNL     1       4.236   0.258  -3.980  0.00  0.00    -0.295 NA
ATOM     24  C   UNL     1       4.362   1.566  -4.640  0.00  0.00    +0.112 C 
ATOM     25  C   UNL     1       5.266   2.471  -3.799  0.00  0.00    +0.175 C 
ATOM     26  O   UNL     1       6.533   1.833  -3.615  0.00  0.00    -0.377 OA
ATOM     27  C   UNL     1       6.447   0.557  -2.974  0.00  0.00    +0.175 C 
ATOM     28  C   UNL     1       5.555  -0.367  -3.807  0.00  0.00    +0.112 C 
ENDBRANCH  22  23
ENDBRANCH  21  22
ENDBRANCH  20  21
ENDBRANCH  16  20
ENDBRANCH   1  13
BRANCH   3  29
ATOM     29  C   UNL     1       2.412  -4.272   2.891  0.00  0.00    +0.004 C 
ATOM     30  C   UNL     1       3.611  -4.511   3.811  0.00  0.00    +0.017 C 
ATOM     31  C   UNL     1       2.789  -3.248   1.818  0.00  0.00    +0.017 C 
ATOM     32  C   UNL     1       1.237  -3.740   3.713  0.00  0.00    +0.017 C 
ENDBRANCH   3  29
BRANCH   9  33
ATOM     33  N   UNL     1      -2.213  -7.477  -0.545  0.00  0.00    -0.328 N 
ATOM     34  H   UNL     1      -2.170  -8.412  -0.800  0.00  0.00    +0.145 HD
ATOM     35  H   UNL     1      -3.025  -6.969  -0.698  0.00  0.00    +0.145 HD
ENDBRANCH   9  33
BRANCH  10  36
ATOM     36  C   UNL     1      -2.472  -4.899   0.111  0.00  0.00    +0.101 C 
ATOM     37  N   UNL     1      -3.455  -4.367  -0.093  0.00  0.00    -0.191 NA
ENDBRANCH  10  36
TORSDOF 10
