REMARK  Name = ZINC05916570
REMARK  8 active torsions:
REMARK  status: ('A' for Active; 'I' for Inactive)
REMARK    1  A    between atoms: C_1  and  C_2
REMARK    2  A    between atoms: C_2  and  N_10
REMARK    3  A    between atoms: N_10  and  N_11
REMARK    4  A    between atoms: N_16  and  C_17
REMARK    5  A    between atoms: C_17  and  C_18
REMARK    6  A    between atoms: C_18  and  C_19
REMARK    7  A    between atoms: N_27  and  C_32
REMARK    8  A    between atoms: N_30  and  C_31
REMARK                            x       y       z     vdW  Elec       q    Type
REMARK                         _______ _______ _______ _____ _____    ______ ____
ROOT
ATOM      1  N   UNL     1      -0.076  -1.912  -1.470  0.00  0.00    -0.236 N 
ATOM      2  C   UNL     1       0.017  -2.456  -2.730  0.00  0.00    +0.215 A 
ATOM      3  N   UNL     1       0.183  -1.772  -3.844  0.00  0.00    -0.195 NA
ATOM      4  C   UNL     1       0.233  -2.604  -4.886  0.00  0.00    +0.170 A 
ATOM      5  C   UNL     1       0.087  -3.898  -4.397  0.00  0.00    +0.153 A 
ATOM      6  N   UNL     1      -0.044  -3.783  -3.019  0.00  0.00    -0.305 N 
ATOM      7  C   UNL     1       0.104  -4.978  -5.297  0.00  0.00    +0.282 A 
ATOM      8  O   UNL     1      -0.023  -6.120  -4.891  0.00  0.00    -0.265 OA
ATOM      9  N   UNL     1       0.260  -4.737  -6.615  0.00  0.00    -0.262 N 
ATOM     10  C   UNL     1       0.400  -3.482  -7.077  0.00  0.00    +0.333 A 
ATOM     11  O   UNL     1       0.539  -3.302  -8.272  0.00  0.00    -0.246 OA
ATOM     12  N   UNL     1       0.389  -2.420  -6.250  0.00  0.00    -0.280 N 
ATOM     13  C   UNL     1       0.544  -1.068  -6.793  0.00  0.00    +0.155 C 
ATOM     14  C   UNL     1       0.279  -5.859  -7.556  0.00  0.00    +0.157 C 
ATOM     15  H   UNL     1      -0.195  -2.489  -0.699  0.00  0.00    +0.173 HD
ENDROOT
BRANCH   1  16
ATOM     16  N   UNL     1       0.000  -0.523  -1.298  0.00  0.00    -0.268 N 
ATOM     17  H   UNL     1       0.043   0.059  -2.073  0.00  0.00    +0.170 HD
BRANCH  16  19
ATOM     18  C   UNL     1       0.074  -0.906   1.138  0.00  0.00    +0.062 C 
ATOM     19  C   UNL     1       0.015   0.001  -0.064  0.00  0.00    +0.026 C 
ATOM     20  C   UNL     1      -0.025   1.389   0.107  0.00  0.00    -0.007 C 
ATOM     21  C   UNL     1       0.035   2.243  -1.016  0.00  0.00    +0.013 C 
ATOM     22  C   UNL     1      -0.004   3.588  -0.848  0.00  0.00    +0.051 C 
ATOM     23  C   UNL     1      -0.104   4.134   0.447  0.00  0.00    +0.179 C 
ATOM     24  O   UNL     1      -0.138   5.349   0.597  0.00  0.00    -0.288 OA
ATOM     25  C   UNL     1      -0.164   3.285   1.568  0.00  0.00    +0.051 C 
ATOM     26  C   UNL     1      -0.131   1.939   1.404  0.00  0.00    +0.013 C 
ENDBRANCH  16  19
ENDBRANCH   1  16
BRANCH   6  27
ATOM     27  C   UNL     1      -0.217  -4.879  -2.063  0.00  0.00    +0.130 C 
BRANCH  27  28
ATOM     28  C   UNL     1      -1.708  -5.164  -1.878  0.00  0.00    +0.057 C 
BRANCH  28  29
ATOM     29  C   UNL     1      -1.886  -6.291  -0.894  0.00  0.00    -0.046 A 
ATOM     30  C   UNL     1      -1.923  -7.599  -1.341  0.00  0.00    +0.004 A 
ATOM     31  C   UNL     1      -2.086  -8.633  -0.438  0.00  0.00    +0.000 A 
ATOM     32  C   UNL     1      -2.212  -8.360   0.911  0.00  0.00    +0.000 A 
ATOM     33  C   UNL     1      -2.175  -7.052   1.358  0.00  0.00    +0.000 A 
ATOM     34  C   UNL     1      -2.007  -6.018   0.456  0.00  0.00    +0.004 A 
ENDBRANCH  28  29
ENDBRANCH  27  28
ENDBRANCH   6  27
TORSDOF 5
