REMARK  Name = ZINC00674230
REMARK  12 active torsions:
REMARK  status: ('A' for Active; 'I' for Inactive)
REMARK    1  A    between atoms: C_1  and  C_2
REMARK    2  A    between atoms: C_2  and  O_3
REMARK    3  A    between atoms: O_3  and  C_4
REMARK    4  A    between atoms: C_6  and  C_14
REMARK    5  A    between atoms: C_8  and  N_11
REMARK    6  A    between atoms: C_9  and  O_10
REMARK    7  A    between atoms: C_24  and  C_32
REMARK    8  A    between atoms: C_25  and  C_26
REMARK    9  A    between atoms: C_26  and  O_28
REMARK   10  A    between atoms: O_28  and  C_29
REMARK   11  A    between atoms: C_29  and  C_30
REMARK   12  A    between atoms: C_29  and  C_31
REMARK                            x       y       z     vdW  Elec       q    Type
REMARK                         _______ _______ _______ _____ _____    ______ ____
ROOT
ATOM      1  C   UNL     1       0.654  -4.954  -0.018  0.00  0.00    +0.092 C 
ATOM      2  C   UNL     1       0.628  -5.802  -1.265  0.00  0.00    +0.024 C 
ATOM      3  C   UNL     1       0.251  -7.098  -1.210  0.00  0.00    +0.015 C 
ATOM      4  C   UNL     1       0.225  -7.953  -2.452  0.00  0.00    +0.051 C 
ATOM      5  C   UNL     1      -0.086  -7.081  -3.670  0.00  0.00    +0.014 C 
ATOM      6  C   UNL     1       0.981  -5.986  -3.769  0.00  0.00    +0.080 C 
ATOM      7  C   UNL     1       1.004  -5.207  -2.482  0.00  0.00    +0.162 C 
ATOM      8  O   UNL     1       1.352  -4.043  -2.494  0.00  0.00    -0.292 OA
ATOM      9  N   UNL     1      -0.113  -7.665  -0.018  0.00  0.00    -0.321 N 
ATOM     10  C   UNL     1       0.263  -7.097   1.167  0.00  0.00    +0.016 C 
ATOM     11  C   UNL     1       0.640  -5.809   1.215  0.00  0.00    +0.065 C 
ATOM     12  C   UNL     1       0.254  -7.922   2.428  0.00  0.00    +0.061 C 
ATOM     13  H   UNL     1      -0.644  -8.477  -0.015  0.00  0.00    +0.152 HD
ENDROOT
BRANCH   1  16
ATOM     14  C   UNL     1      -1.498  -1.849   0.006  0.00  0.00    +0.164 A 
ATOM     15  C   UNL     1      -0.389  -2.680  -0.003  0.00  0.00    +0.054 A 
ATOM     16  C   UNL     1      -0.553  -4.052  -0.008  0.00  0.00    -0.029 A 
ATOM     17  C   UNL     1      -1.823  -4.600  -0.005  0.00  0.00    +0.041 A 
ATOM     18  C   UNL     1      -2.934  -3.777   0.004  0.00  0.00    +0.171 A 
ATOM     19  C   UNL     1      -2.776  -2.400   0.016  0.00  0.00    +0.189 A 
BRANCH  18  20
ATOM     20  N   UNL     1      -4.292  -4.366   0.008  0.00  0.00    +0.060 N 
ATOM     21  O   UNL     1      -4.429  -5.567   0.003  0.00  0.00    -0.126 OA
ATOM     22  O   UNL     1      -5.263  -3.647   0.016  0.00  0.00    -0.126 OA
ENDBRANCH  18  20
BRANCH  19  23
ATOM     23  O   UNL     1      -3.868  -1.589   0.030  0.00  0.00    -0.502 OA
ATOM     24  H   UNL     1      -4.192  -1.350  -0.849  0.00  0.00    +0.292 HD
ENDBRANCH  19  23
BRANCH  14  25
ATOM     25  O   UNL     1      -1.339  -0.499   0.012  0.00  0.00    -0.488 OA
BRANCH  25  27
ATOM     26  C   UNL     1      -0.019   1.526   0.010  0.00  0.00    +0.048 C 
ATOM     27  C   UNL     1       0.002  -0.004   0.002  0.00  0.00    +0.226 C 
ENDBRANCH  25  27
ENDBRANCH  14  25
ENDBRANCH   1  16
BRANCH  11  28
ATOM     28  C   UNL     1       1.033  -5.248   2.452  0.00  0.00    +0.338 C 
ATOM     29  O   UNL     1       1.027  -5.931   3.459  0.00  0.00    -0.245 OA
BRANCH  28  30
ATOM     30  O   UNL     1       1.416  -3.956   2.516  0.00  0.00    -0.459 OA
BRANCH  30  31
ATOM     31  C   UNL     1       1.800  -3.455   3.799  0.00  0.00    +0.171 C 
ATOM     32  C   UNL     1       2.845  -2.352   3.623  0.00  0.00    +0.052 C 
ATOM     33  C   UNL     1       0.572  -2.886   4.512  0.00  0.00    +0.052 C 
ENDBRANCH  30  31
ENDBRANCH  28  30
ENDBRANCH  11  28
TORSDOF 8
