REMARK  Name = ZINC27200307
REMARK  9 active torsions:
REMARK  status: ('A' for Active; 'I' for Inactive)
REMARK    1  A    between atoms: C_1  and  C_2
REMARK    2  A    between atoms: C_2  and  C_4
REMARK    3  A    between atoms: C_2  and  O_27
REMARK    4  A    between atoms: N_6  and  N_7
REMARK    5  A    between atoms: C_8  and  C_10
REMARK    6  A    between atoms: C_13  and  S_16
REMARK    7  A    between atoms: S_16  and  N_19
REMARK    8  A    between atoms: N_19  and  C_20
REMARK    9  A    between atoms: O_27  and  C_28
REMARK                            x       y       z     vdW  Elec       q    Type
REMARK                         _______ _______ _______ _____ _____    ______ ____
ROOT
ATOM      1  N   UNL     1       8.348  -0.224   0.737  0.00  0.00    -0.230 N 
ATOM      2  C   UNL     1       7.754  -1.387   1.071  0.00  0.00    +0.260 C 
ATOM      3  O   UNL     1       8.340  -2.189   1.773  0.00  0.00    -0.269 OA
ATOM      4  H   UNL     1       7.818   0.501   0.102  0.00  0.00    +0.173 HD
ENDROOT
BRANCH   2   5
ATOM      5  C   UNL     1       6.391  -1.687   0.585  0.00  0.00    +0.038 A 
ATOM      6  C   UNL     1       5.773  -2.890   0.930  0.00  0.00    +0.015 A 
ATOM      7  C   UNL     1       4.500  -3.164   0.473  0.00  0.00    +0.029 A 
ATOM      8  C   UNL     1       3.836  -2.250  -0.325  0.00  0.00    +0.109 A 
ATOM      9  C   UNL     1       4.445  -1.058  -0.675  0.00  0.00    +0.029 A 
ATOM     10  C   UNL     1       5.716  -0.769  -0.220  0.00  0.00    +0.015 A 
BRANCH   8  11
ATOM     11  S   UNL     1       2.211  -2.607  -0.904  0.00  0.00    +0.072 S 
ATOM     12  O   UNL     1       2.035  -4.012  -0.779  0.00  0.00    -0.150 OA
ATOM     13  O   UNL     1       2.063  -1.929  -2.144  0.00  0.00    -0.150 OA
BRANCH  11  14
ATOM     14  N   UNL     1       1.149  -1.901   0.152  0.00  0.00    -0.216 N 
ATOM     15  H   UNL     1       0.460  -1.119  -0.201  0.00  0.00    +0.174 HD
BRANCH  14  16
ATOM     16  C   UNL     1       1.127  -2.299   1.492  0.00  0.00    +0.048 A 
ATOM     17  C   UNL     1       1.098  -1.345   2.501  0.00  0.00    +0.027 A 
ATOM     18  C   UNL     1       1.077  -1.740   3.824  0.00  0.00    +0.040 A 
ATOM     19  C   UNL     1       1.084  -3.087   4.145  0.00  0.00    +0.124 A 
ATOM     20  C   UNL     1       1.113  -4.040   3.142  0.00  0.00    +0.040 A 
ATOM     21  C   UNL     1       1.134  -3.649   1.817  0.00  0.00    +0.027 A 
ATOM     22  F   UNL     1       1.063  -3.471   5.440  0.00  0.00    -0.205 F 
ENDBRANCH  14  16
ENDBRANCH  11  14
ENDBRANCH   8  11
ENDBRANCH   2   5
BRANCH   1  25
ATOM     23  C   UNL     1      10.234   1.223   0.863  0.00  0.00    +0.270 C 
ATOM     24  O   UNL     1       9.650   2.023   0.163  0.00  0.00    -0.270 OA
ATOM     25  N   UNL     1       9.640   0.060   1.197  0.00  0.00    -0.231 N 
ATOM     26  H   UNL     1      10.170  -0.665   1.832  0.00  0.00    +0.173 HD
BRANCH  23  28
ATOM     27  C   UNL     1      11.604   1.661   2.882  0.00  0.00    +0.062 C 
ATOM     28  C   UNL     1      11.624   1.529   1.358  0.00  0.00    +0.257 C 
BRANCH  28  29
ATOM     29  O   UNL     1      12.077   2.755   0.780  0.00  0.00    -0.480 OA
BRANCH  29  30
ATOM     30  C   UNL     1      13.421   2.944   0.709  0.00  0.00    +0.122 A 
ATOM     31  C   UNL     1      13.929   4.141   0.227  0.00  0.00    +0.048 A 
ATOM     32  C   UNL     1      15.296   4.335   0.162  0.00  0.00    +0.042 A 
ATOM     33  C   UNL     1      16.158   3.330   0.567  0.00  0.00    +0.124 A 
ATOM     34  C   UNL     1      15.652   2.133   1.043  0.00  0.00    +0.042 A 
ATOM     35  C   UNL     1      14.286   1.938   1.115  0.00  0.00    +0.048 A 
ATOM     36  F   UNL     1      17.494   3.519   0.498  0.00  0.00    -0.205 F 
ENDBRANCH  29  30
ENDBRANCH  28  29
ENDBRANCH  23  28
ENDBRANCH   1  25
TORSDOF 8
