REMARK  Name = ZINC21338054
REMARK  11 active torsions:
REMARK  status: ('A' for Active; 'I' for Inactive)
REMARK    1  A    between atoms: C_1  and  C_2
REMARK    2  A    between atoms: C_2  and  C_3
REMARK    3  A    between atoms: C_10  and  C_12
REMARK    4  A    between atoms: C_15  and  S_18
REMARK    5  A    between atoms: N_16  and  C_17
REMARK    6  A    between atoms: S_18  and  C_19
REMARK    7  A    between atoms: C_19  and  C_20
REMARK    8  A    between atoms: C_21  and  C_27
REMARK    9  A    between atoms: C_27  and  O_29
REMARK   10  A    between atoms: O_29  and  C_30
REMARK   11  A    between atoms: C_30  and  C_31
REMARK                            x       y       z     vdW  Elec       q    Type
REMARK                         _______ _______ _______ _____ _____    ______ ____
ROOT
ATOM      1  C   UNL     1      -0.761   2.628   3.541  0.00  0.00    +0.171 A 
ATOM      2  N   UNL     1      -1.895   2.854   4.167  0.00  0.00    -0.128 NA
ATOM      3  N   UNL     1      -2.881   2.719   3.353  0.00  0.00    -0.122 NA
ATOM      4  C   UNL     1      -2.439   2.404   2.156  0.00  0.00    +0.192 A 
ATOM      5  N   UNL     1      -1.076   2.329   2.234  0.00  0.00    -0.305 N 
ATOM      6  C   UNL     1      -0.144   2.004   1.151  0.00  0.00    +0.153 C 
ENDROOT
BRANCH   1  13
ATOM      7  C   UNL     1       4.376   3.946   6.861  0.00  0.00    -0.007 C 
ATOM      8  C   UNL     1       5.030   2.633   6.420  0.00  0.00    +0.009 C 
ATOM      9  C   UNL     1       4.652   2.361   4.956  0.00  0.00    +0.043 C 
ATOM     10  C   UNL     1       3.179   2.559   4.806  0.00  0.00    -0.006 A 
ATOM     11  C   UNL     1       2.331   3.175   5.679  0.00  0.00    -0.036 A 
ATOM     12  C   UNL     1       0.993   3.237   5.311  0.00  0.00    +0.023 A 
ATOM     13  C   UNL     1       0.588   2.684   4.126  0.00  0.00    +0.057 A 
ATOM     14  S   UNL     1       2.127   2.055   3.471  0.00  0.00    -0.090 S 
ATOM     15  C   UNL     1       2.863   3.761   6.984  0.00  0.00    +0.039 C 
BRANCH   7  17
ATOM     16  C   UNL     1       4.401   5.746   8.592  0.00  0.00    +0.004 C 
ATOM     17  C   UNL     1       4.948   4.368   8.215  0.00  0.00    +0.000 C 
ENDBRANCH   7  17
ENDBRANCH   1  13
BRANCH   4  18
ATOM     18  S   UNL     1      -3.421   2.126   0.720  0.00  0.00    -0.080 S 
BRANCH  18  19
ATOM     19  C   UNL     1      -5.071   2.406   1.409  0.00  0.00    +0.128 C 
BRANCH  19  20
ATOM     20  C   UNL     1      -6.105   2.217   0.328  0.00  0.00    +0.034 C 
ATOM     21  C   UNL     1      -6.777   1.048   0.249  0.00  0.00    +0.071 C 
ATOM     22  C   UNL     1      -7.808   0.901  -0.852  0.00  0.00    +0.150 C 
ATOM     23  N   UNL     1      -7.992   2.052  -1.752  0.00  0.00    -0.295 N 
ATOM     24  C   UNL     1      -7.244   3.154  -1.545  0.00  0.00    +0.304 C 
ATOM     25  O   UNL     1      -7.389   4.109  -2.283  0.00  0.00    -0.253 OA
ATOM     26  N   UNL     1      -6.350   3.232  -0.551  0.00  0.00    -0.272 N 
ATOM     27  H   UNL     1      -8.727   2.000  -2.568  0.00  0.00    +0.151 HD
ATOM     28  H   UNL     1      -5.799   4.180  -0.465  0.00  0.00    +0.156 HD
BRANCH  21  29
ATOM     29  C   UNL     1      -6.528  -0.002   1.163  0.00  0.00    +0.338 C 
ATOM     30  O   UNL     1      -5.603   0.082   1.949  0.00  0.00    -0.245 OA
BRANCH  29  31
ATOM     31  O   UNL     1      -7.318  -1.096   1.165  0.00  0.00    -0.462 OA
BRANCH  31  32
ATOM     32  C   UNL     1      -7.009  -2.118   2.115  0.00  0.00    +0.229 C 
ATOM     33  C   UNL     1      -8.004  -3.270   1.967  0.00  0.00    +0.048 C 
ENDBRANCH  31  32
ENDBRANCH  29  31
ENDBRANCH  21  29
ENDBRANCH  19  20
ENDBRANCH  18  19
ENDBRANCH   4  18
TORSDOF 8
