REMARK  Name = ZINC48572516
REMARK  7 active torsions:
REMARK  status: ('A' for Active; 'I' for Inactive)
REMARK    1  A    between atoms: C_1  and  C_2
REMARK    2  A    between atoms: C_3  and  C_16
REMARK    3  A    between atoms: N_5  and  C_7
REMARK    4  A    between atoms: C_10  and  N_13
REMARK    5  A    between atoms: N_17  and  N_18
REMARK    6  A    between atoms: C_19  and  C_21
REMARK    7  A    between atoms: C_21  and  C_22
REMARK                            x       y       z     vdW  Elec       q    Type
REMARK                         _______ _______ _______ _____ _____    ______ ____
ROOT
ATOM      1  C   UNL     1      -0.018   1.503   0.010  0.00  0.00    +0.068 C 
ATOM      2  C   UNL     1       0.002  -0.004   0.002  0.00  0.00    +0.069 A 
ATOM      3  C   UNL     1       0.008  -0.826  -1.146  0.00  0.00    +0.035 A 
ATOM      4  C   UNL     1       0.028  -2.135  -0.713  0.00  0.00    +0.124 A 
ATOM      5  N   UNL     1       0.034  -2.111   0.637  0.00  0.00    -0.239 N 
ATOM      6  N   UNL     1       0.023  -0.776   1.055  0.00  0.00    -0.171 NA
ENDROOT
BRANCH   5   7
ATOM      7  C   UNL     1       0.053  -3.233   1.477  0.00  0.00    +0.065 A 
ATOM      8  C   UNL     1       0.073  -4.510   0.932  0.00  0.00    +0.030 A 
ATOM      9  C   UNL     1       0.092  -5.614   1.762  0.00  0.00    +0.035 A 
ATOM     10  C   UNL     1       0.091  -5.448   3.135  0.00  0.00    +0.126 A 
ATOM     11  C   UNL     1       0.070  -4.178   3.681  0.00  0.00    +0.035 A 
ATOM     12  C   UNL     1       0.057  -3.070   2.856  0.00  0.00    +0.030 A 
BRANCH  10  13
ATOM     13  N   UNL     1       0.110  -6.633   4.021  0.00  0.00    +0.056 N 
ATOM     14  O   UNL     1       0.128  -7.745   3.545  0.00  0.00    -0.126 OA
ATOM     15  O   UNL     1       0.109  -6.490   5.222  0.00  0.00    -0.126 OA
ENDBRANCH  10  13
ENDBRANCH   5   7
BRANCH   3  16
ATOM     16  C   UNL     1      -0.004  -0.370  -2.549  0.00  0.00    +0.141 C 
ATOM     17  N   UNL     1      -0.023   0.899  -2.818  0.00  0.00    -0.188 NA
BRANCH  17  18
ATOM     18  N   UNL     1      -0.035   1.333  -4.150  0.00  0.00    -0.207 N 
ATOM     19  C   UNL     1      -0.054   2.651  -4.430  0.00  0.00    +0.237 C 
ATOM     20  O   UNL     1      -0.061   3.462  -3.528  0.00  0.00    -0.274 OA
ATOM     21  H   UNL     1      -0.029   0.684  -4.872  0.00  0.00    +0.177 HD
BRANCH  19  22
ATOM     22  C   UNL     1      -0.067   3.117  -5.863  0.00  0.00    +0.132 C 
BRANCH  22  23
ATOM     23  C   UNL     1      -0.087   4.624  -5.901  0.00  0.00    -0.038 A 
ATOM     24  C   UNL     1      -1.294   5.298  -5.907  0.00  0.00    +0.005 A 
ATOM     25  C   UNL     1      -1.314   6.680  -5.942  0.00  0.00    +0.020 A 
ATOM     26  C   UNL     1      -0.125   7.388  -5.971  0.00  0.00    +0.041 A 
ATOM     27  C   UNL     1       1.082   6.712  -5.964  0.00  0.00    +0.020 A 
ATOM     28  C   UNL     1       1.100   5.330  -5.924  0.00  0.00    +0.005 A 
ATOM     29 CL   UNL     1      -0.149   9.123  -6.015  0.00  0.00    -0.084 Cl
ENDBRANCH  22  23
ENDBRANCH  19  22
ENDBRANCH  17  18
ENDBRANCH   3  16
TORSDOF 6
