REMARK  Name = ZINC35893049
REMARK  8 active torsions:
REMARK  status: ('A' for Active; 'I' for Inactive)
REMARK    1  A    between atoms: C_1  and  C_2
REMARK    2  A    between atoms: C_6  and  C_8
REMARK    3  A    between atoms: C_11  and  C_22
REMARK    4  A    between atoms: N_18  and  C_19
REMARK    5  A    between atoms: C_19  and  C_20
REMARK    6  A    between atoms: C_19  and  C_21
REMARK    7  A    between atoms: N_24  and  C_25
REMARK    8  A    between atoms: C_25  and  C_26
REMARK                            x       y       z     vdW  Elec       q    Type
REMARK                         _______ _______ _______ _____ _____    ______ ____
ROOT
ATOM      1  C   UNL     1       0.055  -2.842   2.491  0.00  0.00    +0.037 C 
ATOM      2  C   UNL     1       1.315  -3.707   2.562  0.00  0.00    +0.024 C 
ATOM      3  C   UNL     1       1.349  -4.455   3.896  0.00  0.00    +0.093 C 
ATOM      4  C   UNL     1       0.126  -5.373   3.993  0.00  0.00    +0.122 C 
ATOM      5  N   UNL     1      -1.086  -4.571   3.781  0.00  0.00    -0.284 N 
ATOM      6  C   UNL     1      -1.183  -3.741   2.572  0.00  0.00    +0.117 C 
ATOM      7  C   UNL     1      -2.091  -4.595   4.679  0.00  0.00    +0.302 C 
ATOM      8  O   UNL     1      -2.040  -5.354   5.628  0.00  0.00    -0.253 OA
ATOM      9  N   UNL     1      -3.152  -3.779   4.525  0.00  0.00    -0.297 N 
ATOM     10  H   UNL     1      -3.228  -3.227   3.731  0.00  0.00    +0.150 HD
ENDROOT
BRANCH   1  16
ATOM     11  C   UNL     1      -0.018   1.507   0.016  0.00  0.00    +0.044 C 
ATOM     12  C   UNL     1       0.003   0.000   0.006  0.00  0.00    -0.050 A 
ATOM     13  C   UNL     1       0.008  -0.684  -1.195  0.00  0.00    +0.003 A 
ATOM     14  C   UNL     1       0.028  -2.066  -1.203  0.00  0.00    +0.001 A 
ATOM     15  C   UNL     1       0.043  -2.764  -0.010  0.00  0.00    +0.004 A 
ATOM     16  C   UNL     1       0.039  -2.081   1.191  0.00  0.00    -0.043 A 
ATOM     17  C   UNL     1       0.024  -0.698   1.199  0.00  0.00    +0.007 A 
ENDBRANCH   1  16
BRANCH   3  18
ATOM     18  C   UNL     1       1.324  -3.463   5.030  0.00  0.00    +0.218 C 
ATOM     19  O   UNL     1       1.284  -2.274   4.795  0.00  0.00    -0.275 OA
ATOM     20  N   UNL     1       1.347  -3.897   6.306  0.00  0.00    -0.308 N 
ATOM     21  H   UNL     1       1.379  -4.848   6.494  0.00  0.00    +0.149 HD
BRANCH  20  22
ATOM     22  C   UNL     1       1.323  -2.932   7.408  0.00  0.00    +0.178 C 
BRANCH  22  23
ATOM     23  C   UNL     1       1.356  -3.670   8.722  0.00  0.00    +0.122 A 
ATOM     24  C   UNL     1       2.463  -4.015   9.403  0.00  0.00    +0.046 A 
ATOM     25  C   UNL     1       2.034  -4.686  10.571  0.00  0.00    +0.041 A 
ATOM     26  C   UNL     1       0.689  -4.712  10.533  0.00  0.00    +0.195 A 
ATOM     27  O   UNL     1       0.284  -4.090   9.414  0.00  0.00    -0.466 OA
ENDBRANCH  22  23
ENDBRANCH  20  22
ENDBRANCH   3  18
BRANCH   9  28
ATOM     28  C   UNL     1      -4.190  -3.724   5.558  0.00  0.00    +0.068 C 
ATOM     29  C   UNL     1      -3.773  -2.735   6.648  0.00  0.00    +0.027 C 
ATOM     30  C   UNL     1      -5.508  -3.266   4.931  0.00  0.00    +0.027 C 
ENDBRANCH   9  28
TORSDOF 5
