REMARK  Name = ZINC44320183
REMARK  12 active torsions:
REMARK  status: ('A' for Active; 'I' for Inactive)
REMARK    1  A    between atoms: C_1  and  C_2
REMARK    2  A    between atoms: C_2  and  O_3
REMARK    3  A    between atoms: O_3  and  C_4
REMARK    4  A    between atoms: C_5  and  C_15
REMARK    5  A    between atoms: C_15  and  CA_16
REMARK    6  A    between atoms: CA_16  and  C_18
REMARK    7  A    between atoms: CA_16  and  N_21
REMARK    8  A    between atoms: C_22  and  O_24
REMARK    9  A    between atoms: O_24  and  C_25
REMARK   10  A    between atoms: C_25  and  C_26
REMARK   11  A    between atoms: C_25  and  C_27
REMARK   12  A    between atoms: C_25  and  C_28
REMARK                            x       y       z     vdW  Elec       q    Type
REMARK                         _______ _______ _______ _____ _____    ______ ____
ROOT
ATOM      1  C   UNL     1      -1.499  -1.851   0.006  0.00  0.00    +0.227 A 
ATOM      2  C   UNL     1      -2.732  -2.420   0.010  0.00  0.00    +0.057 A 
ATOM      3  S   UNL     1      -2.300  -4.152  -0.001  0.00  0.00    -0.053 S 
ATOM      4  C   UNL     1      -0.626  -3.976  -0.009  0.00  0.00    +0.165 A 
ATOM      5  N   UNL     1      -0.460  -2.670  -0.008  0.00  0.00    -0.190 NA
ATOM      6  N   UNL     1       0.343  -4.967  -0.019  0.00  0.00    -0.310 N 
ATOM      7  C   UNL     1      -0.037  -6.386  -0.031  0.00  0.00    +0.107 C 
ATOM      8  C   UNL     1       0.665  -7.075  -1.206  0.00  0.00    +0.019 C 
ATOM      9  C   UNL     1       2.172  -6.829  -1.109  0.00  0.00    +0.003 C 
ATOM     10  C   UNL     1       2.452  -5.326  -1.194  0.00  0.00    +0.019 C 
ATOM     11  C   UNL     1       1.770  -4.617  -0.025  0.00  0.00    +0.107 C 
ENDROOT
BRANCH   1  12
ATOM     12  O   UNL     1      -1.339  -0.499   0.012  0.00  0.00    -0.476 OA
BRANCH  12  14
ATOM     13  C   UNL     1      -0.019   1.526   0.010  0.00  0.00    +0.048 C 
ATOM     14  C   UNL     1       0.002  -0.004   0.002  0.00  0.00    +0.227 C 
ENDBRANCH  12  14
ENDBRANCH   1  12
BRANCH   2  15
ATOM     15  C   UNL     1      -4.091  -1.768   0.021  0.00  0.00    +0.082 C 
BRANCH  15  16
ATOM     16  CA  UNL     1      -4.558  -1.540  -1.418  0.00  0.00    +0.194 C 
BRANCH  16  17
ATOM     17  N   UNL     1      -4.753  -2.832  -2.079  0.00  0.00    -0.267 N 
ATOM     18  C   UNL     1      -4.667  -2.922  -3.421  0.00  0.00    +0.401 C 
ATOM     19  O   UNL     1      -4.427  -1.932  -4.082  0.00  0.00    -0.226 OA
ATOM     20  H   UNL     1      -4.945  -3.623  -1.551  0.00  0.00    +0.153 HD
BRANCH  18  21
ATOM     21  O   UNL     1      -4.846  -4.110  -4.029  0.00  0.00    -0.445 OA
BRANCH  21  22
ATOM     22  C   UNL     1      -4.741  -4.133  -5.454  0.00  0.00    +0.107 C 
ATOM     23  C   UNL     1      -3.344  -3.665  -5.869  0.00  0.00    +0.055 C 
ATOM     24  C   UNL     1      -4.973  -5.557  -5.960  0.00  0.00    +0.055 C 
ATOM     25  C   UNL     1      -5.792  -3.199  -6.058  0.00  0.00    +0.055 C 
ENDBRANCH  21  22
ENDBRANCH  18  21
ENDBRANCH  16  17
BRANCH  16  26
ATOM     26  C   UNL     1      -5.859  -0.779  -1.408  0.00  0.00    +0.376 C 
ATOM     27  O   UNL     1      -5.878   0.392  -1.070  0.00  0.00    -0.244 OA
ATOM     28  OXT UNL     1      -6.893  -1.335  -1.738  0.00  0.00    -0.244 OA
ENDBRANCH  16  26
ENDBRANCH  15  16
ENDBRANCH   2  15
TORSDOF 8
