REMARK  Name = ZINC04222276
REMARK  10 active torsions:
REMARK  status: ('A' for Active; 'I' for Inactive)
REMARK    1  A    between atoms: C_1  and  C_2
REMARK    2  A    between atoms: C_5  and  O_42
REMARK    3  A    between atoms: C_7  and  C_39
REMARK    4  A    between atoms: C_7  and  C_40
REMARK    5  A    between atoms: C_25  and  C_27
REMARK    6  A    between atoms: C_27  and  C_28
REMARK    7  A    between atoms: N_30  and  C_31
REMARK    8  A    between atoms: N_30  and  C_32
REMARK    9  A    between atoms: C_32  and  C_33
REMARK   10  A    between atoms: C_40  and  O_41
REMARK                            x       y       z     vdW  Elec       q    Type
REMARK                         _______ _______ _______ _____ _____    ______ ____
ROOT
ATOM      1  C   UNL     1       6.065   3.904  -5.545  0.00  0.00    +0.012 C 
ATOM      2  C   UNL     1       5.577   2.499  -5.187  0.00  0.00    -0.019 C 
ATOM      3  C   UNL     1       4.267   2.197  -5.922  0.00  0.00    +0.010 C 
ATOM      4  C   UNL     1       4.489   2.208  -7.433  0.00  0.00    +0.032 C 
ATOM      5  C   UNL     1       5.512   1.124  -7.787  0.00  0.00    +0.123 C 
ATOM      6  C   UNL     1       6.833   1.452  -7.094  0.00  0.00    +0.021 C 
ATOM      7  C   UNL     1       6.645   1.473  -5.574  0.00  0.00    +0.011 C 
ATOM      8  C   UNL     1       7.992   1.894  -4.954  0.00  0.00    +0.049 C 
ATOM      9  C   UNL     1       7.774   2.264  -3.529  0.00  0.00    +0.015 A 
ATOM     10  C   UNL     1       6.594   2.513  -2.907  0.00  0.00    +0.058 A 
ATOM     11  N   UNL     1       6.670   2.830  -1.616  0.00  0.00    -0.229 NA
ATOM     12  C   UNL     1       7.819   2.897  -0.977  0.00  0.00    +0.166 A 
ATOM     13  S   UNL     1       8.957   2.494  -2.229  0.00  0.00    -0.057 S 
ATOM     14  N   UNL     1       8.061   3.210   0.356  0.00  0.00    -0.248 N 
ATOM     15  C   UNL     1       9.324   3.226   0.826  0.00  0.00    +0.308 C 
ATOM     16  O   UNL     1      10.258   3.060   0.065  0.00  0.00    -0.252 OA
ATOM     17  N   UNL     1       9.552   3.425   2.139  0.00  0.00    -0.281 N 
ATOM     18  C   UNL     1      10.923   3.553   2.659  0.00  0.00    +0.137 C 
ATOM     19  C   UNL     1      10.990   4.822   3.524  0.00  0.00    +0.179 C 
ATOM     20  O   UNL     1       9.944   4.783   4.497  0.00  0.00    -0.377 OA
ATOM     21  C   UNL     1       8.627   4.781   3.940  0.00  0.00    +0.179 C 
ATOM     22  C   UNL     1       8.438   3.515   3.096  0.00  0.00    +0.137 C 
ATOM     23  C   UNL     1       5.288   2.422  -3.682  0.00  0.00    +0.054 C 
ATOM     24  C   UNL     1       7.873   0.391  -7.460  0.00  0.00    +0.016 C 
ATOM     25  H   UNL     1       7.321   3.416   0.948  0.00  0.00    +0.158 HD
ENDROOT
BRANCH   5  26
ATOM     26  O   UNL     1       5.708   1.095  -9.203  0.00  0.00    -0.391 OA
ATOM     27  H   UNL     1       4.906   0.905  -9.707  0.00  0.00    +0.210 HD
ENDBRANCH   5  26
BRANCH  23  28
ATOM     28  C   UNL     1       4.374   3.581  -3.279  0.00  0.00    +0.106 C 
BRANCH  28  29
ATOM     29  C   UNL     1       3.942   3.404  -1.847  0.00  0.00    +0.216 C 
ATOM     30  O   UNL     1       4.327   2.446  -1.210  0.00  0.00    -0.276 OA
ATOM     31  N   UNL     1       3.127   4.311  -1.272  0.00  0.00    -0.300 N 
ATOM     32  C   UNL     1       2.662   5.469  -2.040  0.00  0.00    +0.132 C 
BRANCH  31  33
ATOM     33  C   UNL     1       2.706   4.140   0.121  0.00  0.00    +0.142 C 
BRANCH  33  34
ATOM     34  C   UNL     1       1.431   3.339   0.165  0.00  0.00    -0.030 A 
ATOM     35  C   UNL     1       1.483   1.960   0.254  0.00  0.00    +0.005 A 
ATOM     36  C   UNL     1       0.312   1.226   0.294  0.00  0.00    +0.000 A 
ATOM     37  C   UNL     1      -0.910   1.869   0.241  0.00  0.00    +0.000 A 
ATOM     38  C   UNL     1      -0.962   3.248   0.158  0.00  0.00    +0.000 A 
ATOM     39  C   UNL     1       0.208   3.983   0.117  0.00  0.00    +0.005 A 
ENDBRANCH  33  34
ENDBRANCH  31  33
ENDBRANCH  28  29
ENDBRANCH  23  28
BRANCH   6  40
ATOM     40  C   UNL     1       7.326   2.822  -7.562  0.00  0.00    +0.165 C 
BRANCH  40  41
ATOM     41  O   UNL     1       7.664   2.758  -8.949  0.00  0.00    -0.394 OA
ATOM     42  H   UNL     1       7.985   3.594  -9.315  0.00  0.00    +0.209 HD
ENDBRANCH  40  41
ENDBRANCH   6  40
TORSDOF 7
