REMARK  Name = ZINC45630075
REMARK  10 active torsions:
REMARK  status: ('A' for Active; 'I' for Inactive)
REMARK    1  A    between atoms: C_1  and  C_2
REMARK    2  A    between atoms: C_2  and  C_3
REMARK    3  A    between atoms: C_2  and  C_4
REMARK    4  A    between atoms: C_4  and  C_6
REMARK    5  A    between atoms: C_4  and  N_12
REMARK    6  A    between atoms: C_13  and  C_15
REMARK    7  A    between atoms: C_15  and  N_16
REMARK    8  A    between atoms: C_19  and  C_23
REMARK    9  A    between atoms: C_19  and  C_24
REMARK   10  A    between atoms: C_27  and  N_30
REMARK                            x       y       z     vdW  Elec       q    Type
REMARK                         _______ _______ _______ _____ _____    ______ ____
ROOT
ATOM      1  N   UNL     1      -3.957   2.976   2.226  0.00  0.00    -0.215 N 
ATOM      2  C   UNL     1      -3.287   4.122   2.459  0.00  0.00    +0.251 C 
ATOM      3  O   UNL     1      -2.160   4.237   2.891  0.00  0.00    -0.272 OA
ATOM      4  C   UNL     1      -4.235   5.238   2.066  0.00  0.00    +0.135 C 
ATOM      5  N   UNL     1      -5.442   4.524   1.616  0.00  0.00    -0.281 N 
ATOM      6  C   UNL     1      -5.182   3.210   1.742  0.00  0.00    +0.310 C 
ATOM      7  O   UNL     1      -5.972   2.334   1.451  0.00  0.00    -0.252 OA
ATOM      8  C   UNL     1      -3.645   6.069   0.926  0.00  0.00    +0.047 C 
ATOM      9  H   UNL     1      -6.264   4.923   1.289  0.00  0.00    +0.152 HD
ENDROOT
BRANCH   4  10
ATOM     10  C   UNL     1      -4.548   6.111   3.254  0.00  0.00    -0.015 A 
ATOM     11  C   UNL     1      -3.610   6.276   4.256  0.00  0.00    +0.008 A 
ATOM     12  C   UNL     1      -3.897   7.076   5.346  0.00  0.00    +0.033 A 
ATOM     13  C   UNL     1      -5.121   7.713   5.433  0.00  0.00    +0.126 A 
ATOM     14  C   UNL     1      -6.058   7.548   4.431  0.00  0.00    +0.033 A 
ATOM     15  C   UNL     1      -5.770   6.751   3.339  0.00  0.00    +0.008 A 
BRANCH  13  16
ATOM     16  N   UNL     1      -5.428   8.569   6.601  0.00  0.00    +0.056 N 
ATOM     17  O   UNL     1      -4.608   8.712   7.478  0.00  0.00    -0.126 OA
ATOM     18  O   UNL     1      -6.499   9.125   6.677  0.00  0.00    -0.126 OA
ENDBRANCH  13  16
ENDBRANCH   4  10
BRANCH   1  19
ATOM     19  C   UNL     1      -3.409   1.639   2.468  0.00  0.00    +0.213 C 
BRANCH  19  21
ATOM     20  N   UNL     1      -2.119  -0.061   1.218  0.00  0.00    -0.307 N 
ATOM     21  C   UNL     1      -2.704   1.153   1.228  0.00  0.00    +0.231 C 
ATOM     22  O   UNL     1      -2.663   1.854   0.240  0.00  0.00    -0.274 OA
ATOM     23  H   UNL     1      -2.152  -0.622   2.009  0.00  0.00    +0.149 HD
BRANCH  20  24
ATOM     24  C   UNL     1      -1.433  -0.534   0.013  0.00  0.00    +0.106 C 
BRANCH  24  25
ATOM     25  C   UNL     1      -1.413  -2.041   0.005  0.00  0.00    -0.027 A 
ATOM     26  C   UNL     1      -1.190  -2.735   1.179  0.00  0.00    +0.005 A 
ATOM     27  C   UNL     1      -1.171  -4.117   1.171  0.00  0.00    +0.000 A 
ATOM     28  C   UNL     1      -1.376  -4.805  -0.011  0.00  0.00    +0.000 A 
ATOM     29  C   UNL     1      -1.600  -4.110  -1.185  0.00  0.00    +0.000 A 
ATOM     30  C   UNL     1      -1.623  -2.728  -1.176  0.00  0.00    +0.005 A 
ENDBRANCH  24  25
BRANCH  24  32
ATOM     31  C   UNL     1      -0.019   1.526   0.010  0.00  0.00    +0.009 C 
ATOM     32  C   UNL     1       0.002  -0.004   0.002  0.00  0.00    +0.008 C 
ATOM     33  C   UNL     1       0.742  -0.511   1.242  0.00  0.00    +0.009 C 
ENDBRANCH  24  32
ENDBRANCH  20  24
ENDBRANCH  19  21
ENDBRANCH   1  19
TORSDOF 7
