REMARK  Name = ZINC16926345
REMARK  9 active torsions:
REMARK  status: ('A' for Active; 'I' for Inactive)
REMARK    1  A    between atoms: C_1  and  C_2
REMARK    2  A    between atoms: C_2  and  C_3
REMARK    3  A    between atoms: C_3  and  C_4
REMARK    4  A    between atoms: C_4  and  C_5
REMARK    5  A    between atoms: C_8  and  N_11
REMARK    6  A    between atoms: C_14  and  C_19
REMARK    7  A    between atoms: C_19  and  C_20
REMARK    8  A    between atoms: C_25  and  C_28
REMARK    9  A    between atoms: C_28  and  C_29
REMARK                            x       y       z     vdW  Elec       q    Type
REMARK                         _______ _______ _______ _____ _____    ______ ____
ROOT
ATOM      1  N   UNL     1       3.283  -4.731  -1.084  0.00  0.00    -0.200 N 
ATOM      2  C   UNL     1       3.411  -4.135   0.091  0.00  0.00    +0.241 C 
ATOM      3  O   UNL     1       3.607  -4.755   1.115  0.00  0.00    -0.274 OA
ATOM      4  C   UNL     1       3.293  -2.618   0.069  0.00  0.00    +0.151 C 
ATOM      5  S   UNL     1       3.011  -2.350  -1.727  0.00  0.00    -0.054 S 
ATOM      6  C   UNL     1       3.066  -4.063  -2.232  0.00  0.00    +0.286 C 
ATOM      7  O   UNL     1       2.937  -4.519  -3.352  0.00  0.00    -0.262 OA
ENDROOT
BRANCH   1  11
ATOM      8  C   UNL     1       3.573  -8.886  -1.238  0.00  0.00    -0.047 A 
ATOM      9  C   UNL     1       2.342  -8.287  -1.042  0.00  0.00    +0.005 A 
ATOM     10  C   UNL     1       2.243  -6.910  -0.991  0.00  0.00    +0.024 A 
ATOM     11  C   UNL     1       3.381  -6.128  -1.135  0.00  0.00    +0.045 A 
ATOM     12  C   UNL     1       4.614  -6.732  -1.337  0.00  0.00    +0.024 A 
ATOM     13  C   UNL     1       4.708  -8.110  -1.382  0.00  0.00    +0.005 A 
BRANCH   8  14
ATOM     14  C   UNL     1       3.678 -10.389  -1.294  0.00  0.00    +0.035 C 
BRANCH  14  15
ATOM     15  C   UNL     1       3.505 -10.858  -2.740  0.00  0.00    +0.004 C 
BRANCH  15  17
ATOM     16  C   UNL     1       3.439 -12.852  -4.243  0.00  0.00    +0.004 C 
ATOM     17  C   UNL     1       3.612 -12.383  -2.797  0.00  0.00    -0.003 C 
ENDBRANCH  15  17
ENDBRANCH  14  15
ENDBRANCH   8  14
ENDBRANCH   1  11
BRANCH   4  18
ATOM     18  C   UNL     1       2.099  -2.140   0.897  0.00  0.00    +0.120 C 
BRANCH  18  19
ATOM     19  C   UNL     1       2.036  -0.634   0.865  0.00  0.00    +0.220 C 
ATOM     20  O   UNL     1       2.865  -0.006   0.242  0.00  0.00    -0.275 OA
ATOM     21  N   UNL     1       1.059   0.013   1.530  0.00  0.00    -0.265 N 
ATOM     22  C   UNL     1       1.001   1.402   1.501  0.00  0.00    +0.165 A 
ATOM     23  N   UNL     1       0.129   2.207   2.075  0.00  0.00    -0.229 NA
ATOM     24  C   UNL     1       0.222   3.516   1.950  0.00  0.00    +0.061 A 
ATOM     25  C   UNL     1       1.232   4.024   1.202  0.00  0.00    +0.072 A 
ATOM     26  S   UNL     1       2.054   2.521   0.691  0.00  0.00    -0.060 S 
ATOM     27  H   UNL     1       0.396  -0.489   2.029  0.00  0.00    +0.157 HD
BRANCH  24  28
ATOM     28  C   UNL     1      -0.777   4.428   2.616  0.00  0.00    +0.181 C 
BRANCH  28  29
ATOM     29  C   UNL     1      -2.171   4.035   2.201  0.00  0.00    +0.362 C 
ATOM     30  O   UNL     1      -2.337   3.110   1.442  0.00  0.00    -0.246 OA
ATOM     31  O   UNL     1      -3.228   4.712   2.674  0.00  0.00    -0.246 OA
ENDBRANCH  28  29
ENDBRANCH  24  28
ENDBRANCH  18  19
ENDBRANCH   4  18
TORSDOF 8
