REMARK  Name = ZINC63956846
REMARK  10 active torsions:
REMARK  status: ('A' for Active; 'I' for Inactive)
REMARK    1  A    between atoms: C_1  and  C_2
REMARK    2  A    between atoms: C_2  and  C_3
REMARK    3  A    between atoms: C_2  and  C_4
REMARK    4  A    between atoms: C_2  and  C_5
REMARK    5  A    between atoms: C_7  and  C_10
REMARK    6  A    between atoms: C_10  and  C_11
REMARK    7  A    between atoms: C_10  and  C_12
REMARK    8  A    between atoms: C_10  and  N_13
REMARK    9  A    between atoms: C_14  and  C_16
REMARK   10  A    between atoms: C_16  and  C_17
REMARK                            x       y       z     vdW  Elec       q    Type
REMARK                         _______ _______ _______ _____ _____    ______ ____
ROOT
ATOM      1  C   UNL     1       3.576  -0.751  -3.427  0.00  0.00    +0.092 C 
ATOM      2  C   UNL     1       3.909   0.708  -3.746  0.00  0.00    +0.040 C 
ATOM      3  C   UNL     1       4.660  -1.335  -2.519  0.00  0.00    +0.040 C 
ENDROOT
BRANCH   1   6
ATOM      4  C   UNL     1       0.707  -0.490  -1.238  0.00  0.00    +0.233 A 
ATOM      5  N   UNL     1       1.943  -0.232  -1.565  0.00  0.00    -0.193 NA
ATOM      6  C   UNL     1       2.243  -0.821  -2.728  0.00  0.00    +0.194 A 
ATOM      7  N   UNL     1       1.196  -1.464  -3.157  0.00  0.00    -0.059 NA
ATOM      8  O   UNL     1       0.175  -1.266  -2.191  0.00  0.00    -0.337 OA
BRANCH   4  10
ATOM      9  C   UNL     1      -0.019   1.526   0.010  0.00  0.00    +0.020 C 
ATOM     10  C   UNL     1       0.002  -0.004   0.002  0.00  0.00    +0.041 C 
ATOM     11  C   UNL     1       0.742  -0.511   1.242  0.00  0.00    +0.020 C 
ATOM     12  C   UNL     1      -1.433  -0.534   0.013  0.00  0.00    +0.020 C 
ENDBRANCH   4  10
ENDBRANCH   1   6
BRANCH   1  13
ATOM     13  N   UNL     1       3.515  -1.522  -4.672  0.00  0.00    -0.303 N 
ATOM     14  C   UNL     1       4.600  -1.602  -5.468  0.00  0.00    +0.214 C 
ATOM     15  O   UNL     1       5.626  -1.036  -5.155  0.00  0.00    -0.276 OA
ATOM     16  H   UNL     1       2.695  -1.974  -4.923  0.00  0.00    +0.150 HD
BRANCH  14  17
ATOM     17  C   UNL     1       4.537  -2.394  -6.749  0.00  0.00    +0.099 C 
BRANCH  17  18
ATOM     18  C   UNL     1       5.891  -2.323  -7.459  0.00  0.00    -0.002 C 
ATOM     19  C   UNL     1       6.952  -3.018  -6.604  0.00  0.00    +0.004 C 
ATOM     20  C   UNL     1       8.306  -2.947  -7.314  0.00  0.00    +0.000 C 
ATOM     21  C   UNL     1       8.206  -3.646  -8.672  0.00  0.00    +0.000 C 
ATOM     22  C   UNL     1       7.145  -2.951  -9.527  0.00  0.00    +0.000 C 
ATOM     23  C   UNL     1       5.791  -3.022  -8.816  0.00  0.00    +0.004 C 
ENDBRANCH  17  18
ENDBRANCH  14  17
ENDBRANCH   1  13
TORSDOF 5
