REMARK  Name = ZINC06410203
REMARK  11 active torsions:
REMARK  status: ('A' for Active; 'I' for Inactive)
REMARK    1  A    between atoms: C_1  and  C_2
REMARK    2  A    between atoms: C_7  and  C_15
REMARK    3  A    between atoms: C_13  and  C_14
REMARK    4  A    between atoms: C_15  and  N_67
REMARK    5  A    between atoms: C_16  and  C_17
REMARK    6  A    between atoms: C_16  and  N_67
REMARK    7  A    between atoms: C_17  and  C_18
REMARK    8  A    between atoms: C_24  and  C_25
REMARK    9  A    between atoms: C_24  and  N_67
REMARK   10  A    between atoms: N_29  and  C_30
REMARK   11  A    between atoms: C_30  and  C_31
REMARK                            x       y       z     vdW  Elec       q    Type
REMARK                         _______ _______ _______ _____ _____    ______ ____
ROOT
ATOM      1  N   UNL     1       7.012  -1.120  -1.018  0.00  0.00    +0.387 N 
ATOM      2  H   UNL     1       6.223  -1.499  -1.554  0.00  0.00    -0.081 HD
ENDROOT
BRANCH   1   3
ATOM      3  C   UNL     1       6.617  -1.005   0.402  0.00  0.00    -0.037 C 
BRANCH   3  10
ATOM      4  C   UNL     1      -1.147   0.788   0.767  0.00  0.00    +0.044 C 
ATOM      5  C   UNL     1       0.251   0.227   0.707  0.00  0.00    -0.046 A 
ATOM      6  C   UNL     1       0.438  -1.149   0.700  0.00  0.00    +0.004 A 
ATOM      7  C   UNL     1       1.696  -1.679   0.640  0.00  0.00    +0.010 A 
ATOM      8  C   UNL     1       2.805  -0.828   0.585  0.00  0.00    -0.001 A 
ATOM      9  C   UNL     1       4.167  -1.361   0.520  0.00  0.00    +0.017 A 
ATOM     10  C   UNL     1       5.203  -0.488   0.468  0.00  0.00    +0.001 A 
ATOM     11  C   UNL     1       4.962   0.902   0.478  0.00  0.00    +0.251 A 
ATOM     12  O   UNL     1       5.908   1.669   0.431  0.00  0.00    -0.268 OA
ATOM     13  N   UNL     1       3.715   1.402   0.538  0.00  0.00    -0.322 N 
ATOM     14  H   UNL     1       3.585   2.363   0.543  0.00  0.00    +0.169 HD
ATOM     15  C   UNL     1       2.619   0.567   0.591  0.00  0.00    +0.052 A 
ATOM     16  C   UNL     1       1.328   1.084   0.653  0.00  0.00    -0.024 A 
ATOM     17  C   UNL     1       1.110   2.575   0.660  0.00  0.00    +0.046 C 
ENDBRANCH   3  10
ENDBRANCH   1   3
BRANCH   1  18
ATOM     18  C   UNL     1       7.362   0.212  -1.555  0.00  0.00    -0.073 C 
BRANCH  18  19
ATOM     19  C   UNL     1       7.126   0.206  -3.067  0.00  0.00    +0.016 C 
BRANCH  19  20
ATOM     20  C   UNL     1       7.522   1.541  -3.642  0.00  0.00    -0.049 A 
ATOM     21  C   UNL     1       6.588   2.556  -3.740  0.00  0.00    +0.003 A 
ATOM     22  C   UNL     1       6.952   3.782  -4.263  0.00  0.00    +0.000 A 
ATOM     23  C   UNL     1       8.247   3.991  -4.698  0.00  0.00    +0.000 A 
ATOM     24  C   UNL     1       9.180   2.975  -4.606  0.00  0.00    +0.000 A 
ATOM     25  C   UNL     1       8.817   1.750  -4.078  0.00  0.00    +0.003 A 
ENDBRANCH  19  20
ENDBRANCH  18  19
ENDBRANCH   1  18
BRANCH   1  26
ATOM     26  C   UNL     1       8.165  -2.036  -1.149  0.00  0.00    +0.001 C 
BRANCH  26  27
ATOM     27  C   UNL     1       8.408  -2.306  -2.611  0.00  0.00    +0.135 A 
ATOM     28  N   UNL     1       9.284  -1.710  -3.382  0.00  0.00    -0.115 NA
ATOM     29  N   UNL     1       9.187  -2.219  -4.562  0.00  0.00    -0.023 NA
ATOM     30  N   UNL     1       8.271  -3.123  -4.564  0.00  0.00    -0.044 NA
ATOM     31  N   UNL     1       7.770  -3.211  -3.378  0.00  0.00    -0.229 N 
BRANCH  31  32
ATOM     32  C   UNL     1       6.706  -4.121  -2.947  0.00  0.00    +0.178 C 
BRANCH  32  33
ATOM     33  C   UNL     1       5.362  -3.621  -3.480  0.00  0.00    +0.140 C 
ATOM     34  C   UNL     1       4.226  -4.593  -3.070  0.00  0.00    +0.035 C 
ATOM     35  C   UNL     1       2.998  -3.641  -3.105  0.00  0.00    +0.031 C 
ATOM     36  C   UNL     1       3.608  -2.300  -2.644  0.00  0.00    +0.160 C 
ATOM     37  O   UNL     1       5.020  -2.365  -2.873  0.00  0.00    -0.375 OA
ENDBRANCH  32  33
ENDBRANCH  31  32
ENDBRANCH  26  27
ENDBRANCH   1  26
TORSDOF 9
