REMARK  Name = ZINC37004675
REMARK  4 active torsions:
REMARK  status: ('A' for Active; 'I' for Inactive)
REMARK    1  A    between atoms: C_1  and  C_2
REMARK    2  A    between atoms: C_7  and  N_10
REMARK    3  A    between atoms: N_10  and  C_11
REMARK    4  A    between atoms: C_13  and  N_18
REMARK                            x       y       z     vdW  Elec       q    Type
REMARK                         _______ _______ _______ _____ _____    ______ ____
ROOT
ATOM      1  C   UNL     1      -0.883  -3.821   1.751  0.00  0.00    +0.048 A 
ATOM      2  C   UNL     1       0.149  -4.604   2.250  0.00  0.00    +0.052 A 
ATOM      3  C   UNL     1      -0.124  -5.868   2.753  0.00  0.00    +0.071 A 
ATOM      4  C   UNL     1      -1.428  -6.347   2.755  0.00  0.00    +0.029 A 
ATOM      5  C   UNL     1      -2.454  -5.566   2.257  0.00  0.00    +0.024 A 
ATOM      6  C   UNL     1      -2.187  -4.304   1.761  0.00  0.00    +0.062 A 
ATOM      7 CL   UNL     1      -3.479  -3.323   1.144  0.00  0.00    -0.082 Cl
ENDROOT
BRANCH   3   8
ATOM      8  N   UNL     1       0.916  -6.662   3.258  0.00  0.00    -0.200 N 
ATOM      9  C   UNL     1       0.821  -7.907   3.774  0.00  0.00    +0.250 A 
ATOM     10  N   UNL     1       2.026  -8.275   4.123  0.00  0.00    -0.116 NA
ATOM     11  N   UNL     1       2.876  -7.348   3.862  0.00  0.00    -0.023 NA
ATOM     12  N   UNL     1       2.282  -6.336   3.329  0.00  0.00    -0.039 NA
ENDBRANCH   3   8
BRANCH   1  13
ATOM     13  N   UNL     1      -0.612  -2.548   1.244  0.00  0.00    -0.340 N 
ATOM     14  H   UNL     1      -1.333  -2.000   0.898  0.00  0.00    +0.146 HD
BRANCH  13  20
ATOM     15  C   UNL     1      -0.019   1.526   0.010  0.00  0.00    +0.007 C 
ATOM     16  C   UNL     1       0.002  -0.004   0.002  0.00  0.00    -0.012 C 
ATOM     17  C   UNL     1       0.718  -0.497  -1.257  0.00  0.00    +0.003 C 
ATOM     18  C   UNL     1       0.739  -2.027  -1.265  0.00  0.00    +0.002 C 
ATOM     19  C   UNL     1       1.479  -2.534  -0.026  0.00  0.00    +0.022 C 
ATOM     20  C   UNL     1       0.763  -2.041   1.233  0.00  0.00    +0.071 C 
ATOM     21  C   UNL     1       0.742  -0.511   1.242  0.00  0.00    +0.025 C 
ENDBRANCH  13  20
ENDBRANCH   1  13
TORSDOF 3
