REMARK  Name = ZINC58884750
REMARK  7 active torsions:
REMARK  status: ('A' for Active; 'I' for Inactive)
REMARK    1  A    between atoms: C_4  and  O_7
REMARK    2  A    between atoms: O_7  and  C_8
REMARK    3  A    between atoms: C_11  and  N_14
REMARK    4  A    between atoms: C_15  and  C_17
REMARK    5  A    between atoms: N_19  and  N_20
REMARK    6  A    between atoms: C_21  and  C_22
REMARK    7  A    between atoms: C_25  and  O_28
REMARK                            x       y       z     vdW  Elec       q    Type
REMARK                         _______ _______ _______ _____ _____    ______ ____
ROOT
ATOM      1  N   UNL     1       3.057  -6.133   0.022  0.00  0.00    -0.278 N 
ATOM      2  C   UNL     1       4.145  -6.913   0.178  0.00  0.00    +0.305 C 
ATOM      3  O   UNL     1       5.251  -6.412   0.214  0.00  0.00    -0.265 OA
ATOM      4  H   UNL     1       2.180  -6.537  -0.071  0.00  0.00    +0.155 HD
ENDROOT
BRANCH   1   8
ATOM      5  C   UNL     1       3.460  -1.986  -0.064  0.00  0.00    +0.129 A 
ATOM      6  C   UNL     1       4.447  -2.790  -0.616  0.00  0.00    +0.048 A 
ATOM      7  C   UNL     1       4.314  -4.164  -0.588  0.00  0.00    +0.027 A 
ATOM      8  C   UNL     1       3.192  -4.741  -0.007  0.00  0.00    +0.034 A 
ATOM      9  C   UNL     1       2.205  -3.935   0.546  0.00  0.00    +0.027 A 
ATOM     10  C   UNL     1       2.342  -2.562   0.522  0.00  0.00    +0.048 A 
BRANCH   5  11
ATOM     11  O   UNL     1       3.591  -0.633  -0.092  0.00  0.00    -0.456 OA
BRANCH  11  15
ATOM     12  C   UNL     1       2.901   1.306  -3.666  0.00  0.00    +0.000 A 
ATOM     13  C   UNL     1       3.155   2.039  -2.522  0.00  0.00    +0.004 A 
ATOM     14  C   UNL     1       3.387   1.392  -1.323  0.00  0.00    +0.046 A 
ATOM     15  C   UNL     1       3.363   0.006  -1.269  0.00  0.00    +0.128 A 
ATOM     16  C   UNL     1       3.107  -0.727  -2.419  0.00  0.00    +0.046 A 
ATOM     17  C   UNL     1       2.876  -0.075  -3.615  0.00  0.00    +0.004 A 
ENDBRANCH  11  15
ENDBRANCH   5  11
ENDBRANCH   1   8
BRANCH   2  18
ATOM     18  C   UNL     1       3.991  -8.390   0.306  0.00  0.00    +0.318 C 
ATOM     19  O   UNL     1       2.885  -8.891   0.270  0.00  0.00    -0.263 OA
ATOM     20  N   UNL     1       5.080  -9.170   0.462  0.00  0.00    -0.199 N 
ATOM     21  H   UNL     1       5.963  -8.770   0.491  0.00  0.00    +0.178 HD
BRANCH  20  22
ATOM     22  N   UNL     1       4.935 -10.558   0.583  0.00  0.00    -0.187 NA
ATOM     23  C   UNL     1       5.984 -11.310   0.733  0.00  0.00    +0.138 C 
BRANCH  23  24
ATOM     24  C   UNL     1       5.832 -12.770   0.860  0.00  0.00    -0.005 A 
ATOM     25  C   UNL     1       4.561 -13.349   0.812  0.00  0.00    +0.013 A 
ATOM     26  C   UNL     1       4.423 -14.715   0.931  0.00  0.00    +0.046 A 
ATOM     27  C   UNL     1       5.546 -15.516   1.097  0.00  0.00    +0.117 A 
ATOM     28  C   UNL     1       6.811 -14.945   1.145  0.00  0.00    +0.046 A 
ATOM     29  C   UNL     1       6.959 -13.581   1.022  0.00  0.00    +0.013 A 
BRANCH  27  30
ATOM     30  O   UNL     1       5.406 -16.862   1.214  0.00  0.00    -0.507 OA
ATOM     31  H   UNL     1       5.436 -17.335   0.371  0.00  0.00    +0.292 HD
ENDBRANCH  27  30
ENDBRANCH  23  24
ENDBRANCH  20  22
ENDBRANCH   2  18
TORSDOF 7
