REMARK  Name = ZINC05551384
REMARK  3 active torsions:
REMARK  status: ('A' for Active; 'I' for Inactive)
REMARK    1  A    between atoms: C_3  and  C_10
REMARK    2  A    between atoms: C_5  and  N_7
REMARK    3  A    between atoms: N_16  and  C_17
REMARK                            x       y       z     vdW  Elec       q    Type
REMARK                         _______ _______ _______ _____ _____    ______ ____
ROOT
ATOM      1  C   UNL     1       3.652   2.154  -0.022  0.00  0.00    +0.028 C 
ATOM      2  C   UNL     1       3.639   3.507  -0.117  0.00  0.00    +0.078 C 
ATOM      3  C   UNL     1       4.770   4.448  -0.250  0.00  0.00    +0.256 C 
ATOM      4  O   UNL     1       5.922   4.057  -0.289  0.00  0.00    -0.269 OA
ATOM      5  N   UNL     1       4.473   5.734  -0.324  0.00  0.00    -0.260 N 
ATOM      6  C   UNL     1       3.162   6.157  -0.278  0.00  0.00    +0.166 C 
ATOM      7  N   UNL     1       2.697   7.384  -0.339  0.00  0.00    -0.226 NA
ATOM      8  S   UNL     1       2.249   4.630  -0.124  0.00  0.00    -0.049 S 
ATOM      9  H   UNL     1       5.185   6.387  -0.411  0.00  0.00    +0.157 HD
ENDROOT
BRANCH   7  10
ATOM     10  C   UNL     1       1.348   7.608  -0.276  0.00  0.00    +0.067 A 
ATOM     11  C   UNL     1       0.470   6.818  -1.022  0.00  0.00    +0.029 A 
ATOM     12  C   UNL     1      -0.888   7.050  -0.955  0.00  0.00    +0.017 A 
ATOM     13  C   UNL     1      -1.381   8.063  -0.150  0.00  0.00    +0.018 A 
ATOM     14  C   UNL     1      -0.516   8.850   0.592  0.00  0.00    +0.017 A 
ATOM     15  C   UNL     1       0.843   8.625   0.538  0.00  0.00    +0.029 A 
ATOM     16 BR   UNL     1      -3.244   8.374  -0.065  0.00  0.00    -0.050 Br
ENDBRANCH   7  10
BRANCH   1  19
ATOM     17  C   UNL     1       1.156  -0.626   0.290  0.00  0.00    +0.003 A 
ATOM     18  C   UNL     1       2.327   0.050   0.021  0.00  0.00    +0.008 A 
ATOM     19  C   UNL     1       2.407   1.426   0.263  0.00  0.00    -0.022 A 
ATOM     20  C   UNL     1       1.297   2.104   0.777  0.00  0.00    +0.040 A 
ATOM     21  C   UNL     1       0.133   1.414   1.041  0.00  0.00    +0.127 A 
ATOM     22  C   UNL     1       0.062   0.052   0.799  0.00  0.00    +0.033 A 
BRANCH  21  23
ATOM     23  N   UNL     1      -1.043   2.129   1.585  0.00  0.00    +0.056 N 
ATOM     24  O   UNL     1      -0.982   3.318   1.797  0.00  0.00    -0.126 OA
ATOM     25  O   UNL     1      -2.064   1.525   1.817  0.00  0.00    -0.126 OA
ENDBRANCH  21  23
ENDBRANCH   1  19
TORSDOF 3
