REMARK  Name = ZINC22856410
REMARK  11 active torsions:
REMARK  status: ('A' for Active; 'I' for Inactive)
REMARK    1  A    between atoms: C_1  and  N_2
REMARK    2  A    between atoms: N_2  and  C_3
REMARK    3  A    between atoms: N_2  and  C_4
REMARK    4  A    between atoms: C_7  and  C_10
REMARK    5  A    between atoms: C_10  and  C_12
REMARK    6  A    between atoms: C_10  and  N_26
REMARK    7  A    between atoms: C_12  and  N_13
REMARK    8  A    between atoms: C_14  and  C_16
REMARK    9  A    between atoms: N_18  and  C_19
REMARK   10  A    between atoms: C_19  and  C_20
REMARK   11  A    between atoms: N_29  and  C_32
REMARK                            x       y       z     vdW  Elec       q    Type
REMARK                         _______ _______ _______ _____ _____    ______ ____
ROOT
ATOM      1  C   UNL     1      -0.818   1.513   1.335  0.00  0.00    +0.104 C 
ENDROOT
BRANCH   1   5
ATOM      2  C   UNL     1       0.808  -2.075   2.994  0.00  0.00    +0.029 A 
ATOM      3  C   UNL     1       1.159  -0.841   3.526  0.00  0.00    +0.023 A 
ATOM      4  C   UNL     1       0.632   0.317   2.987  0.00  0.00    +0.007 A 
ATOM      5  C   UNL     1      -0.245   0.248   1.920  0.00  0.00    -0.029 A 
ATOM      6  C   UNL     1      -0.601  -0.979   1.392  0.00  0.00    +0.007 A 
ATOM      7  C   UNL     1      -0.073  -2.140   1.921  0.00  0.00    +0.023 A 
BRANCH   2   9
ATOM      8  C   UNL     1       2.173  -3.186   4.739  0.00  0.00    +0.129 C 
ATOM      9  N   UNL     1       1.339  -3.247   3.535  0.00  0.00    -0.336 N 
ATOM     10  C   UNL     1       1.064  -4.538   2.900  0.00  0.00    +0.129 C 
ENDBRANCH   2   9
ENDBRANCH   1   5
BRANCH   1  11
ATOM     11  N   UNL     1      -2.226   1.643   1.734  0.00  0.00    -0.291 NA
ATOM     12  C   UNL     1      -2.340   1.971   3.162  0.00  0.00    +0.104 C 
ATOM     13  C   UNL     1      -3.814   2.175   3.520  0.00  0.00    +0.120 C 
ATOM     14  N   UNL     1      -4.567   0.954   3.201  0.00  0.00    -0.327 N 
ATOM     15  C   UNL     1      -4.453   0.626   1.773  0.00  0.00    +0.120 C 
ATOM     16  C   UNL     1      -2.979   0.422   1.416  0.00  0.00    +0.104 C 
BRANCH  14  17
ATOM     17  C   UNL     1      -5.907   1.078   3.581  0.00  0.00    +0.030 A 
ATOM     18  C   UNL     1      -6.915   0.898   2.643  0.00  0.00    +0.026 A 
ATOM     19  C   UNL     1      -8.238   1.016   3.022  0.00  0.00    +0.040 A 
ATOM     20  C   UNL     1      -8.559   1.323   4.333  0.00  0.00    +0.124 A 
ATOM     21  C   UNL     1      -7.556   1.508   5.269  0.00  0.00    +0.040 A 
ATOM     22  C   UNL     1      -6.231   1.386   4.896  0.00  0.00    +0.026 A 
ATOM     23  F   UNL     1      -9.854   1.443   4.700  0.00  0.00    -0.205 F 
ENDBRANCH  14  17
ENDBRANCH   1  11
BRANCH   1  24
ATOM     24  C   UNL     1      -0.724   1.458  -0.191  0.00  0.00    +0.128 C 
BRANCH  24  25
ATOM     25  N   UNL     1      -1.370   2.642  -0.763  0.00  0.00    -0.306 N 
ATOM     26  C   UNL     1      -1.326   2.857  -2.093  0.00  0.00    +0.299 C 
ATOM     27  O   UNL     1      -0.750   2.071  -2.816  0.00  0.00    -0.265 OA
ATOM     28  H   UNL     1      -1.892   3.354  -0.108  0.00  0.00    +0.149 HD
BRANCH  26  29
ATOM     29  C   UNL     1      -1.985   4.065  -2.677  0.00  0.00    +0.299 C 
ATOM     30  O   UNL     1      -2.561   4.851  -1.953  0.00  0.00    -0.265 OA
ATOM     31  N   UNL     1      -1.940   4.280  -4.006  0.00  0.00    -0.305 N 
ATOM     32  H   UNL     1      -1.419   3.567  -4.662  0.00  0.00    +0.149 HD
BRANCH  31  33
ATOM     33  C   UNL     1      -2.587   5.464  -4.579  0.00  0.00    +0.136 C 
BRANCH  33  34
ATOM     34  C   UNL     1      -2.389   5.470  -6.096  0.00  0.00    +0.135 C 
ATOM     35  C   UNL     1      -2.954   6.771  -6.707  0.00  0.00    +0.035 C 
ATOM     36  C   UNL     1      -3.570   6.319  -8.049  0.00  0.00    +0.031 C 
ATOM     37  C   UNL     1      -3.306   4.798  -8.091  0.00  0.00    +0.160 C 
ATOM     38  O   UNL     1      -3.159   4.411  -6.707  0.00  0.00    -0.375 OA
ENDBRANCH  33  34
ENDBRANCH  31  33
ENDBRANCH  26  29
ENDBRANCH  24  25
ENDBRANCH   1  24
TORSDOF 9
