REMARK  Name = ZINC01068606
REMARK  9 active torsions:
REMARK  status: ('A' for Active; 'I' for Inactive)
REMARK    1  A    between atoms: C_1  and  C_2
REMARK    2  A    between atoms: C_7  and  C_8
REMARK    3  A    between atoms: C_10  and  C_23
REMARK    4  A    between atoms: C_11  and  N_22
REMARK    5  A    between atoms: C_18  and  C_20
REMARK    6  A    between atoms: C_18  and  C_21
REMARK    7  A    between atoms: C_28  and  C_32
REMARK    8  A    between atoms: C_28  and  C_33
REMARK    9  A    between atoms: C_30  and  C_31
REMARK                            x       y       z     vdW  Elec       q    Type
REMARK                         _______ _______ _______ _____ _____    ______ ____
ROOT
ATOM      1  C   UNL     1      -0.018   1.503   0.010  0.00  0.00    +0.044 C 
ATOM      2  C   UNL     1       0.002  -0.004   0.002  0.00  0.00    -0.047 A 
ATOM      3  C   UNL     1       0.005  -0.662  -1.217  0.00  0.00    +0.013 A 
ATOM      4  C   UNL     1       0.024  -2.046  -1.265  0.00  0.00    -0.000 A 
ATOM      5  C   UNL     1       0.039  -2.723  -0.031  0.00  0.00    +0.050 A 
ATOM      6  C   UNL     1       0.035  -2.058   1.184  0.00  0.00    +0.002 A 
ATOM      7  C   UNL     1       0.023  -0.680   1.222  0.00  0.00    -0.041 A 
ATOM      8  C   UNL     1       0.026   0.068   2.531  0.00  0.00    +0.044 C 
ATOM      9  C   UNL     1       0.052  -3.139   2.216  0.00  0.00    +0.145 C 
ATOM     10  C   UNL     1      -1.177  -3.087   3.076  0.00  0.00    +0.110 C 
ATOM     11  C   UNL     1      -1.099  -2.630   4.351  0.00  0.00    +0.199 C 
ATOM     12  O   UNL     1       0.070  -2.216   4.868  0.00  0.00    -0.445 OA
ATOM     13  C   UNL     1       1.237  -2.615   4.327  0.00  0.00    +0.116 C 
ATOM     14  C   UNL     1       1.299  -3.060   3.058  0.00  0.00    +0.058 C 
ATOM     15  C   UNL     1       2.520  -3.462   2.483  0.00  0.00    +0.165 C 
ATOM     16  O   UNL     1       2.536  -3.866   1.337  0.00  0.00    -0.292 OA
ATOM     17  C   UNL     1       3.806  -3.398   3.261  0.00  0.00    +0.086 C 
ATOM     18  C   UNL     1       3.700  -2.282   4.305  0.00  0.00    -0.021 C 
ATOM     19  C   UNL     1       2.478  -2.554   5.185  0.00  0.00    +0.081 C 
ATOM     20  C   UNL     1       4.963  -2.265   5.170  0.00  0.00    +0.012 C 
ATOM     21  C   UNL     1       3.537  -0.933   3.601  0.00  0.00    +0.012 C 
ATOM     22  C   UNL     1       0.065  -4.433   1.416  0.00  0.00    +0.241 C 
ATOM     23  O   UNL     1       0.078  -5.557   1.871  0.00  0.00    -0.273 OA
ATOM     24  N   UNL     1       0.057  -4.104   0.110  0.00  0.00    -0.260 N 
ATOM     25  C   UNL     1       0.067  -4.991  -1.059  0.00  0.00    +0.055 C 
ATOM     26  C   UNL     1       0.051  -4.214  -2.341  0.00  0.00    +0.002 C 
ATOM     27  C   UNL     1       0.031  -2.897  -2.463  0.00  0.00    -0.043 C 
ATOM     28  C   UNL     1       0.016  -2.269  -3.832  0.00  0.00    +0.044 C 
ATOM     29  C   UNL     1       1.326  -5.860  -1.017  0.00  0.00    +0.036 C 
ATOM     30  C   UNL     1      -1.165  -5.897  -1.009  0.00  0.00    +0.036 C 
ENDROOT
BRANCH  11  31
ATOM     31  N   UNL     1      -2.232  -2.591   5.125  0.00  0.00    -0.328 N 
ATOM     32  H   UNL     1      -3.079  -2.888   4.759  0.00  0.00    +0.145 HD
ATOM     33  H   UNL     1      -2.184  -2.266   6.038  0.00  0.00    +0.145 HD
ENDBRANCH  11  31
BRANCH  10  34
ATOM     34  C   UNL     1      -2.436  -3.519   2.549  0.00  0.00    +0.102 C 
ATOM     35  N   UNL     1      -3.434  -3.863   2.131  0.00  0.00    -0.191 NA
ENDBRANCH  10  34
TORSDOF 2
