REMARK  Name = ZINC39265542
REMARK  7 active torsions:
REMARK  status: ('A' for Active; 'I' for Inactive)
REMARK    1  A    between atoms: C_1  and  C_2
REMARK    2  A    between atoms: C_2  and  C_4
REMARK    3  A    between atoms: C_2  and  S_21
REMARK    4  A    between atoms: N_6  and  C_7
REMARK    5  A    between atoms: C_7  and  C_15
REMARK    6  A    between atoms: C_12  and  O_14
REMARK    7  A    between atoms: S_21  and  C_22
REMARK                            x       y       z     vdW  Elec       q    Type
REMARK                         _______ _______ _______ _____ _____    ______ ____
ROOT
ATOM      1  C   UNL     1       0.730  -0.565   1.207  0.00  0.00    +0.227 C 
ATOM      2  O   UNL     1       0.111  -1.003   2.153  0.00  0.00    -0.275 OA
ATOM      3  N   UNL     1       2.076  -0.521   1.245  0.00  0.00    -0.302 N 
ATOM      4  H   UNL     1       2.575  -0.237   0.462  0.00  0.00    +0.150 HD
ENDROOT
BRANCH   3   5
ATOM      5  C   UNL     1       2.788  -0.900   2.468  0.00  0.00    +0.085 C 
ATOM      6  C   UNL     1       2.496  -2.366   2.794  0.00  0.00    +0.033 C 
ATOM      7  C   UNL     1       2.965  -3.249   1.637  0.00  0.00    +0.003 C 
ATOM      8  C   UNL     1       4.470  -3.062   1.431  0.00  0.00    +0.003 C 
ATOM      9  C   UNL     1       4.762  -1.597   1.104  0.00  0.00    +0.034 C 
ATOM     10  C   UNL     1       4.292  -0.713   2.262  0.00  0.00    +0.142 C 
BRANCH   5  11
ATOM     11  C   UNL     1       2.325  -0.029   3.608  0.00  0.00    -0.022 A 
ATOM     12  C   UNL     1       2.429  -0.483   4.910  0.00  0.00    +0.006 A 
ATOM     13  C   UNL     1       2.004   0.315   5.956  0.00  0.00    +0.000 A 
ATOM     14  C   UNL     1       1.477   1.567   5.700  0.00  0.00    +0.000 A 
ATOM     15  C   UNL     1       1.374   2.021   4.398  0.00  0.00    +0.000 A 
ATOM     16  C   UNL     1       1.803   1.224   3.353  0.00  0.00    +0.006 A 
ENDBRANCH   5  11
BRANCH  10  17
ATOM     17  O   UNL     1       4.565   0.656   1.957  0.00  0.00    -0.389 OA
ATOM     18  H   UNL     1       5.502   0.848   1.813  0.00  0.00    +0.210 HD
ENDBRANCH  10  17
ENDBRANCH   3   5
BRANCH   1  20
ATOM     19  C   UNL     1      -0.096   1.455   0.030  0.00  0.00    +0.029 C 
ATOM     20  C   UNL     1      -0.006  -0.071  -0.012  0.00  0.00    +0.131 C 
BRANCH  20  21
ATOM     21  S   UNL     1      -1.678  -0.775  -0.035  0.00  0.00    -0.120 S 
BRANCH  21  22
ATOM     22  C   UNL     1      -2.368  -0.216  -1.617  0.00  0.00    +0.184 C 
ATOM     23  C   UNL     1      -3.111  -1.343  -2.291  0.00  0.00    +0.117 C 
ATOM     24  N   UNL     1      -2.721  -2.356  -2.985  0.00  0.00    -0.234 NA
ATOM     25  C   UNL     1      -3.798  -3.075  -3.366  0.00  0.00    +0.224 C 
ATOM     26  N   UNL     1      -4.915  -2.544  -2.927  0.00  0.00    -0.215 NA
ATOM     27  C   UNL     1      -4.602  -1.434  -2.226  0.00  0.00    +0.182 C 
ATOM     28  N   UNL     1      -5.320  -0.546  -1.583  0.00  0.00    -0.194 NA
ATOM     29  C   UNL     1      -4.641   0.462  -0.947  0.00  0.00    +0.211 C 
ATOM     30  N   UNL     1      -3.379   0.843  -1.390  0.00  0.00    -0.297 N 
ATOM     31  N   UNL     1      -5.181   1.066   0.076  0.00  0.00    -0.269 NA
ATOM     32  H   UNL     1      -4.702   1.778   0.527  0.00  0.00    +0.190 HD
ATOM     33  H   UNL     1      -3.165   1.776  -1.547  0.00  0.00    +0.150 HD
ENDBRANCH  21  22
ENDBRANCH  20  21
ENDBRANCH   1  20
TORSDOF 6
