REMARK  Name = ZINC10735703
REMARK  7 active torsions:
REMARK  status: ('A' for Active; 'I' for Inactive)
REMARK    1  A    between atoms: C_3  and  C_10
REMARK    2  A    between atoms: C_5  and  N_7
REMARK    3  A    between atoms: N_12  and  C_13
REMARK    4  A    between atoms: C_13  and  C_14
REMARK    5  A    between atoms: N_16  and  N_17
REMARK    6  A    between atoms: C_18  and  C_20
REMARK    7  A    between atoms: C_23  and  C_25
REMARK                            x       y       z     vdW  Elec       q    Type
REMARK                         _______ _______ _______ _____ _____    ______ ____
ROOT
ATOM      1  C   UNL     1       4.611   5.733  -0.013  0.00  0.00    +0.246 C 
ATOM      2  O   UNL     1       3.463   6.125   0.000  0.00  0.00    -0.273 OA
ATOM      3  N   UNL     1       5.626   6.620  -0.018  0.00  0.00    -0.233 N 
ATOM      4  H   UNL     1       6.544   6.307  -0.029  0.00  0.00    +0.173 HD
ENDROOT
BRANCH   3   5
ATOM      5  N   UNL     1       5.354   7.994  -0.009  0.00  0.00    -0.230 N 
ATOM      6  C   UNL     1       6.369   8.882  -0.014  0.00  0.00    +0.267 C 
ATOM      7  O   UNL     1       7.521   8.489  -0.028  0.00  0.00    -0.268 OA
ATOM      8  H   UNL     1       4.436   8.308   0.002  0.00  0.00    +0.173 HD
BRANCH   6   9
ATOM      9  C   UNL     1       6.086  10.318  -0.004  0.00  0.00    +0.076 A 
ATOM     10  C   UNL     1       6.976  11.383  -0.013  0.00  0.00    +0.021 A 
ATOM     11  C   UNL     1       6.477  12.655  -0.001  0.00  0.00    +0.017 A 
ATOM     12  C   UNL     1       5.103  12.832   0.020  0.00  0.00    +0.020 A 
ATOM     13  S   UNL     1       4.506  11.150   0.014  0.00  0.00    -0.084 S 
BRANCH  12  14
ATOM     14  C   UNL     1       4.330  14.092   0.037  0.00  0.00    -0.011 A 
ATOM     15  C   UNL     1       4.993  15.321   0.026  0.00  0.00    +0.012 A 
ATOM     16  C   UNL     1       4.266  16.493   0.041  0.00  0.00    +0.039 A 
ATOM     17  C   UNL     1       2.881  16.452   0.067  0.00  0.00    +0.123 A 
ATOM     18  C   UNL     1       2.219  15.235   0.079  0.00  0.00    +0.039 A 
ATOM     19  C   UNL     1       2.935  14.057   0.057  0.00  0.00    +0.012 A 
ATOM     20  F   UNL     1       2.175  17.604   0.082  0.00  0.00    -0.205 F 
ENDBRANCH  12  14
ENDBRANCH   6   9
ENDBRANCH   3   5
BRANCH   1  21
ATOM     21  C   UNL     1       4.903   4.254  -0.023  0.00  0.00    +0.202 C 
BRANCH  21  24
ATOM     22  C   UNL     1       3.657   2.160  -0.022  0.00  0.00    +0.245 C 
ATOM     23  O   UNL     1       4.716   1.564  -0.035  0.00  0.00    -0.270 OA
ATOM     24  N   UNL     1       3.642   3.508  -0.015  0.00  0.00    -0.303 N 
ATOM     25  H   UNL     1       2.797   3.984  -0.004  0.00  0.00    +0.150 HD
BRANCH  22  28
ATOM     26  C   UNL     1      -0.017   1.379   0.010  0.00  0.00    +0.003 A 
ATOM     27  C   UNL     1       1.167   2.088   0.002  0.00  0.00    +0.013 A 
ATOM     28  C   UNL     1       2.385   1.407  -0.013  0.00  0.00    +0.039 A 
ATOM     29  C   UNL     1       2.397   0.011  -0.021  0.00  0.00    +0.045 A 
ATOM     30  C   UNL     1       1.206  -0.686  -0.013  0.00  0.00    +0.127 A 
ATOM     31  C   UNL     1       0.002  -0.004   0.002  0.00  0.00    +0.033 A 
BRANCH  30  32
ATOM     32  N   UNL     1       1.217  -2.166  -0.021  0.00  0.00    +0.056 N 
ATOM     33  O   UNL     1       2.268  -2.763  -0.034  0.00  0.00    -0.126 OA
ATOM     34  O   UNL     1       0.174  -2.778  -0.014  0.00  0.00    -0.126 OA
ENDBRANCH  30  32
ENDBRANCH  22  28
ENDBRANCH  21  24
ENDBRANCH   1  21
TORSDOF 7
