REMARK  Name = ZINC24704938
REMARK  14 active torsions:
REMARK  status: ('A' for Active; 'I' for Inactive)
REMARK    1  A    between atoms: C_1  and  C_2
REMARK    2  A    between atoms: C_4  and  C_36
REMARK    3  A    between atoms: C_5  and  C_35
REMARK    4  A    between atoms: C_6  and  S_9
REMARK    5  A    between atoms: C_7  and  C_8
REMARK    6  A    between atoms: S_9  and  N_12
REMARK    7  A    between atoms: N_12  and  C_13
REMARK    8  A    between atoms: C_13  and  C_15
REMARK    9  A    between atoms: C_13  and  C_16
REMARK   10  A    between atoms: N_18  and  N_19
REMARK   11  A    between atoms: C_20  and  C_22
REMARK   12  A    between atoms: C_25  and  C_27
REMARK   13  A    between atoms: C_27  and  O_28
REMARK   14  A    between atoms: O_28  and  C_29
REMARK                            x       y       z     vdW  Elec       q    Type
REMARK                         _______ _______ _______ _____ _____    ______ ____
ROOT
ATOM      1  C   UNL     1      -0.245   9.149   0.259  0.00  0.00    +0.247 C 
ATOM      2  O   UNL     1      -1.349   9.633   0.126  0.00  0.00    -0.273 OA
ATOM      3  N   UNL     1      -0.106   7.816   0.404  0.00  0.00    -0.233 N 
ATOM      4  H   UNL     1       0.895   7.377   0.525  0.00  0.00    +0.173 HD
ENDROOT
BRANCH   3   5
ATOM      5  N   UNL     1      -1.238   6.990   0.401  0.00  0.00    -0.228 N 
ATOM      6  C   UNL     1      -1.100   5.657   0.547  0.00  0.00    +0.295 C 
ATOM      7  O   UNL     1       0.008   5.171   0.680  0.00  0.00    -0.265 OA
ATOM      8  H   UNL     1      -2.239   7.429   0.280  0.00  0.00    +0.173 HD
BRANCH   6   9
ATOM      9  C   UNL     1      -2.284   4.793   0.543  0.00  0.00    +0.191 A 
ATOM     10  C   UNL     1      -2.286   3.434   0.681  0.00  0.00    +0.055 A 
ATOM     11  C   UNL     1      -3.628   3.025   0.620  0.00  0.00    +0.049 A 
ATOM     12  C   UNL     1      -4.375   4.136   0.445  0.00  0.00    +0.143 A 
ATOM     13  O   UNL     1      -3.563   5.200   0.405  0.00  0.00    -0.452 OA
BRANCH  12  14
ATOM     14  C   UNL     1      -5.877   4.173   0.318  0.00  0.00    +0.303 C 
BRANCH  14  15
ATOM     15  O   UNL     1      -6.460   4.322   1.614  0.00  0.00    -0.484 OA
BRANCH  15  16
ATOM     16  C   UNL     1      -7.817   4.373   1.678  0.00  0.00    +0.121 A 
ATOM     17  C   UNL     1      -8.571   4.288   0.516  0.00  0.00    +0.045 A 
ATOM     18  C   UNL     1      -9.950   4.334   0.584  0.00  0.00    +0.004 A 
ATOM     19  C   UNL     1     -10.578   4.477   1.807  0.00  0.00    +0.000 A 
ATOM     20  C   UNL     1      -9.829   4.569   2.966  0.00  0.00    +0.004 A 
ATOM     21  C   UNL     1      -8.450   4.517   2.904  0.00  0.00    +0.045 A 
ENDBRANCH  15  16
ENDBRANCH  14  15
ENDBRANCH  12  14
ENDBRANCH   6   9
ENDBRANCH   3   5
BRANCH   1  22
ATOM     22  C   UNL     1       0.973  10.037   0.262  0.00  0.00    +0.160 C 
ATOM     23  C   UNL     1       1.712   9.885   1.593  0.00  0.00    +0.035 C 
BRANCH  22  24
ATOM     24  N   UNL     1       0.559  11.432   0.090  0.00  0.00    -0.178 NA
ATOM     25  H   UNL     1      -0.437  11.756   0.425  0.00  0.00    +0.149 HD
BRANCH  24  26
ATOM     26  S   UNL     1       1.480  12.461  -0.825  0.00  0.00    +0.060 S 
ATOM     27  O   UNL     1       0.794  13.706  -0.850  0.00  0.00    -0.153 OA
ATOM     28  O   UNL     1       2.816  12.337  -0.356  0.00  0.00    -0.153 OA
BRANCH  26  34
ATOM     29  C   UNL     1       3.688   9.815  -4.754  0.00  0.00    +0.044 C 
ATOM     30  C   UNL     1       2.523  10.622  -4.241  0.00  0.00    -0.045 A 
ATOM     31  C   UNL     1       1.444  10.880  -5.066  0.00  0.00    +0.007 A 
ATOM     32  C   UNL     1       0.376  11.619  -4.595  0.00  0.00    -0.045 A 
ATOM     33  C   UNL     1       0.387  12.102  -3.300  0.00  0.00    -0.021 A 
ATOM     34  C   UNL     1       1.466  11.845  -2.475  0.00  0.00    +0.112 A 
ATOM     35  C   UNL     1       2.537  11.110  -2.948  0.00  0.00    -0.021 A 
ATOM     36  C   UNL     1       3.716  10.835  -2.051  0.00  0.00    +0.046 C 
ATOM     37  C   UNL     1      -0.778  12.909  -2.787  0.00  0.00    +0.046 C 
ATOM     38  C   UNL     1      -0.801  11.900  -5.494  0.00  0.00    +0.044 C 
ENDBRANCH  26  34
ENDBRANCH  24  26
ENDBRANCH  22  24
ENDBRANCH   1  22
TORSDOF 9
