REMARK  Name = ZINC02258797
REMARK  10 active torsions:
REMARK  status: ('A' for Active; 'I' for Inactive)
REMARK    1  A    between atoms: C_1  and  C_2
REMARK    2  A    between atoms: C_2  and  C_3
REMARK    3  A    between atoms: C_3  and  C_4
REMARK    4  A    between atoms: C_4  and  C_5
REMARK    5  A    between atoms: C_5  and  C_6
REMARK    6  A    between atoms: N_16  and  N_17
REMARK    7  A    between atoms: C_18  and  C_20
REMARK    8  A    between atoms: N_29  and  C_32
REMARK    9  A    between atoms: C_32  and  C_33
REMARK   10  A    between atoms: C_33  and  C_34
REMARK                            x       y       z     vdW  Elec       q    Type
REMARK                         _______ _______ _______ _____ _____    ______ ____
ROOT
ATOM      1  N   UNL     1       1.290   8.116   1.198  0.00  0.00    -0.214 N 
ATOM      2  C   UNL     1       1.251   7.449   0.028  0.00  0.00    +0.271 C 
ATOM      3  O   UNL     1       1.267   8.062  -1.023  0.00  0.00    -0.268 OA
ATOM      4  H   UNL     1       1.276   7.562   2.148  0.00  0.00    +0.176 HD
ENDROOT
BRANCH   2   5
ATOM      5  C   UNL     1       1.190   5.983   0.021  0.00  0.00    +0.150 A 
ATOM      6  C   UNL     1      -0.067   5.318   0.030  0.00  0.00    +0.205 A 
ATOM      7  O   UNL     1      -1.111   5.947   0.044  0.00  0.00    -0.286 OA
ATOM      8  C   UNL     1      -0.067   3.843   0.023  0.00  0.00    +0.046 A 
ATOM      9  C   UNL     1      -1.262   3.123   0.031  0.00  0.00    +0.014 A 
ATOM     10  C   UNL     1      -1.227   1.746   0.017  0.00  0.00    +0.001 A 
ATOM     11  C   UNL     1      -0.013   1.076   0.008  0.00  0.00    +0.002 A 
ATOM     12  C   UNL     1       1.175   1.774   0.000  0.00  0.00    +0.026 A 
ATOM     13  C   UNL     1       1.163   3.166   0.008  0.00  0.00    +0.056 A 
ATOM     14  N   UNL     1       2.345   3.880   0.000  0.00  0.00    -0.307 N 
ATOM     15  C   UNL     1       2.363   5.232   0.007  0.00  0.00    +0.268 A 
ATOM     16  O   UNL     1       3.549   5.871  -0.002  0.00  0.00    -0.267 OA
BRANCH  14  17
ATOM     17  C   UNL     1       3.616   3.152  -0.015  0.00  0.00    +0.125 C 
BRANCH  17  18
ATOM     18  C   UNL     1       4.045   2.906  -1.463  0.00  0.00    +0.018 C 
ATOM     19  C   UNL     1       5.373   2.145  -1.480  0.00  0.00    +0.005 C 
ENDBRANCH  17  18
ENDBRANCH  14  17
ENDBRANCH   2   5
BRANCH   1  30
ATOM     20  C   UNL     1       0.240  10.234   1.524  0.00  0.00    +0.131 A 
ATOM     21  N   UNL     1       0.214  11.532   1.554  0.00  0.00    -0.232 NA
ATOM     22  C   UNL     1       1.313  12.272   1.261  0.00  0.00    +0.078 A 
ATOM     23  C   UNL     1       1.286  13.668   1.292  0.00  0.00    +0.028 A 
ATOM     24  C   UNL     1       2.425  14.379   0.989  0.00  0.00    +0.002 A 
ATOM     25  C   UNL     1       3.603  13.725   0.651  0.00  0.00    +0.001 A 
ATOM     26  C   UNL     1       3.655  12.349   0.613  0.00  0.00    +0.015 A 
ATOM     27  C   UNL     1       2.513  11.611   0.916  0.00  0.00    +0.066 A 
ATOM     28  C   UNL     1       2.510  10.140   0.898  0.00  0.00    +0.279 A 
ATOM     29  O   UNL     1       3.511   9.509   0.615  0.00  0.00    -0.265 OA
ATOM     30  N   UNL     1       1.348   9.516   1.205  0.00  0.00    -0.209 N 
BRANCH  20  31
ATOM     31  C   UNL     1      -1.023   9.486   1.863  0.00  0.00    +0.076 C 
BRANCH  31  32
ATOM     32  C   UNL     1      -2.136  10.485   2.188  0.00  0.00    +0.008 C 
BRANCH  32  33
ATOM     33  C   UNL     1      -3.419   9.726   2.532  0.00  0.00    +0.000 C 
BRANCH  33  35
ATOM     34  C   UNL     1      -5.814   9.965   3.200  0.00  0.00    +0.004 C 
ATOM     35  C   UNL     1      -4.531  10.725   2.857  0.00  0.00    -0.003 C 
ENDBRANCH  33  35
ENDBRANCH  32  33
ENDBRANCH  31  32
ENDBRANCH  20  31
ENDBRANCH   1  30
TORSDOF 8
