REMARK  Name = ZINC17670532
REMARK  9 active torsions:
REMARK  status: ('A' for Active; 'I' for Inactive)
REMARK    1  A    between atoms: C_1  and  C_2
REMARK    2  A    between atoms: C_2  and  C_3
REMARK    3  A    between atoms: C_4  and  C_31
REMARK    4  A    between atoms: C_9  and  S_21
REMARK    5  A    between atoms: N_10  and  C_13
REMARK    6  A    between atoms: C_13  and  C_14
REMARK    7  A    between atoms: C_17  and  C_20
REMARK    8  A    between atoms: S_21  and  C_22
REMARK    9  A    between atoms: C_22  and  C_23
REMARK                            x       y       z     vdW  Elec       q    Type
REMARK                         _______ _______ _______ _____ _____    ______ ____
ROOT
ATOM      1  C   UNL     1      -7.188   5.319  -0.735  0.00  0.00    -0.005 A 
ATOM      2  C   UNL     1      -6.952   5.183   0.579  0.00  0.00    -0.026 A 
ATOM      3  C   UNL     1      -5.743   4.507   1.016  0.00  0.00    +0.075 A 
ATOM      4  C   UNL     1      -4.912   4.046  -0.022  0.00  0.00    +0.117 A 
ATOM      5  S   UNL     1      -5.778   4.534  -1.492  0.00  0.00    -0.073 S 
ATOM      6  N   UNL     1      -3.772   3.410   0.217  0.00  0.00    -0.216 NA
ATOM      7  C   UNL     1      -3.371   3.183   1.452  0.00  0.00    +0.173 A 
ATOM      8  N   UNL     1      -4.119   3.591   2.518  0.00  0.00    -0.283 N 
ATOM      9  C   UNL     1      -5.282   4.245   2.345  0.00  0.00    +0.264 A 
ATOM     10  O   UNL     1      -5.936   4.607   3.308  0.00  0.00    -0.267 OA
ATOM     11  C   UNL     1      -7.930   5.726   1.589  0.00  0.00    +0.045 C 
ENDROOT
BRANCH   1  13
ATOM     12  C   UNL     1      -8.060   7.459  -1.633  0.00  0.00    +0.009 C 
ATOM     13  C   UNL     1      -8.365   5.977  -1.409  0.00  0.00    +0.039 C 
ENDBRANCH   1  13
BRANCH   8  14
ATOM     14  C   UNL     1      -3.645   3.315   3.876  0.00  0.00    +0.162 C 
BRANCH  14  15
ATOM     15  C   UNL     1      -2.791   4.462   4.353  0.00  0.00    -0.028 A 
ATOM     16  C   UNL     1      -1.427   4.448   4.128  0.00  0.00    +0.005 A 
ATOM     17  C   UNL     1      -0.644   5.502   4.561  0.00  0.00    +0.004 A 
ATOM     18  C   UNL     1      -1.225   6.566   5.227  0.00  0.00    -0.050 A 
ATOM     19  C   UNL     1      -2.588   6.577   5.456  0.00  0.00    +0.004 A 
ATOM     20  C   UNL     1      -3.371   5.525   5.019  0.00  0.00    +0.005 A 
ATOM     21  C   UNL     1      -0.371   7.713   5.702  0.00  0.00    +0.044 C 
ENDBRANCH  14  15
ENDBRANCH   8  14
BRANCH   7  22
ATOM     22  S   UNL     1      -1.851   2.335   1.730  0.00  0.00    -0.080 S 
BRANCH  22  23
ATOM     23  C   UNL     1      -1.332   2.051   0.019  0.00  0.00    +0.153 C 
BRANCH  23  24
ATOM     24  C   UNL     1      -0.016   1.317   0.009  0.00  0.00    +0.146 A 
ATOM     25  N   UNL     1       1.117   1.997   0.002  0.00  0.00    -0.199 NA
ATOM     26  C   UNL     1       2.282   1.353  -0.012  0.00  0.00    +0.217 A 
ATOM     27  N   UNL     1       2.304   0.024  -0.020  0.00  0.00    -0.181 NA
ATOM     28  C   UNL     1       1.163  -0.656  -0.013  0.00  0.00    +0.217 A 
ATOM     29  N   UNL     1       0.002  -0.004   0.002  0.00  0.00    -0.199 NA
ATOM     30  N   UNL     1       1.180  -2.035  -0.021  0.00  0.00    -0.327 N 
ATOM     31  N   UNL     1       3.465   2.063  -0.020  0.00  0.00    -0.327 N 
ATOM     32  H   UNL     1       0.347  -2.531  -0.016  0.00  0.00    +0.145 HD
ATOM     33  H   UNL     1       2.027  -2.510  -0.031  0.00  0.00    +0.145 HD
ATOM     34  H   UNL     1       4.313   1.593  -0.031  0.00  0.00    +0.145 HD
ATOM     35  H   UNL     1       3.448   3.033  -0.015  0.00  0.00    +0.145 HD
ENDBRANCH  23  24
ENDBRANCH  22  23
ENDBRANCH   7  22
TORSDOF 6
