REMARK  Name = ZINC29547582
REMARK  9 active torsions:
REMARK  status: ('A' for Active; 'I' for Inactive)
REMARK    1  A    between atoms: C_1  and  C_2
REMARK    2  A    between atoms: C_2  and  C_3
REMARK    3  A    between atoms: C_2  and  C_4
REMARK    4  A    between atoms: C_2  and  N_5
REMARK    5  A    between atoms: C_6  and  S_8
REMARK    6  A    between atoms: S_8  and  C_9
REMARK    7  A    between atoms: C_9  and  C_10
REMARK    8  A    between atoms: C_14  and  C_23
REMARK    9  A    between atoms: N_25  and  C_26
REMARK                            x       y       z     vdW  Elec       q    Type
REMARK                         _______ _______ _______ _____ _____    ______ ____
ROOT
ATOM      1  C   UNL     1       0.172   0.126   0.013  0.00  0.00    +0.230 C 
ATOM      2  O   UNL     1       0.023   1.327  -0.055  0.00  0.00    -0.274 OA
ATOM      3  N   UNL     1       0.919  -0.514  -0.908  0.00  0.00    -0.264 N 
ATOM      4  C   UNL     1       1.018  -1.984  -0.922  0.00  0.00    +0.168 C 
ATOM      5  C   UNL     1       0.933  -2.436  -2.391  0.00  0.00    +0.276 C 
ATOM      6  O   UNL     1       1.994  -1.818  -3.123  0.00  0.00    -0.476 OA
ATOM      7  C   UNL     1       2.162  -0.477  -2.984  0.00  0.00    +0.143 A 
ATOM      8  C   UNL     1       1.637   0.198  -1.884  0.00  0.00    +0.078 A 
ATOM      9  C   UNL     1       1.820   1.565  -1.753  0.00  0.00    +0.027 A 
ATOM     10  C   UNL     1       2.524   2.261  -2.718  0.00  0.00    +0.002 A 
ATOM     11  C   UNL     1       3.045   1.594  -3.812  0.00  0.00    +0.004 A 
ATOM     12  C   UNL     1       2.866   0.230  -3.947  0.00  0.00    +0.047 A 
ENDROOT
BRANCH   5  13
ATOM     13  C   UNL     1       1.071  -3.934  -2.469  0.00  0.00    +0.255 C 
ATOM     14  O   UNL     1       2.038  -4.427  -3.012  0.00  0.00    -0.272 OA
ATOM     15  N   UNL     1       0.121  -4.728  -1.935  0.00  0.00    -0.315 N 
ATOM     16  C   UNL     1       0.256  -6.184  -2.010  0.00  0.00    +0.128 C 
ATOM     17  H   UNL     1      -0.755  -4.281  -1.442  0.00  0.00    +0.148 HD
ENDBRANCH   5  13
BRANCH   1  18
ATOM     18  C   UNL     1      -0.479  -0.652   1.128  0.00  0.00    +0.173 C 
BRANCH  18  19
ATOM     19  S   UNL     1      -1.283   0.495   2.275  0.00  0.00    -0.084 S 
BRANCH  19  21
ATOM     20  N   UNL     1      -1.750  -1.929   3.278  0.00  0.00    -0.363 N 
ATOM     21  C   UNL     1      -1.941  -0.650   3.441  0.00  0.00    +0.126 C 
ATOM     22  N   UNL     1      -2.657  -0.193   4.524  0.00  0.00    -0.339 N 
ATOM     23  H   UNL     1      -2.818   0.886   4.661  0.00  0.00    +0.144 HD
ATOM     24  H   UNL     1      -3.068  -0.908   5.252  0.00  0.00    +0.144 HD
ATOM     25  H   UNL     1      -1.158  -2.293   2.425  0.00  0.00    +0.162 HD
BRANCH  20  27
ATOM     26  C   UNL     1      -3.847  -2.748   4.234  0.00  0.00    +0.033 C 
ATOM     27  C   UNL     1      -2.323  -2.883   4.231  0.00  0.00    +0.032 C 
ATOM     28  C   UNL     1      -1.938  -4.306   3.823  0.00  0.00    +0.033 C 
ATOM     29  C   UNL     1      -1.783  -2.591   5.633  0.00  0.00    +0.033 C 
ENDBRANCH  20  27
ENDBRANCH  19  21
ENDBRANCH  18  19
ENDBRANCH   1  18
TORSDOF 5
