REMARK  Name = ZINC14326466
REMARK  7 active torsions:
REMARK  status: ('A' for Active; 'I' for Inactive)
REMARK    1  A    between atoms: C_1  and  C_2
REMARK    2  A    between atoms: C_5  and  S_8
REMARK    3  A    between atoms: S_8  and  N_11
REMARK    4  A    between atoms: C_14  and  N_17
REMARK    5  A    between atoms: N_17  and  C_18
REMARK    6  A    between atoms: C_21  and  C_27
REMARK    7  A    between atoms: C_23  and  N_24
REMARK                            x       y       z     vdW  Elec       q    Type
REMARK                         _______ _______ _______ _____ _____    ______ ____
ROOT
ATOM      1  N   UNL     1      -4.135   1.477   8.132  0.00  0.00    -0.176 NA
ATOM      2  C   UNL     1      -2.771   1.962   8.384  0.00  0.00    +0.111 C 
ATOM      3  C   UNL     1      -2.395   2.967   7.291  0.00  0.00    +0.039 C 
ATOM      4  C   UNL     1      -2.587   2.317   5.919  0.00  0.00    +0.073 C 
ATOM      5  C   UNL     1      -4.057   1.932   5.737  0.00  0.00    +0.039 C 
ATOM      6  C   UNL     1      -4.452   0.915   6.812  0.00  0.00    +0.111 C 
ENDROOT
BRANCH   1   7
ATOM      7  S   UNL     1      -5.292   1.562   9.313  0.00  0.00    +0.061 S 
ATOM      8  O   UNL     1      -6.259   0.566   9.007  0.00  0.00    -0.153 OA
ATOM      9  O   UNL     1      -4.603   1.597  10.556  0.00  0.00    -0.153 OA
BRANCH   7  14
ATOM     10  C   UNL     1      -8.059   6.891   8.722  0.00  0.00    +0.044 C 
ATOM     11  C   UNL     1      -7.368   5.560   8.870  0.00  0.00    -0.050 A 
ATOM     12  C   UNL     1      -7.846   4.454   8.193  0.00  0.00    +0.005 A 
ATOM     13  C   UNL     1      -7.213   3.232   8.328  0.00  0.00    +0.029 A 
ATOM     14  C   UNL     1      -6.100   3.118   9.141  0.00  0.00    +0.105 A 
ATOM     15  C   UNL     1      -5.624   4.223   9.822  0.00  0.00    +0.029 A 
ATOM     16  C   UNL     1      -6.255   5.445   9.682  0.00  0.00    +0.005 A 
ENDBRANCH   7  14
ENDBRANCH   1   7
BRANCH   4  17
ATOM     17  N   UNL     1      -2.197   3.264   4.871  0.00  0.00    -0.339 N 
ATOM     18  H   UNL     1      -2.228   4.218   5.044  0.00  0.00    +0.146 HD
BRANCH  17  19
ATOM     19  C   UNL     1      -1.781   2.793   3.624  0.00  0.00    +0.058 A 
ATOM     20  C   UNL     1      -1.623   1.429   3.412  0.00  0.00    +0.026 A 
ATOM     21  C   UNL     1      -1.212   0.967   2.177  0.00  0.00    +0.014 A 
ATOM     22  C   UNL     1      -0.958   1.861   1.152  0.00  0.00    +0.057 A 
ATOM     23  C   UNL     1      -1.108   3.219   1.362  0.00  0.00    +0.047 A 
ATOM     24  C   UNL     1      -1.525   3.688   2.593  0.00  0.00    +0.147 A 
BRANCH  22  25
ATOM     25  C   UNL     1      -0.509   1.353  -0.194  0.00  0.00    +0.417 C 
ATOM     26  F   UNL     1      -0.424  -0.043  -0.161  0.00  0.00    -0.166 F 
ATOM     27  F   UNL     1       0.746   1.889  -0.500  0.00  0.00    -0.166 F 
ATOM     28  F   UNL     1      -1.433   1.741  -1.170  0.00  0.00    -0.166 F 
ENDBRANCH  22  25
BRANCH  24  29
ATOM     29  N   UNL     1      -1.692   5.141   2.814  0.00  0.00    +0.058 N 
ATOM     30  O   UNL     1      -2.608   5.551   3.504  0.00  0.00    -0.126 OA
ATOM     31  O   UNL     1      -0.912   5.928   2.306  0.00  0.00    -0.126 OA
ENDBRANCH  24  29
ENDBRANCH  17  19
ENDBRANCH   4  17
TORSDOF 6
