REMARK  Name = ZINC32945357
REMARK  8 active torsions:
REMARK  status: ('A' for Active; 'I' for Inactive)
REMARK    1  A    between atoms: C_1  and  C_2
REMARK    2  A    between atoms: C_2  and  C_3
REMARK    3  A    between atoms: C_3  and  N_4
REMARK    4  A    between atoms: C_8  and  C_10
REMARK    5  A    between atoms: C_10  and  O_11
REMARK    6  A    between atoms: O_11  and  C_12
REMARK    7  A    between atoms: C_12  and  C_14
REMARK    8  A    between atoms: C_26  and  C_29
REMARK                            x       y       z     vdW  Elec       q    Type
REMARK                         _______ _______ _______ _____ _____    ______ ____
ROOT
ATOM      1  C   UNL     1       0.002  -0.004   0.002  0.00  0.00    +0.340 C 
ATOM      2  O   UNL     1       1.062  -0.597  -0.011  0.00  0.00    -0.245 OA
ENDROOT
BRANCH   1   3
ATOM      3  C   UNL     1      -1.265  -0.759   0.010  0.00  0.00    +0.060 A 
ATOM      4  C   UNL     1      -2.489  -0.074   0.031  0.00  0.00    +0.017 A 
ATOM      5  C   UNL     1      -3.668  -0.758   0.034  0.00  0.00    +0.027 A 
ATOM      6  C   UNL     1      -3.672  -2.151   0.027  0.00  0.00    +0.047 A 
ATOM      7  C   UNL     1      -2.449  -2.853   0.011  0.00  0.00    +0.004 A 
ATOM      8  C   UNL     1      -1.246  -2.151   0.002  0.00  0.00    +0.025 A 
ATOM      9  C   UNL     1      -2.802  -4.269   0.006  0.00  0.00    -0.019 A 
ATOM     10  C   UNL     1      -4.146  -4.347   0.020  0.00  0.00    +0.020 A 
ATOM     11  N   UNL     1      -4.678  -3.089   0.032  0.00  0.00    -0.358 N 
ATOM     12  H   UNL     1      -5.730  -2.767   0.044  0.00  0.00    +0.166 HD
ATOM     13  C   UNL     1      -4.909  -5.652   0.023  0.00  0.00    +0.054 C 
ATOM     14  C   UNL     1      -3.950  -6.777   0.429  0.00  0.00    +0.009 C 
ATOM     15  C   UNL     1      -2.678  -6.696  -0.420  0.00  0.00    -0.009 C 
ATOM     16  C   UNL     1      -1.873  -5.456  -0.012  0.00  0.00    +0.040 C 
ATOM     17  C   UNL     1      -1.833  -7.951  -0.195  0.00  0.00    +0.008 C 
ENDBRANCH   1   3
BRANCH   1  18
ATOM     18  O   UNL     1      -0.016   1.343   0.009  0.00  0.00    -0.452 OA
BRANCH  18  19
ATOM     19  C   UNL     1       1.268   2.020   0.001  0.00  0.00    +0.328 C 
BRANCH  19  24
ATOM     20  N   UNL     1       2.971   6.516   0.009  0.00  0.00    -0.299 N 
ATOM     21  C   UNL     1       1.914   5.680   0.014  0.00  0.00    +0.306 C 
ATOM     22  O   UNL     1       0.784   6.129   0.028  0.00  0.00    -0.252 OA
ATOM     23  N   UNL     1       2.108   4.346   0.005  0.00  0.00    -0.237 N 
ATOM     24  C   UNL     1       1.051   3.511   0.011  0.00  0.00    +0.258 C 
ATOM     25  O   UNL     1      -0.076   3.959   0.024  0.00  0.00    -0.272 OA
ATOM     26  H   UNL     1       3.993   6.109  -0.003  0.00  0.00    +0.150 HD
ATOM     27  H   UNL     1       3.130   3.940  -0.007  0.00  0.00    +0.159 HD
BRANCH  20  28
ATOM     28  C   UNL     1       2.760   7.965   0.018  0.00  0.00    +0.105 C 
BRANCH  28  30
ATOM     29  C   UNL     1       3.892  10.192   0.020  0.00  0.00    +0.005 C 
ATOM     30  C   UNL     1       4.113   8.678   0.009  0.00  0.00    +0.015 C 
ENDBRANCH  28  30
ENDBRANCH  20  28
ENDBRANCH  19  24
ENDBRANCH  18  19
ENDBRANCH   1  18
TORSDOF 6
