REMARK  Name = ZINC59417492
REMARK  5 active torsions:
REMARK  status: ('A' for Active; 'I' for Inactive)
REMARK    1  A    between atoms: C_1  and  C_2
REMARK    2  A    between atoms: C_3  and  C_12
REMARK    3  A    between atoms: C_12  and  S_13
REMARK    4  A    between atoms: S_13  and  C_14
REMARK    5  A    between atoms: C_19  and  N_23
REMARK                            x       y       z     vdW  Elec       q    Type
REMARK                         _______ _______ _______ _____ _____    ______ ____
ROOT
ATOM      1  S   UNL     1       1.698  -0.066  -3.109  0.00  0.00    -0.094 S 
ENDROOT
BRANCH   1   2
ATOM      2  C   UNL     1       1.514   0.496  -4.769  0.00  0.00    +0.136 A 
ATOM      3  N   UNL     1       0.409   0.720  -5.446  0.00  0.00    -0.233 NA
ATOM      4  C   UNL     1       0.419   1.155  -6.725  0.00  0.00    +0.080 A 
ATOM      5  C   UNL     1      -0.688   1.431  -7.561  0.00  0.00    +0.031 A 
ATOM      6  C   UNL     1      -0.503   1.869  -8.846  0.00  0.00    +0.035 A 
ATOM      7  C   UNL     1       0.767   2.055  -9.373  0.00  0.00    +0.127 A 
ATOM      8  C   UNL     1       1.873   1.794  -8.583  0.00  0.00    +0.050 A 
ATOM      9  C   UNL     1       1.696   1.356  -7.294  0.00  0.00    +0.042 A 
ATOM     10  S   UNL     1       2.781   0.916  -5.958  0.00  0.00    -0.061 S 
BRANCH   7  11
ATOM     11  N   UNL     1       0.938   2.527 -10.765  0.00  0.00    +0.056 N 
ATOM     12  O   UNL     1      -0.032   2.753 -11.450  0.00  0.00    -0.126 OA
ATOM     13  O   UNL     1       2.048   2.688 -11.217  0.00  0.00    -0.126 OA
ENDBRANCH   7  11
ENDBRANCH   1   2
BRANCH   1  14
ATOM     14  C   UNL     1      -0.006  -0.284  -2.528  0.00  0.00    +0.113 C 
BRANCH  14  17
ATOM     15  C   UNL     1      -0.018   1.503   0.010  0.00  0.00    +0.063 C 
ATOM     16  C   UNL     1       0.002  -0.004   0.002  0.00  0.00    +0.018 A 
ATOM     17  C   UNL     1       0.007  -0.769  -1.101  0.00  0.00    -0.009 A 
ATOM     18  C   UNL     1       0.029  -2.164  -0.655  0.00  0.00    +0.004 A 
ATOM     19  C   UNL     1       0.043  -3.394  -1.316  0.00  0.00    +0.010 A 
ATOM     20  C   UNL     1       0.063  -4.552  -0.593  0.00  0.00    +0.001 A 
ATOM     21  C   UNL     1       0.070  -4.517   0.795  0.00  0.00    +0.002 A 
ATOM     22  C   UNL     1       0.056  -3.315   1.468  0.00  0.00    +0.026 A 
ATOM     23  C   UNL     1       0.036  -2.122   0.751  0.00  0.00    +0.047 A 
ATOM     24  N   UNL     1       0.024  -0.795   1.118  0.00  0.00    -0.358 N 
ATOM     25  H   UNL     1       0.029  -0.470   2.032  0.00  0.00    +0.166 HD
ENDBRANCH  14  17
ENDBRANCH   1  14
TORSDOF 4
