REMARK  Name = ZINC10023056
REMARK  12 active torsions:
REMARK  status: ('A' for Active; 'I' for Inactive)
REMARK    1  A    between atoms: C_1  and  O_2
REMARK    2  A    between atoms: O_2  and  C_3
REMARK    3  A    between atoms: C_6  and  S_9
REMARK    4  A    between atoms: S_9  and  C_10
REMARK    5  A    between atoms: C_10  and  C_11
REMARK    6  A    between atoms: C_11  and  N_13
REMARK    7  A    between atoms: N_15  and  C_27
REMARK    8  A    between atoms: C_19  and  S_23
REMARK    9  A    between atoms: S_23  and  N_26
REMARK   10  A    between atoms: C_27  and  C_28
REMARK   11  A    between atoms: C_28  and  O_30
REMARK   12  A    between atoms: O_30  and  C_31
REMARK                            x       y       z     vdW  Elec       q    Type
REMARK                         _______ _______ _______ _____ _____    ______ ____
ROOT
ATOM      1  N   UNL     1      -0.969   2.193   0.416  0.00  0.00    -0.156 NA
ATOM      2  C   UNL     1       0.166   1.519   0.248  0.00  0.00    +0.167 A 
ATOM      3  N   UNL     1       1.442   1.980   0.338  0.00  0.00    -0.310 N 
ATOM      4  C   UNL     1       2.506   1.124   0.125  0.00  0.00    +0.058 A 
ATOM      5  C   UNL     1       3.879   1.412   0.173  0.00  0.00    +0.029 A 
ATOM      6  C   UNL     1       4.812   0.432  -0.068  0.00  0.00    +0.030 A 
ATOM      7  C   UNL     1       4.429  -0.866  -0.364  0.00  0.00    +0.106 A 
ATOM      8  C   UNL     1       3.082  -1.178  -0.418  0.00  0.00    +0.045 A 
ATOM      9  C   UNL     1       2.148  -0.198  -0.178  0.00  0.00    +0.041 A 
ATOM     10  S   UNL     1       0.374  -0.157  -0.144  0.00  0.00    -0.052 S 
ENDROOT
BRANCH   7  11
ATOM     11  S   UNL     1       5.644  -2.105  -0.669  0.00  0.00    +0.056 S 
ATOM     12  O   UNL     1       6.833  -1.677  -0.020  0.00  0.00    -0.153 OA
ATOM     13  O   UNL     1       5.029  -3.355  -0.386  0.00  0.00    -0.153 OA
BRANCH  11  14
ATOM     14  N   UNL     1       5.960  -2.091  -2.295  0.00  0.00    -0.204 NA
ATOM     15  H   UNL     1       5.496  -1.466  -2.873  0.00  0.00    +0.144 HD
ATOM     16  H   UNL     1       6.609  -2.708  -2.668  0.00  0.00    +0.144 HD
ENDBRANCH  11  14
ENDBRANCH   7  11
BRANCH   1  17
ATOM     17  C   UNL     1      -0.944   3.515   0.548  0.00  0.00    +0.249 C 
ATOM     18  O   UNL     1      -0.587   4.213  -0.382  0.00  0.00    -0.273 OA
BRANCH  17  19
ATOM     19  C   UNL     1      -1.357   4.150   1.851  0.00  0.00    +0.172 C 
BRANCH  19  20
ATOM     20  S   UNL     1      -1.214   5.953   1.717  0.00  0.00    -0.116 S 
BRANCH  20  24
ATOM     21  C   UNL     1      -2.529   7.462   5.783  0.00  0.00    +0.120 A 
ATOM     22  C   UNL     1      -2.143   8.362   4.801  0.00  0.00    +0.047 A 
ATOM     23  C   UNL     1      -1.742   7.904   3.562  0.00  0.00    +0.018 A 
ATOM     24  C   UNL     1      -1.725   6.540   3.298  0.00  0.00    +0.009 A 
ATOM     25  C   UNL     1      -2.117   5.639   4.281  0.00  0.00    +0.018 A 
ATOM     26  C   UNL     1      -2.512   6.099   5.521  0.00  0.00    +0.047 A 
BRANCH  21  28
ATOM     27  C   UNL     1      -3.307   6.931   7.967  0.00  0.00    +0.277 C 
ATOM     28  O   UNL     1      -2.923   7.914   7.003  0.00  0.00    -0.495 OA
ENDBRANCH  21  28
ENDBRANCH  20  24
ENDBRANCH  19  20
ENDBRANCH  17  19
ENDBRANCH   1  17
BRANCH   3  29
ATOM     29  C   UNL     1       1.689   3.388   0.662  0.00  0.00    +0.244 C 
BRANCH  29  30
ATOM     30  C   UNL     1       1.868   4.172  -0.613  0.00  0.00    +0.327 C 
ATOM     31  O   UNL     1       1.796   3.613  -1.681  0.00  0.00    -0.249 OA
BRANCH  30  32
ATOM     32  O   UNL     1       2.107   5.492  -0.561  0.00  0.00    -0.467 OA
ATOM     33  C   UNL     1       2.269   6.183  -1.827  0.00  0.00    +0.280 C 
ENDBRANCH  30  32
ENDBRANCH  29  30
ENDBRANCH   3  29
TORSDOF 10
