REMARK  Name = ZINC06301347
REMARK  16 active torsions:
REMARK  status: ('A' for Active; 'I' for Inactive)
REMARK    1  A    between atoms: C_1  and  C_2
REMARK    2  A    between atoms: C_4  and  C_37
REMARK    3  A    between atoms: C_7  and  C_14
REMARK    4  A    between atoms: C_14  and  N_70
REMARK    5  A    between atoms: C_15  and  C_16
REMARK    6  A    between atoms: C_15  and  N_70
REMARK    7  A    between atoms: C_16  and  O_17
REMARK    8  A    between atoms: C_18  and  C_20
REMARK    9  A    between atoms: C_18  and  C_34
REMARK   10  A    between atoms: C_18  and  N_70
REMARK   11  A    between atoms: N_24  and  C_25
REMARK   12  A    between atoms: C_25  and  C_26
REMARK   13  A    between atoms: C_29  and  O_32
REMARK   14  A    between atoms: O_32  and  C_33
REMARK   15  A    between atoms: C_34  and  C_35
REMARK   16  A    between atoms: C_34  and  C_36
REMARK                            x       y       z     vdW  Elec       q    Type
REMARK                         _______ _______ _______ _____ _____    ______ ____
ROOT
ATOM      1  N   UNL     1       4.848   5.871  -2.043  0.00  0.00    +0.391 N 
ATOM      2  H   UNL     1       4.252   6.649  -2.349  0.00  0.00    -0.080 HD
ENDROOT
BRANCH   1   3
ATOM      3  C   UNL     1       5.248   6.096  -0.638  0.00  0.00    -0.036 C 
BRANCH   3  10
ATOM      4  C   UNL     1      -1.216   7.051   3.937  0.00  0.00    +0.044 C 
ATOM      5  C   UNL     1       0.009   6.651   3.154  0.00  0.00    -0.048 A 
ATOM      6  C   UNL     1       0.506   5.360   3.268  0.00  0.00    +0.007 A 
ATOM      7  C   UNL     1       1.614   4.978   2.567  0.00  0.00    -0.041 A 
ATOM      8  C   UNL     1       2.255   5.895   1.728  0.00  0.00    +0.002 A 
ATOM      9  C   UNL     1       3.444   5.519   0.962  0.00  0.00    +0.017 A 
ATOM     10  C   UNL     1       4.023   6.451   0.164  0.00  0.00    +0.001 A 
ATOM     11  C   UNL     1       3.481   7.752   0.083  0.00  0.00    +0.251 A 
ATOM     12  O   UNL     1       4.016   8.574  -0.641  0.00  0.00    -0.268 OA
ATOM     13  N   UNL     1       2.389   8.106   0.782  0.00  0.00    -0.322 N 
ATOM     14  H   UNL     1       2.043   9.009   0.703  0.00  0.00    +0.169 HD
ATOM     15  C   UNL     1       1.755   7.206   1.611  0.00  0.00    +0.050 A 
ATOM     16  C   UNL     1       0.624   7.572   2.334  0.00  0.00    +0.029 A 
ATOM     17  C   UNL     1       2.145   3.573   2.697  0.00  0.00    +0.044 C 
ENDBRANCH   3  10
ENDBRANCH   1   3
BRANCH   1  18
ATOM     18  C   UNL     1       4.086   4.609  -2.155  0.00  0.00    -0.049 C 
BRANCH  18  19
ATOM     19  C   UNL     1       2.598   4.924  -1.990  0.00  0.00    +0.137 C 
BRANCH  19  20
ATOM     20  O   UNL     1       2.184   5.822  -3.021  0.00  0.00    -0.397 OA
ATOM     21  H   UNL     1       1.249   6.066  -2.979  0.00  0.00    +0.209 HD
ENDBRANCH  19  20
ENDBRANCH  18  19
ENDBRANCH   1  18
BRANCH   1  22
ATOM     22  C   UNL     1       6.046   5.815  -2.906  0.00  0.00    +0.006 C 
BRANCH  22  23
ATOM     23  C   UNL     1       5.648   6.203  -4.307  0.00  0.00    +0.139 A 
ATOM     24  N   UNL     1       4.984   5.467  -5.164  0.00  0.00    -0.115 NA
ATOM     25  N   UNL     1       4.839   6.151  -6.247  0.00  0.00    -0.023 NA
ATOM     26  N   UNL     1       5.400   7.301  -6.105  0.00  0.00    -0.044 NA
ATOM     27  N   UNL     1       5.910   7.371  -4.922  0.00  0.00    -0.226 N 
BRANCH  27  28
ATOM     28  C   UNL     1       6.639   8.509  -4.356  0.00  0.00    +0.182 C 
BRANCH  28  29
ATOM     29  C   UNL     1       8.029   8.555  -4.936  0.00  0.00    -0.026 A 
ATOM     30  C   UNL     1       9.086   7.999  -4.239  0.00  0.00    +0.009 A 
ATOM     31  C   UNL     1      10.360   8.035  -4.771  0.00  0.00    +0.046 A 
ATOM     32  C   UNL     1      10.581   8.638  -6.001  0.00  0.00    +0.120 A 
ATOM     33  C   UNL     1       9.519   9.200  -6.695  0.00  0.00    +0.046 A 
ATOM     34  C   UNL     1       8.246   9.157  -6.162  0.00  0.00    +0.009 A 
BRANCH  32  35
ATOM     35  O   UNL     1      11.834   8.679  -6.524  0.00  0.00    -0.495 OA
ATOM     36  C   UNL     1      12.879   8.081  -5.753  0.00  0.00    +0.277 C 
ENDBRANCH  32  35
ENDBRANCH  28  29
ENDBRANCH  27  28
ENDBRANCH  22  23
BRANCH  22  37
ATOM     37  C   UNL     1       6.633   4.402  -2.916  0.00  0.00    -0.024 C 
ATOM     38  C   UNL     1       7.890   4.377  -3.788  0.00  0.00    +0.006 C 
ATOM     39  C   UNL     1       6.995   3.990  -1.488  0.00  0.00    +0.006 C 
ENDBRANCH  22  37
ENDBRANCH   1  22
TORSDOF 11
