REMARK  Name = ZINC14438332
REMARK  11 active torsions:
REMARK  status: ('A' for Active; 'I' for Inactive)
REMARK    1  A    between atoms: C_1  and  O_2
REMARK    2  A    between atoms: O_2  and  C_3
REMARK    3  A    between atoms: C_5  and  O_26
REMARK    4  A    between atoms: C_14  and  O_24
REMARK    5  A    between atoms: C_15  and  O_22
REMARK    6  A    between atoms: C_16  and  O_20
REMARK    7  A    between atoms: C_17  and  O_18
REMARK    8  A    between atoms: O_18  and  C_19
REMARK    9  A    between atoms: O_20  and  C_21
REMARK   10  A    between atoms: O_22  and  C_23
REMARK   11  A    between atoms: O_24  and  C_25
REMARK                            x       y       z     vdW  Elec       q    Type
REMARK                         _______ _______ _______ _____ _____    ______ ____
ROOT
ATOM      1  C   UNL     1      -2.276   2.028   1.081  0.00  0.00    +0.127 A 
ATOM      2  C   UNL     1      -2.847   1.227   0.099  0.00  0.00    +0.092 A 
ATOM      3  C   UNL     1      -4.094   0.664   0.303  0.00  0.00    +0.135 A 
ATOM      4  C   UNL     1      -4.779   0.917   1.500  0.00  0.00    +0.106 A 
ATOM      5  C   UNL     1      -4.203   1.732   2.489  0.00  0.00    +0.146 A 
ATOM      6  C   UNL     1      -2.948   2.282   2.266  0.00  0.00    +0.092 A 
ATOM      7  O   UNL     1      -4.851   1.984   3.645  0.00  0.00    -0.450 OA
ATOM      8  C   UNL     1      -6.073   1.488   3.937  0.00  0.00    +0.188 A 
ATOM      9  C   UNL     1      -6.753   0.660   3.029  0.00  0.00    +0.114 A 
ATOM     10  C   UNL     1      -6.111   0.337   1.742  0.00  0.00    +0.207 A 
ATOM     11  O   UNL     1      -6.656  -0.376   0.918  0.00  0.00    -0.286 OA
ATOM     12  C   UNL     1      -8.021   0.153   3.343  0.00  0.00    +0.180 A 
ATOM     13  C   UNL     1      -8.603   0.472   4.560  0.00  0.00    +0.208 A 
ATOM     14  C   UNL     1      -7.929   1.292   5.460  0.00  0.00    +0.211 A 
ATOM     15  C   UNL     1      -6.673   1.797   5.153  0.00  0.00    +0.209 A 
ENDROOT
BRANCH   1  17
ATOM     16  C   UNL     1      -0.408   2.272  -0.366  0.00  0.00    +0.277 C 
ATOM     17  O   UNL     1      -1.049   2.571   0.875  0.00  0.00    -0.495 OA
ENDBRANCH   1  17
BRANCH  15  18
ATOM     18  O   UNL     1      -6.027   2.599   6.044  0.00  0.00    -0.488 OA
ATOM     19  C   UNL     1      -6.260   4.005   5.941  0.00  0.00    +0.277 C 
ENDBRANCH  15  18
BRANCH  14  20
ATOM     20  O   UNL     1      -8.506   1.601   6.652  0.00  0.00    -0.488 OA
ATOM     21  C   UNL     1      -8.289   0.693   7.733  0.00  0.00    +0.277 C 
ENDBRANCH  14  20
BRANCH  13  22
ATOM     22  O   UNL     1      -9.834  -0.017   4.874  0.00  0.00    -0.488 OA
ATOM     23  C   UNL     1     -10.964   0.742   4.440  0.00  0.00    +0.277 C 
ENDBRANCH  13  22
BRANCH  12  24
ATOM     24  O   UNL     1      -8.675  -0.647   2.461  0.00  0.00    -0.491 OA
ATOM     25  C   UNL     1      -8.548  -2.058   2.648  0.00  0.00    +0.277 C 
ENDBRANCH  12  24
BRANCH   3  26
ATOM     26  O   UNL     1      -4.653  -0.122  -0.650  0.00  0.00    -0.506 OA
ATOM     27  H   UNL     1      -5.191   0.361  -1.293  0.00  0.00    +0.292 HD
ENDBRANCH   3  26
TORSDOF 6
