REMARK  Name = ZINC35778165
REMARK  19 active torsions:
REMARK  status: ('A' for Active; 'I' for Inactive)
REMARK    1  A    between atoms: C_1  and  C_2
REMARK    2  A    between atoms: C_2  and  C_3
REMARK    3  A    between atoms: C_2  and  C_4
REMARK    4  A    between atoms: C_4  and  N_5
REMARK    5  A    between atoms: N_5  and  C_6
REMARK    6  A    between atoms: N_5  and  C_28
REMARK    7  A    between atoms: C_6  and  C_7
REMARK    8  A    between atoms: C_8  and  C_22
REMARK    9  A    between atoms: N_10  and  C_21
REMARK   10  A    between atoms: C_11  and  O_12
REMARK   11  A    between atoms: O_12  and  C_13
REMARK   12  A    between atoms: C_17  and  O_19
REMARK   13  A    between atoms: O_19  and  C_20
REMARK   14  A    between atoms: C_28  and  C_29
REMARK   15  A    between atoms: C_29  and  C_31
REMARK   16  A    between atoms: C_29  and  O_39
REMARK   17  A    between atoms: C_31  and  O_32
REMARK   18  A    between atoms: O_32  and  C_33
REMARK   19  A    between atoms: C_33  and  C_34
REMARK                            x       y       z     vdW  Elec       q    Type
REMARK                         _______ _______ _______ _____ _____    ______ ____
ROOT
ATOM      1  C   UNL     1       1.063  -2.487   0.143  0.00  0.00    +0.025 A 
ATOM      2  C   UNL     1       2.042  -3.484   0.318  0.00  0.00    +0.098 A 
ATOM      3  N   UNL     1       3.225  -2.921   0.202  0.00  0.00    -0.168 NA
ATOM      4  N   UNL     1       3.040  -1.556  -0.049  0.00  0.00    -0.235 N 
ATOM      5  C   UNL     1       1.704  -1.313  -0.087  0.00  0.00    +0.221 A 
ATOM      6  C   UNL     1       4.101  -0.565  -0.243  0.00  0.00    +0.176 C 
ENDROOT
BRANCH   2   7
ATOM      7  C   UNL     1       1.783  -4.921   0.588  0.00  0.00    +0.002 A 
ATOM      8  C   UNL     1       0.814  -5.294   1.517  0.00  0.00    +0.010 A 
ATOM      9  C   UNL     1       0.578  -6.632   1.764  0.00  0.00    +0.001 A 
ATOM     10  C   UNL     1       1.301  -7.600   1.091  0.00  0.00    +0.000 A 
ATOM     11  C   UNL     1       2.264  -7.235   0.168  0.00  0.00    +0.001 A 
ATOM     12  C   UNL     1       2.504  -5.901  -0.091  0.00  0.00    +0.010 A 
ENDBRANCH   2   7
BRANCH   1  13
ATOM     13  C   UNL     1      -0.429  -2.689   0.194  0.00  0.00    -0.035 C 
BRANCH  13  14
ATOM     14  N   UNL     1      -0.981  -2.615  -1.165  0.00  0.00    +0.384 N 
ATOM     15  H   UNL     1      -1.986  -2.685  -1.124  0.00  0.00    -0.081 HD
BRANCH  14  16
ATOM     16  C   UNL     1      -0.446  -3.721  -1.971  0.00  0.00    -0.075 C 
BRANCH  16  18
ATOM     17  C   UNL     1      -0.958  -5.968  -2.934  0.00  0.00    +0.005 C 
ATOM     18  C   UNL     1      -1.449  -4.876  -1.982  0.00  0.00    -0.034 C 
ATOM     19  C   UNL     1      -1.579  -5.451  -0.570  0.00  0.00    +0.005 C 
ENDBRANCH  16  18
ENDBRANCH  14  16
BRANCH  14  20
ATOM     20  C   UNL     1      -0.603  -1.335  -1.778  0.00  0.00    -0.044 C 
BRANCH  20  21
ATOM     21  C   UNL     1      -1.308  -1.187  -3.127  0.00  0.00    +0.124 C 
BRANCH  21  22
ATOM     22  O   UNL     1      -2.719  -1.105  -2.921  0.00  0.00    -0.391 OA
ATOM     23  H   UNL     1      -2.994  -0.358  -2.373  0.00  0.00    +0.210 HD
ENDBRANCH  21  22
BRANCH  21  24
ATOM     24  C   UNL     1      -0.819   0.086  -3.822  0.00  0.00    +0.189 C 
BRANCH  24  25
ATOM     25  O   UNL     1      -1.389   0.163  -5.130  0.00  0.00    -0.370 OA
BRANCH  25  26
ATOM     26  C   UNL     1      -0.995   1.321  -5.868  0.00  0.00    +0.234 C 
BRANCH  26  27
ATOM     27  C   UNL     1      -1.650   1.300  -7.225  0.00  0.00    +0.130 A 
ATOM     28  C   UNL     1      -2.843   1.841  -7.530  0.00  0.00    +0.047 A 
ATOM     29  C   UNL     1      -3.067   1.590  -8.903  0.00  0.00    +0.041 A 
ATOM     30  C   UNL     1      -1.998   0.911  -9.355  0.00  0.00    +0.195 A 
ATOM     31  O   UNL     1      -1.140   0.743  -8.335  0.00  0.00    -0.465 OA
ENDBRANCH  26  27
ENDBRANCH  25  26
ENDBRANCH  24  25
ENDBRANCH  21  24
ENDBRANCH  20  21
ENDBRANCH  14  20
ENDBRANCH  13  14
ENDBRANCH   1  13
BRANCH   5  32
ATOM     32  O   UNL     1       1.116  -0.111  -0.312  0.00  0.00    -0.438 OA
BRANCH  32  33
ATOM     33  C   UNL     1       0.949   0.726   0.745  0.00  0.00    +0.134 A 
ATOM     34  C   UNL     1       1.471   0.388   1.987  0.00  0.00    +0.046 A 
ATOM     35  C   UNL     1       1.301   1.238   3.062  0.00  0.00    +0.007 A 
ATOM     36  C   UNL     1       0.612   2.426   2.906  0.00  0.00    +0.046 A 
ATOM     37  C   UNL     1       0.088   2.768   1.667  0.00  0.00    +0.124 A 
ATOM     38  C   UNL     1       0.262   1.919   0.584  0.00  0.00    +0.092 A 
BRANCH  37  39
ATOM     39  O   UNL     1      -0.590   3.936   1.514  0.00  0.00    -0.495 OA
ATOM     40  C   UNL     1      -0.725   4.763   2.671  0.00  0.00    +0.277 C 
ENDBRANCH  37  39
ENDBRANCH  32  33
ENDBRANCH   5  32
TORSDOF 15
