REMARK  Name = ZINC39585654
REMARK  7 active torsions:
REMARK  status: ('A' for Active; 'I' for Inactive)
REMARK    1  A    between atoms: C_1  and  C_2
REMARK    2  A    between atoms: C_2  and  C_4
REMARK    3  A    between atoms: C_2  and  O_21
REMARK    4  A    between atoms: C_9  and  C_12
REMARK    5  A    between atoms: C_16  and  N_18
REMARK    6  A    between atoms: O_21  and  C_22
REMARK    7  A    between atoms: C_22  and  C_24
REMARK                            x       y       z     vdW  Elec       q    Type
REMARK                         _______ _______ _______ _____ _____    ______ ____
ROOT
ATOM      1  C   UNL     1       0.731  -0.503   1.223  0.00  0.00    +0.259 C 
ATOM      2  O   UNL     1       0.135  -1.137   2.068  0.00  0.00    -0.271 OA
ATOM      3  N   UNL     1       2.045  -0.246   1.375  0.00  0.00    -0.262 N 
ATOM      4  C   UNL     1       2.717  -0.706   2.501  0.00  0.00    +0.165 A 
ATOM      5  N   UNL     1       3.985  -0.557   2.836  0.00  0.00    -0.225 NA
ATOM      6  C   UNL     1       4.464  -1.068   3.960  0.00  0.00    +0.080 A 
ATOM      7  C   UNL     1       3.630  -1.764   4.790  0.00  0.00    +0.076 A 
ATOM      8  S   UNL     1       2.092  -1.650   3.884  0.00  0.00    -0.060 S 
ATOM      9  H   UNL     1       2.522   0.261   0.699  0.00  0.00    +0.157 HD
ENDROOT
BRANCH   6  10
ATOM     10  C   UNL     1       5.893  -0.888   4.315  0.00  0.00    +0.003 A 
ATOM     11  C   UNL     1       6.395  -1.433   5.496  0.00  0.00    +0.010 A 
ATOM     12  C   UNL     1       7.725  -1.263   5.821  0.00  0.00    +0.003 A 
ATOM     13  C   UNL     1       8.560  -0.552   4.977  0.00  0.00    +0.033 A 
ATOM     14  C   UNL     1       8.068  -0.009   3.804  0.00  0.00    +0.127 A 
ATOM     15  C   UNL     1       6.741  -0.179   3.466  0.00  0.00    +0.042 A 
BRANCH  14  16
ATOM     16  N   UNL     1       8.968   0.749   2.907  0.00  0.00    +0.056 N 
ATOM     17  O   UNL     1      10.132   0.894   3.199  0.00  0.00    -0.126 OA
ATOM     18  O   UNL     1       8.539   1.225   1.881  0.00  0.00    -0.126 OA
ENDBRANCH  14  16
ENDBRANCH   6  10
BRANCH   1  20
ATOM     19  C   UNL     1      -0.019   1.526   0.010  0.00  0.00    +0.062 C 
ATOM     20  C   UNL     1       0.002  -0.004   0.002  0.00  0.00    +0.259 C 
BRANCH  20  21
ATOM     21  O   UNL     1      -1.339  -0.499   0.012  0.00  0.00    -0.449 OA
BRANCH  21  22
ATOM     22  C   UNL     1      -1.924  -0.704  -1.184  0.00  0.00    +0.343 C 
ATOM     23  O   UNL     1      -1.313  -0.469  -2.208  0.00  0.00    -0.245 OA
BRANCH  22  24
ATOM     24  C   UNL     1      -3.306  -1.213  -1.251  0.00  0.00    +0.094 A 
ATOM     25  C   UNL     1      -4.014  -1.479  -0.075  0.00  0.00    +0.020 A 
ATOM     26  C   UNL     1      -5.304  -1.954  -0.143  0.00  0.00    +0.039 A 
ATOM     27  C   UNL     1      -5.904  -2.171  -1.376  0.00  0.00    +0.126 A 
ATOM     28  C   UNL     1      -5.210  -1.911  -2.546  0.00  0.00    +0.077 A 
ATOM     29  C   UNL     1      -3.917  -1.427  -2.492  0.00  0.00    +0.140 A 
ATOM     30  F   UNL     1      -3.242  -1.168  -3.633  0.00  0.00    -0.205 F 
ATOM     31  F   UNL     1      -7.170  -2.639  -1.434  0.00  0.00    -0.205 F 
ENDBRANCH  22  24
ENDBRANCH  21  22
ENDBRANCH  20  21
ENDBRANCH   1  20
TORSDOF 6
