REMARK  Name = ZINC44711356
REMARK  11 active torsions:
REMARK  status: ('A' for Active; 'I' for Inactive)
REMARK    1  A    between atoms: C_1  and  C_2
REMARK    2  A    between atoms: C_9  and  C_11
REMARK    3  A    between atoms: C_11  and  N_12
REMARK    4  A    between atoms: C_18  and  C_20
REMARK    5  A    between atoms: C_20  and  C_22
REMARK    6  A    between atoms: C_20  and  N_23
REMARK    7  A    between atoms: C_24  and  O_26
REMARK    8  A    between atoms: O_26  and  C_27
REMARK    9  A    between atoms: C_27  and  C_28
REMARK   10  A    between atoms: C_27  and  C_29
REMARK   11  A    between atoms: C_27  and  C_30
REMARK                            x       y       z     vdW  Elec       q    Type
REMARK                         _______ _______ _______ _____ _____    ______ ____
ROOT
ATOM      1  N   UNL     1       3.119   0.763   3.656  0.00  0.00    -0.291 NA
ATOM      2  C   UNL     1       3.816   1.902   3.043  0.00  0.00    +0.104 C 
ATOM      3  C   UNL     1       3.802   3.087   4.014  0.00  0.00    +0.123 C 
ATOM      4  N   UNL     1       4.352   2.642   5.303  0.00  0.00    -0.298 N 
ATOM      5  C   UNL     1       3.796   1.425   5.914  0.00  0.00    +0.123 C 
ATOM      6  C   UNL     1       3.810   0.305   4.869  0.00  0.00    +0.104 C 
ATOM      7  C   UNL     1       5.340   3.330   5.909  0.00  0.00    +0.236 C 
ATOM      8  O   UNL     1       5.715   4.386   5.446  0.00  0.00    -0.274 OA
ENDROOT
BRANCH   7   9
ATOM      9  C   UNL     1       5.978   2.788   7.162  0.00  0.00    +0.159 C 
ATOM     10  C   UNL     1       5.028   2.986   8.345  0.00  0.00    +0.038 C 
BRANCH   9  11
ATOM     11  N   UNL     1       7.233   3.499   7.418  0.00  0.00    -0.270 N 
ATOM     12  C   UNL     1       8.209   2.907   8.135  0.00  0.00    +0.401 C 
ATOM     13  O   UNL     1       8.048   1.784   8.568  0.00  0.00    -0.226 OA
ATOM     14  H   UNL     1       7.361   4.396   7.072  0.00  0.00    +0.153 HD
BRANCH  12  15
ATOM     15  O   UNL     1       9.362   3.561   8.370  0.00  0.00    -0.445 OA
BRANCH  15  16
ATOM     16  C   UNL     1      10.352   2.873   9.137  0.00  0.00    +0.107 C 
ATOM     17  C   UNL     1      10.751   1.584   8.416  0.00  0.00    +0.055 C 
ATOM     18  C   UNL     1      11.583   3.768   9.300  0.00  0.00    +0.055 C 
ATOM     19  C   UNL     1       9.784   2.532  10.516  0.00  0.00    +0.055 C 
ENDBRANCH  15  16
ENDBRANCH  12  15
ENDBRANCH   9  11
ENDBRANCH   7   9
BRANCH   1  20
ATOM     20  C   UNL     1       2.959  -0.336   2.694  0.00  0.00    +0.180 C 
BRANCH  20  28
ATOM     21  C   UNL     1       0.710   1.203  -0.476  0.00  0.00    +0.028 C 
ATOM     22  C   UNL     1       0.948  -0.305  -0.572  0.00  0.00    +0.073 C 
ATOM     23  C   UNL     1       1.713  -0.624  -1.861  0.00  0.00    +0.022 C 
ATOM     24  C   UNL     1       2.070  -2.112  -1.883  0.00  0.00    +0.003 C 
ATOM     25  C   UNL     1       2.973  -2.439  -0.691  0.00  0.00    +0.019 C 
ATOM     26  C   UNL     1       2.223  -2.141   0.611  0.00  0.00    +0.108 C 
ATOM     27  N   UNL     1       1.747  -0.751   0.578  0.00  0.00    -0.298 N 
ATOM     28  C   UNL     1       2.041   0.100   1.581  0.00  0.00    +0.230 C 
ATOM     29  O   UNL     1       1.566   1.216   1.589  0.00  0.00    -0.274 OA
ENDBRANCH  20  28
ENDBRANCH   1  20
TORSDOF 6
