REMARK  Name = ZINC01229210
REMARK  9 active torsions:
REMARK  status: ('A' for Active; 'I' for Inactive)
REMARK    1  A    between atoms: C_1  and  C_2
REMARK    2  A    between atoms: C_2  and  C_3
REMARK    3  A    between atoms: C_3  and  C_4
REMARK    4  A    between atoms: C_5  and  C_23
REMARK    5  A    between atoms: C_17  and  C_21
REMARK    6  A    between atoms: C_18  and  N_20
REMARK    7  A    between atoms: C_23  and  O_25
REMARK    8  A    between atoms: O_25  and  C_26
REMARK    9  A    between atoms: C_26  and  C_27
REMARK                            x       y       z     vdW  Elec       q    Type
REMARK                         _______ _______ _______ _____ _____    ______ ____
ROOT
ATOM      1  C   UNL     1      -0.126   4.195   0.151  0.00  0.00    +0.119 C 
ATOM      2  C   UNL     1       1.005   3.590   0.541  0.00  0.00    +0.099 C 
ATOM      3  C   UNL     1       1.162   2.102   0.417  0.00  0.00    +0.148 C 
ATOM      4  C   UNL     1       2.097   1.762  -0.717  0.00  0.00    -0.000 A 
ATOM      5  C   UNL     1       2.055   1.998  -2.073  0.00  0.00    +0.022 A 
ATOM      6  C   UNL     1       3.086   1.555  -2.884  0.00  0.00    +0.018 A 
ATOM      7  C   UNL     1       4.157   0.877  -2.327  0.00  0.00    +0.017 A 
ATOM      8  C   UNL     1       4.202   0.641  -0.969  0.00  0.00    +0.025 A 
ATOM      9  C   UNL     1       3.168   1.083  -0.146  0.00  0.00    +0.038 A 
ATOM     10  N   UNL     1       2.986   0.969   1.234  0.00  0.00    -0.284 N 
ATOM     11  C   UNL     1       1.838   1.538   1.643  0.00  0.00    +0.238 C 
ATOM     12  O   UNL     1       1.425   1.588   2.783  0.00  0.00    -0.274 OA
ATOM     13 BR   UNL     1       3.032   1.876  -4.746  0.00  0.00    -0.050 Br
ATOM     14  C   UNL     1      -0.174   1.448   0.208  0.00  0.00    +0.110 C 
ATOM     15  C   UNL     1      -1.247   2.186  -0.171  0.00  0.00    +0.199 C 
ATOM     16  O   UNL     1      -1.159   3.514  -0.365  0.00  0.00    -0.445 OA
ATOM     17  H   UNL     1       3.615   0.530   1.828  0.00  0.00    +0.155 HD
ENDROOT
BRANCH  15  18
ATOM     18  N   UNL     1      -2.456   1.562  -0.356  0.00  0.00    -0.328 N 
ATOM     19  H   UNL     1      -2.534   0.606  -0.216  0.00  0.00    +0.145 HD
ATOM     20  H   UNL     1      -3.232   2.078  -0.627  0.00  0.00    +0.145 HD
ENDBRANCH  15  18
BRANCH  14  21
ATOM     21  C   UNL     1      -0.315   0.037   0.405  0.00  0.00    +0.102 C 
ATOM     22  N   UNL     1      -0.426  -1.083   0.561  0.00  0.00    -0.191 NA
ENDBRANCH  14  21
BRANCH   2  23
ATOM     23  C   UNL     1       2.064   4.363   1.076  0.00  0.00    +0.340 C 
ATOM     24  O   UNL     1       1.898   5.546   1.305  0.00  0.00    -0.245 OA
BRANCH  23  25
ATOM     25  O   UNL     1       3.257   3.787   1.333  0.00  0.00    -0.462 OA
BRANCH  25  26
ATOM     26  C   UNL     1       4.279   4.627   1.873  0.00  0.00    +0.229 C 
ATOM     27  C   UNL     1       5.550   3.804   2.096  0.00  0.00    +0.048 C 
ENDBRANCH  25  26
ENDBRANCH  23  25
ENDBRANCH   2  23
BRANCH   1  28
ATOM     28  C   UNL     1      -0.240   5.690   0.298  0.00  0.00    +0.075 C 
BRANCH  28  30
ATOM     29  C   UNL     1      -0.770   7.551   1.879  0.00  0.00    +0.004 C 
ATOM     30  C   UNL     1      -0.655   6.032   1.730  0.00  0.00    +0.004 C 
ENDBRANCH  28  30
ENDBRANCH   1  28
TORSDOF 7
