REMARK  Name = ZINC15914519
REMARK  13 active torsions:
REMARK  status: ('A' for Active; 'I' for Inactive)
REMARK    1  A    between atoms: C_1  and  C_2
REMARK    2  A    between atoms: C_2  and  O_3
REMARK    3  A    between atoms: O_3  and  C_4
REMARK    4  A    between atoms: C_7  and  C_10
REMARK    5  A    between atoms: N_12  and  N_13
REMARK    6  A    between atoms: C_14  and  C_16
REMARK    7  A    between atoms: C_16  and  C_18
REMARK    8  A    between atoms: C_16  and  N_22
REMARK    9  A    between atoms: C_18  and  C_19
REMARK   10  A    between atoms: C_19  and  S_20
REMARK   11  A    between atoms: S_20  and  C_21
REMARK   12  A    between atoms: C_23  and  C_25
REMARK   13  A    between atoms: C_29  and  N_31
REMARK                            x       y       z     vdW  Elec       q    Type
REMARK                         _______ _______ _______ _____ _____    ______ ____
ROOT
ATOM      1  C   UNL     1      -1.413  -2.063   0.004  0.00  0.00    +0.161 C 
ENDROOT
BRANCH   1   3
ATOM      2  N   UNL     1      -3.552  -2.276   1.227  0.00  0.00    -0.233 N 
ATOM      3  C   UNL     1      -2.820  -2.586   0.139  0.00  0.00    +0.249 C 
ATOM      4  O   UNL     1      -3.293  -3.285  -0.732  0.00  0.00    -0.272 OA
ATOM      5  H   UNL     1      -3.174  -1.717   1.923  0.00  0.00    +0.173 HD
BRANCH   2   8
ATOM      6  C   UNL     1      -5.593  -2.452   2.440  0.00  0.00    +0.260 C 
ATOM      7  O   UNL     1      -5.119  -1.751   3.313  0.00  0.00    -0.269 OA
ATOM      8  N   UNL     1      -4.861  -2.761   1.352  0.00  0.00    -0.230 N 
ATOM      9  H   UNL     1      -5.239  -3.321   0.655  0.00  0.00    +0.173 HD
BRANCH   6  13
ATOM     10  C   UNL     1      -9.559  -3.923   2.819  0.00  0.00    +0.121 A 
ATOM     11  C   UNL     1      -9.018  -3.123   3.818  0.00  0.00    +0.046 A 
ATOM     12  C   UNL     1      -7.733  -2.643   3.699  0.00  0.00    +0.016 A 
ATOM     13  C   UNL     1      -6.972  -2.963   2.572  0.00  0.00    +0.038 A 
ATOM     14  C   UNL     1      -7.521  -3.764   1.567  0.00  0.00    +0.016 A 
ATOM     15  C   UNL     1      -8.805  -4.244   1.696  0.00  0.00    +0.046 A 
BRANCH  10  16
ATOM     16  O   UNL     1     -10.826  -4.394   2.940  0.00  0.00    -0.492 OA
BRANCH  16  18
ATOM     17  C   UNL     1     -12.753  -5.644   2.189  0.00  0.00    +0.048 C 
ATOM     18  C   UNL     1     -11.319  -5.211   1.877  0.00  0.00    +0.225 C 
ENDBRANCH  16  18
ENDBRANCH  10  16
ENDBRANCH   6  13
ENDBRANCH   2   8
ENDBRANCH   1   3
BRANCH   1  19
ATOM     19  N   UNL     1      -0.834  -2.537  -1.256  0.00  0.00    -0.300 N 
ATOM     20  C   UNL     1       0.503  -2.647  -1.384  0.00  0.00    +0.245 C 
ATOM     21  O   UNL     1       1.229  -2.353  -0.454  0.00  0.00    -0.270 OA
ATOM     22  H   UNL     1      -1.414  -2.772  -1.997  0.00  0.00    +0.150 HD
BRANCH  20  23
ATOM     23  C   UNL     1       1.086  -3.125  -2.655  0.00  0.00    +0.039 A 
ATOM     24  C   UNL     1       0.255  -3.469  -3.723  0.00  0.00    +0.014 A 
ATOM     25  C   UNL     1       0.805  -3.908  -4.908  0.00  0.00    +0.023 A 
ATOM     26  C   UNL     1       2.179  -4.021  -5.037  0.00  0.00    +0.071 A 
ATOM     27  C   UNL     1       3.009  -3.687  -3.979  0.00  0.00    +0.145 A 
ATOM     28  C   UNL     1       2.471  -3.240  -2.791  0.00  0.00    +0.047 A 
ATOM     29 CL   UNL     1       2.865  -4.582  -6.530  0.00  0.00    -0.081 Cl
BRANCH  27  30
ATOM     30  N   UNL     1       4.477  -3.809  -4.125  0.00  0.00    +0.058 N 
ATOM     31  O   UNL     1       5.208  -3.515  -3.196  0.00  0.00    -0.126 OA
ATOM     32  O   UNL     1       4.954  -4.203  -5.174  0.00  0.00    -0.126 OA
ENDBRANCH  27  30
ENDBRANCH  20  23
ENDBRANCH   1  19
BRANCH   1  33
ATOM     33  C   UNL     1      -1.433  -0.534   0.013  0.00  0.00    +0.042 C 
BRANCH  33  34
ATOM     34  C   UNL     1       0.002  -0.004   0.002  0.00  0.00    +0.071 C 
BRANCH  34  35
ATOM     35  S   UNL     1      -0.022   1.810   0.012  0.00  0.00    -0.164 S 
ATOM     36  C   UNL     1       1.731   2.272  -0.002  0.00  0.00    +0.084 C 
ENDBRANCH  34  35
ENDBRANCH  33  34
ENDBRANCH   1  33
TORSDOF 11
