REMARK  Name = ZINC59005539
REMARK  11 active torsions:
REMARK  status: ('A' for Active; 'I' for Inactive)
REMARK    1  A    between atoms: C_1  and  C_2
REMARK    2  A    between atoms: C_2  and  N_3
REMARK    3  A    between atoms: N_3  and  C_4
REMARK    4  A    between atoms: N_3  and  C_6
REMARK    5  A    between atoms: C_4  and  C_5
REMARK    6  A    between atoms: C_9  and  C_12
REMARK    7  A    between atoms: N_13  and  N_14
REMARK    8  A    between atoms: C_17  and  S_20
REMARK    9  A    between atoms: S_20  and  C_21
REMARK   10  A    between atoms: C_21  and  C_22
REMARK   11  A    between atoms: C_22  and  C_24
REMARK                            x       y       z     vdW  Elec       q    Type
REMARK                         _______ _______ _______ _____ _____    ______ ____
ROOT
ATOM      1  N   UNL     1      -5.833  -2.218   6.145  0.00  0.00    -0.205 N 
ATOM      2  C   UNL     1      -7.128  -2.702   6.155  0.00  0.00    +0.232 A 
ATOM      3  N   UNL     1      -7.861  -2.974   5.095  0.00  0.00    -0.186 NA
ATOM      4  C   UNL     1      -9.060  -3.424   5.481  0.00  0.00    +0.210 A 
ATOM      5  N   UNL     1      -9.107  -3.443   6.792  0.00  0.00    -0.144 NA
ATOM      6  N   UNL     1      -7.862  -2.983   7.253  0.00  0.00    -0.245 N 
ATOM      7  H   UNL     1      -5.372  -2.051   6.982  0.00  0.00    +0.177 HD
ATOM      8  H   UNL     1      -7.585  -2.886   8.177  0.00  0.00    +0.192 HD
ENDROOT
BRANCH   1  10
ATOM      9  C   UNL     1      -3.972  -1.514   4.918  0.00  0.00    +0.138 C 
ATOM     10  N   UNL     1      -5.188  -1.969   4.927  0.00  0.00    -0.188 NA
BRANCH   9  14
ATOM     11  C   UNL     1      -2.015  -0.759   1.226  0.00  0.00    +0.030 A 
ATOM     12  C   UNL     1      -1.352  -0.519   2.424  0.00  0.00    +0.024 A 
ATOM     13  C   UNL     1      -1.983  -0.763   3.624  0.00  0.00    +0.011 A 
ATOM     14  C   UNL     1      -3.293  -1.252   3.636  0.00  0.00    -0.005 A 
ATOM     15  C   UNL     1      -3.956  -1.492   2.429  0.00  0.00    +0.011 A 
ATOM     16  C   UNL     1      -3.320  -1.240   1.234  0.00  0.00    +0.024 A 
BRANCH  11  17
ATOM     17  N   UNL     1      -1.372  -0.511   0.012  0.00  0.00    -0.330 N 
BRANCH  17  19
ATOM     18  C   UNL     1      -0.019   1.526   0.010  0.00  0.00    +0.024 C 
ATOM     19  C   UNL     1       0.002  -0.004   0.002  0.00  0.00    +0.102 C 
ENDBRANCH  17  19
BRANCH  17  20
ATOM     20  C   UNL     1      -2.072  -0.758  -1.251  0.00  0.00    +0.102 C 
ATOM     21  C   UNL     1      -1.816  -2.197  -1.703  0.00  0.00    +0.024 C 
ENDBRANCH  17  20
ENDBRANCH  11  17
ENDBRANCH   9  14
ENDBRANCH   1  10
BRANCH   4  22
ATOM     22  S   UNL     1     -10.366  -3.910   4.403  0.00  0.00    -0.076 S 
BRANCH  22  23
ATOM     23  C   UNL     1     -11.699  -4.411   5.527  0.00  0.00    +0.157 C 
BRANCH  23  24
ATOM     24  C   UNL     1     -12.893  -4.856   4.723  0.00  0.00    +0.173 C 
ATOM     25  O   UNL     1     -12.849  -4.838   3.510  0.00  0.00    -0.291 OA
BRANCH  24  26
ATOM     26  C   UNL     1     -14.110  -5.313   5.406  0.00  0.00    +0.022 A 
ATOM     27  C   UNL     1     -14.165  -5.330   6.805  0.00  0.00    +0.015 A 
ATOM     28  C   UNL     1     -15.307  -5.758   7.443  0.00  0.00    +0.050 A 
ATOM     29  C   UNL     1     -16.408  -6.175   6.705  0.00  0.00    +0.166 A 
ATOM     30  C   UNL     1     -16.360  -6.161   5.309  0.00  0.00    +0.167 A 
ATOM     31  C   UNL     1     -15.221  -5.727   4.662  0.00  0.00    +0.061 A 
ATOM     32  O   UNL     1     -17.556  -6.612   4.829  0.00  0.00    -0.453 OA
ATOM     33  C   UNL     1     -18.184  -7.287   5.935  0.00  0.00    +0.466 C 
ATOM     34  O   UNL     1     -17.631  -6.634   7.093  0.00  0.00    -0.453 OA
ENDBRANCH  24  26
ENDBRANCH  23  24
ENDBRANCH  22  23
ENDBRANCH   4  22
TORSDOF 9
