REMARK  Name = ZINC03604153
REMARK  11 active torsions:
REMARK  status: ('A' for Active; 'I' for Inactive)
REMARK    1  A    between atoms: C_2  and  C_3
REMARK    2  A    between atoms: C_3  and  N_4
REMARK    3  A    between atoms: C_5  and  C_26
REMARK    4  A    between atoms: C_8  and  S_9
REMARK    5  A    between atoms: S_9  and  C_10
REMARK    6  A    between atoms: C_10  and  C_11
REMARK    7  A    between atoms: N_13  and  C_14
REMARK    8  A    between atoms: C_14  and  C_15
REMARK    9  A    between atoms: C_15  and  C_16
REMARK   10  A    between atoms: C_19  and  S_22
REMARK   11  A    between atoms: S_22  and  N_25
REMARK                            x       y       z     vdW  Elec       q    Type
REMARK                         _______ _______ _______ _____ _____    ______ ____
ROOT
ATOM      1  C   UNL     1       1.301   6.475   2.458  0.00  0.00    +0.223 C 
ATOM      2  O   UNL     1       2.123   6.467   1.566  0.00  0.00    -0.275 OA
ATOM      3  N   UNL     1       1.232   7.524   3.302  0.00  0.00    -0.314 N 
ATOM      4  H   UNL     1       0.575   7.530   4.016  0.00  0.00    +0.149 HD
ENDROOT
BRANCH   1   5
ATOM      5  C   UNL     1       0.357   5.312   2.624  0.00  0.00    +0.173 C 
BRANCH   5   6
ATOM      6  S   UNL     1       0.697   4.074   1.348  0.00  0.00    -0.077 S 
BRANCH   6  11
ATOM      7  N   UNL     1      -0.728   1.677   1.127  0.00  0.00    -0.298 N 
ATOM      8  C   UNL     1      -1.760   1.070   1.805  0.00  0.00    +0.165 A 
ATOM      9  N   UNL     1      -2.112   1.880   2.776  0.00  0.00    -0.128 NA
ATOM     10  N   UNL     1      -1.381   2.937   2.752  0.00  0.00    -0.122 NA
ATOM     11  C   UNL     1      -0.514   2.864   1.767  0.00  0.00    +0.193 A 
BRANCH   8  12
ATOM     12  C   UNL     1      -2.359  -0.247   1.498  0.00  0.00    +0.019 A 
ATOM     13  C   UNL     1      -2.195  -0.814   0.233  0.00  0.00    +0.013 A 
ATOM     14  C   UNL     1      -2.752  -2.044  -0.045  0.00  0.00    +0.021 A 
ATOM     15  C   UNL     1      -3.482  -2.712   0.923  0.00  0.00    +0.041 A 
ATOM     16  C   UNL     1      -3.653  -2.152   2.178  0.00  0.00    +0.021 A 
ATOM     17  C   UNL     1      -3.096  -0.925   2.470  0.00  0.00    +0.013 A 
ATOM     18 CL   UNL     1      -4.185  -4.258   0.563  0.00  0.00    -0.084 Cl
ENDBRANCH   8  12
BRANCH   7  19
ATOM     19  C   UNL     1      -0.005   1.155  -0.036  0.00  0.00    +0.152 C 
BRANCH  19  21
ATOM     20  C   UNL     1      -0.984   0.916  -2.260  0.00  0.00    +0.005 C 
ATOM     21  C   UNL     1      -0.607   1.720  -1.297  0.00  0.00    -0.013 C 
ENDBRANCH  19  21
ENDBRANCH   7  19
ENDBRANCH   6  11
ENDBRANCH   5   6
ENDBRANCH   1   5
BRANCH   3  22
ATOM     22  C   UNL     1       2.150   8.655   3.141  0.00  0.00    +0.109 C 
BRANCH  22  23
ATOM     23  C   UNL     1       1.863   9.702   4.220  0.00  0.00    +0.054 C 
BRANCH  23  24
ATOM     24  C   UNL     1       2.807  10.865   4.054  0.00  0.00    -0.046 A 
ATOM     25  C   UNL     1       4.023  10.866   4.711  0.00  0.00    +0.005 A 
ATOM     26  C   UNL     1       4.891  11.931   4.556  0.00  0.00    +0.029 A 
ATOM     27  C   UNL     1       4.539  12.998   3.751  0.00  0.00    +0.105 A 
ATOM     28  C   UNL     1       3.320  12.999   3.099  0.00  0.00    +0.029 A 
ATOM     29  C   UNL     1       2.454  11.932   3.250  0.00  0.00    +0.005 A 
BRANCH  27  30
ATOM     30  S   UNL     1       5.643  14.357   3.557  0.00  0.00    +0.056 S 
ATOM     31  O   UNL     1       6.946  13.865   3.838  0.00  0.00    -0.153 OA
ATOM     32  O   UNL     1       5.312  14.976   2.321  0.00  0.00    -0.153 OA
BRANCH  30  33
ATOM     33  N   UNL     1       5.285  15.453   4.746  0.00  0.00    -0.204 NA
ATOM     34  H   UNL     1       4.572  15.268   5.378  0.00  0.00    +0.144 HD
ATOM     35  H   UNL     1       5.787  16.280   4.811  0.00  0.00    +0.144 HD
ENDBRANCH  30  33
ENDBRANCH  27  30
ENDBRANCH  23  24
ENDBRANCH  22  23
ENDBRANCH   3  22
TORSDOF 11
