REMARK  Name = ZINC31744149
REMARK  7 active torsions:
REMARK  status: ('A' for Active; 'I' for Inactive)
REMARK    1  A    between atoms: C_3  and  S_22
REMARK    2  A    between atoms: C_6  and  C_7
REMARK    3  A    between atoms: C_8  and  C_9
REMARK    4  A    between atoms: N_11  and  C_12
REMARK    5  A    between atoms: C_16  and  N_18
REMARK    6  A    between atoms: S_22  and  N_25
REMARK    7  A    between atoms: N_25  and  C_26
REMARK                            x       y       z     vdW  Elec       q    Type
REMARK                         _______ _______ _______ _____ _____    ______ ____
ROOT
ATOM      1  C   UNL     1       5.981   1.765  -0.359  0.00  0.00    +0.013 C 
ATOM      2  C   UNL     1       4.826   1.077  -0.250  0.00  0.00    +0.068 C 
ENDROOT
BRANCH   1   8
ATOM      3  C   UNL     1       7.279  -0.354  -0.488  0.00  0.00    +0.010 A 
ATOM      4  C   UNL     1       8.478  -1.022  -0.613  0.00  0.00    +0.029 A 
ATOM      5  C   UNL     1       9.661  -0.312  -0.725  0.00  0.00    +0.105 A 
ATOM      6  C   UNL     1       9.649   1.072  -0.718  0.00  0.00    +0.029 A 
ATOM      7  C   UNL     1       8.457   1.754  -0.600  0.00  0.00    +0.010 A 
ATOM      8  C   UNL     1       7.258   1.044  -0.486  0.00  0.00    -0.025 A 
BRANCH   5   9
ATOM      9  S   UNL     1      11.190  -1.175  -0.876  0.00  0.00    +0.059 S 
ATOM     10  O   UNL     1      10.883  -2.457  -1.404  0.00  0.00    -0.153 OA
ATOM     11  O   UNL     1      12.097  -0.286  -1.513  0.00  0.00    -0.153 OA
BRANCH   9  12
ATOM     12  N   UNL     1      11.767  -1.421   0.657  0.00  0.00    -0.187 NA
ATOM     13  H   UNL     1      12.606  -0.809   1.020  0.00  0.00    +0.148 HD
BRANCH  12  14
ATOM     14  C   UNL     1      11.032  -2.282   1.587  0.00  0.00    +0.077 C 
ATOM     15  C   UNL     1      11.069  -1.913   3.071  0.00  0.00    +0.022 C 
ATOM     16  C   UNL     1      11.851  -3.127   2.565  0.00  0.00    +0.022 C 
ENDBRANCH  12  14
ENDBRANCH   9  12
ENDBRANCH   5   9
ENDBRANCH   1   8
BRANCH   2  17
ATOM     17  C   UNL     1       3.556   1.793  -0.124  0.00  0.00    +0.241 C 
ATOM     18  O   UNL     1       3.542   3.010  -0.117  0.00  0.00    -0.270 OA
ATOM     19  N   UNL     1       2.402   1.105  -0.015  0.00  0.00    -0.282 N 
ATOM     20  H   UNL     1       2.421   0.008   0.056  0.00  0.00    +0.155 HD
BRANCH  19  21
ATOM     21  C   UNL     1       1.181   1.788   0.009  0.00  0.00    +0.036 A 
ATOM     22  C   UNL     1       0.058   1.225  -0.586  0.00  0.00    +0.026 A 
ATOM     23  C   UNL     1      -1.146   1.899  -0.561  0.00  0.00    +0.042 A 
ATOM     24  C   UNL     1      -1.236   3.136   0.056  0.00  0.00    +0.154 A 
ATOM     25  C   UNL     1      -0.120   3.697   0.653  0.00  0.00    +0.163 A 
ATOM     26  C   UNL     1       1.088   3.028   0.626  0.00  0.00    +0.059 A 
ATOM     27  F   UNL     1      -2.416   3.794   0.079  0.00  0.00    -0.203 F 
BRANCH  25  28
ATOM     28  N   UNL     1      -0.220   5.016   1.317  0.00  0.00    +0.059 N 
ATOM     29  O   UNL     1       0.763   5.511   1.838  0.00  0.00    -0.126 OA
ATOM     30  O   UNL     1      -1.285   5.606   1.341  0.00  0.00    -0.126 OA
ENDBRANCH  25  28
ENDBRANCH  19  21
ENDBRANCH   2  17
TORSDOF 7
