REMARK  Name = ZINC59461844
REMARK  8 active torsions:
REMARK  status: ('A' for Active; 'I' for Inactive)
REMARK    1  A    between atoms: C_1  and  C_2
REMARK    2  A    between atoms: C_3  and  C_22
REMARK    3  A    between atoms: C_9  and  C_12
REMARK    4  A    between atoms: C_16  and  N_18
REMARK    5  A    between atoms: C_22  and  C_24
REMARK    6  A    between atoms: C_22  and  C_31
REMARK    7  A    between atoms: C_31  and  C_33
REMARK    8  A    between atoms: C_31  and  C_35
REMARK                            x       y       z     vdW  Elec       q    Type
REMARK                         _______ _______ _______ _____ _____    ______ ____
ROOT
ATOM      1  C   UNL     1       0.013   1.444   0.857  0.00  0.00    +0.065 C 
ATOM      2  C   UNL     1      -0.758   1.560  -0.432  0.00  0.00    +0.039 A 
ATOM      3  C   UNL     1      -0.975   2.699  -1.122  0.00  0.00    +0.048 A 
ATOM      4  C   UNL     1      -1.737   2.379  -2.269  0.00  0.00    +0.277 A 
ATOM      5  N   UNL     1      -1.967   1.050  -2.249  0.00  0.00    -0.194 N 
ATOM      6  N   UNL     1      -1.352   0.529  -1.103  0.00  0.00    -0.292 N 
ATOM      7  C   UNL     1      -2.680   0.328  -3.197  0.00  0.00    +0.196 A 
ATOM      8  N   UNL     1      -2.945  -0.965  -3.236  0.00  0.00    -0.221 NA
ATOM      9  C   UNL     1      -3.649  -1.493  -4.226  0.00  0.00    +0.081 A 
ATOM     10  C   UNL     1      -4.109  -0.684  -5.228  0.00  0.00    +0.077 A 
ATOM     11  S   UNL     1      -3.489   0.902  -4.683  0.00  0.00    -0.056 S 
ATOM     12  O   UNL     1      -2.119   3.162  -3.120  0.00  0.00    -0.265 OA
ATOM     13  H   UNL     1      -1.349  -0.403  -0.833  0.00  0.00    +0.187 HD
ENDROOT
BRANCH   9  14
ATOM     14  C   UNL     1      -3.934  -2.948  -4.249  0.00  0.00    +0.003 A 
ATOM     15  C   UNL     1      -4.670  -3.501  -5.297  0.00  0.00    +0.010 A 
ATOM     16  C   UNL     1      -4.931  -4.855  -5.313  0.00  0.00    +0.003 A 
ATOM     17  C   UNL     1      -4.466  -5.665  -4.292  0.00  0.00    +0.033 A 
ATOM     18  C   UNL     1      -3.737  -5.122  -3.250  0.00  0.00    +0.127 A 
ATOM     19  C   UNL     1      -3.463  -3.769  -3.226  0.00  0.00    +0.042 A 
BRANCH  18  20
ATOM     20  N   UNL     1      -3.243  -5.995  -2.161  0.00  0.00    +0.056 N 
ATOM     21  O   UNL     1      -3.477  -7.180  -2.183  0.00  0.00    -0.126 OA
ATOM     22  O   UNL     1      -2.605  -5.521  -1.249  0.00  0.00    -0.126 OA
ENDBRANCH  18  20
ENDBRANCH   9  14
BRANCH   3  23
ATOM     23  C   UNL     1      -0.489   4.072  -0.737  0.00  0.00    +0.082 C 
BRANCH  23  24
ATOM     24  C   UNL     1      -1.671   4.956  -0.432  0.00  0.00    -0.038 A 
ATOM     25  C   UNL     1      -2.472   5.418  -1.460  0.00  0.00    +0.006 A 
ATOM     26  C   UNL     1      -3.557   6.228  -1.181  0.00  0.00    +0.020 A 
ATOM     27  C   UNL     1      -3.841   6.577   0.128  0.00  0.00    +0.041 A 
ATOM     28  C   UNL     1      -3.039   6.114   1.156  0.00  0.00    +0.020 A 
ATOM     29  C   UNL     1      -1.958   5.300   0.876  0.00  0.00    +0.006 A 
ATOM     30 CL   UNL     1      -5.202   7.595   0.479  0.00  0.00    -0.084 Cl
ENDBRANCH  23  24
BRANCH  23  31
ATOM     31  C   UNL     1       0.311   4.673  -1.894  0.00  0.00    +0.189 C 
BRANCH  31  32
ATOM     32  C   UNL     1       1.494   3.789  -2.199  0.00  0.00    +0.228 C 
ATOM     33  O   UNL     1       2.619   4.232  -2.112  0.00  0.00    -0.275 OA
ATOM     34  N   UNL     1       1.300   2.508  -2.568  0.00  0.00    -0.328 N 
ATOM     35  H   UNL     1       0.399   2.154  -2.637  0.00  0.00    +0.145 HD
ATOM     36  H   UNL     1       2.060   1.939  -2.764  0.00  0.00    +0.145 HD
ENDBRANCH  31  32
BRANCH  31  37
ATOM     37  C   UNL     1       0.786   6.015  -1.518  0.00  0.00    +0.076 C 
ATOM     38  N   UNL     1       1.152   7.050  -1.228  0.00  0.00    -0.196 NA
ENDBRANCH  31  37
ENDBRANCH  23  31
ENDBRANCH   3  23
TORSDOF 7
