REMARK  Name = ZINC10346536
REMARK  10 active torsions:
REMARK  status: ('A' for Active; 'I' for Inactive)
REMARK    1  A    between atoms: C_1  and  C_2
REMARK    2  A    between atoms: C_2  and  O_3
REMARK    3  A    between atoms: O_3  and  C_4
REMARK    4  A    between atoms: C_9  and  N_10
REMARK    5  A    between atoms: C_11  and  C_13
REMARK    6  A    between atoms: C_13  and  O_14
REMARK    7  A    between atoms: O_14  and  C_15
REMARK    8  A    between atoms: C_18  and  N_22
REMARK    9  A    between atoms: C_19  and  C_21
REMARK   10  A    between atoms: C_26  and  C_29
REMARK                            x       y       z     vdW  Elec       q    Type
REMARK                         _______ _______ _______ _____ _____    ______ ____
ROOT
ATOM      1  N   UNL     1      -1.613   1.897  -0.211  0.00  0.00    -0.280 N 
ATOM      2  C   UNL     1      -1.625   3.068   0.456  0.00  0.00    +0.255 C 
ATOM      3  O   UNL     1      -0.591   3.527   0.893  0.00  0.00    -0.272 OA
ATOM      4  H   UNL     1      -2.430   1.556  -0.607  0.00  0.00    +0.155 HD
ENDROOT
BRANCH   1  10
ATOM      5  C   UNL     1      -0.451  -0.221  -0.341  0.00  0.00    +0.142 A 
ATOM      6  C   UNL     1       0.732  -0.931  -0.471  0.00  0.00    +0.055 A 
ATOM      7  C   UNL     1       1.930  -0.260  -0.593  0.00  0.00    +0.001 A 
ATOM      8  C   UNL     1       1.975   1.129  -0.580  0.00  0.00    +0.126 A 
ATOM      9  C   UNL     1       0.786   1.842  -0.452  0.00  0.00    +0.073 A 
ATOM     10  C   UNL     1      -0.420   1.172  -0.333  0.00  0.00    +0.079 A 
ATOM     11  O   UNL     1       3.254   1.582  -0.698  0.00  0.00    -0.488 OA
ATOM     12  C   UNL     1       4.079   0.535  -1.237  0.00  0.00    +0.175 C 
ATOM     13  C   UNL     1       3.355  -0.748  -0.766  0.00  0.00    +0.083 C 
ATOM     14  C   UNL     1       4.115   0.607  -2.765  0.00  0.00    +0.052 C 
BRANCH   5  15
ATOM     15  O   UNL     1      -1.635  -0.879  -0.220  0.00  0.00    -0.490 OA
BRANCH  15  17
ATOM     16  C   UNL     1      -3.004  -2.867  -0.090  0.00  0.00    +0.048 C 
ATOM     17  C   UNL     1      -1.587  -2.308  -0.236  0.00  0.00    +0.226 C 
ENDBRANCH  15  17
ENDBRANCH   5  15
ENDBRANCH   1  10
BRANCH   2  18
ATOM     18  C   UNL     1      -2.922   3.806   0.659  0.00  0.00    +0.324 C 
BRANCH  18  19
ATOM     19  O   UNL     1      -2.676   5.010   1.388  0.00  0.00    -0.483 OA
BRANCH  19  20
ATOM     20  C   UNL     1      -3.750   5.798   1.658  0.00  0.00    +0.122 A 
ATOM     21  C   UNL     1      -5.014   5.421   1.229  0.00  0.00    +0.048 A 
ATOM     22  C   UNL     1      -6.104   6.224   1.504  0.00  0.00    +0.036 A 
ATOM     23  C   UNL     1      -5.936   7.403   2.207  0.00  0.00    +0.129 A 
ATOM     24  C   UNL     1      -4.677   7.781   2.636  0.00  0.00    -0.017 A 
ATOM     25  C   UNL     1      -3.584   6.979   2.367  0.00  0.00    +0.051 A 
ATOM     26  C   UNL     1      -4.497   9.066   3.402  0.00  0.00    +0.046 C 
BRANCH  23  27
ATOM     27  N   UNL     1      -7.105   8.261   2.502  0.00  0.00    +0.057 N 
ATOM     28  O   UNL     1      -7.096   8.989   3.479  0.00  0.00    -0.126 OA
ATOM     29  O   UNL     1      -8.077   8.239   1.768  0.00  0.00    -0.126 OA
ENDBRANCH  23  27
ENDBRANCH  19  20
ENDBRANCH  18  19
ENDBRANCH   2  18
TORSDOF 7
