REMARK  Name = ZINC15127354
REMARK  12 active torsions:
REMARK  status: ('A' for Active; 'I' for Inactive)
REMARK    1  A    between atoms: C_1  and  C_2
REMARK    2  A    between atoms: C_2  and  N_3
REMARK    3  A    between atoms: N_3  and  C_4
REMARK    4  A    between atoms: C_7  and  S_23
REMARK    5  A    between atoms: C_9  and  N_10
REMARK    6  A    between atoms: N_10  and  C_11
REMARK    7  A    between atoms: C_11  and  C_12
REMARK    8  A    between atoms: N_14  and  C_15
REMARK    9  A    between atoms: C_18  and  C_22
REMARK   10  A    between atoms: S_23  and  N_26
REMARK   11  A    between atoms: N_26  and  C_27
REMARK   12  A    between atoms: N_26  and  C_28
REMARK                            x       y       z     vdW  Elec       q    Type
REMARK                         _______ _______ _______ _____ _____    ______ ____
ROOT
ATOM      1  C   UNL     1      -0.018   1.383   0.047  0.00  0.00    +0.048 A 
ATOM      2  C   UNL     1       0.000  -0.003   0.050  0.00  0.00    +0.027 A 
ATOM      3  C   UNL     1       1.206  -0.678   0.041  0.00  0.00    +0.030 A 
ATOM      4  C   UNL     1       2.397   0.025   0.029  0.00  0.00    +0.107 A 
ATOM      5  C   UNL     1       2.388   1.407   0.027  0.00  0.00    +0.053 A 
ATOM      6  C   UNL     1       1.183   2.093   0.035  0.00  0.00    +0.051 A 
ENDROOT
BRANCH   4   7
ATOM      7  S   UNL     1       3.930  -0.844   0.018  0.00  0.00    +0.060 S 
ATOM      8  O   UNL     1       4.902   0.041   0.558  0.00  0.00    -0.153 OA
ATOM      9  O   UNL     1       3.674  -2.126   0.574  0.00  0.00    -0.153 OA
BRANCH   7  10
ATOM     10  N   UNL     1       4.342  -1.089  -1.567  0.00  0.00    -0.183 NA
ATOM     11  C   UNL     1       5.149  -0.093  -2.277  0.00  0.00    +0.131 C 
ATOM     12  C   UNL     1       3.899  -2.301  -2.260  0.00  0.00    +0.131 C 
ENDBRANCH   7  10
ENDBRANCH   4   7
BRANCH   1  13
ATOM     13  N   UNL     1      -1.239   2.070   0.051  0.00  0.00    -0.343 N 
ATOM     14  H   UNL     1      -1.250   3.039   0.049  0.00  0.00    +0.146 HD
BRANCH  13  16
ATOM     15  C   UNL     1      -3.674   2.303   0.060  0.00  0.00    +0.024 C 
ATOM     16  C   UNL     1      -2.499   1.322   0.058  0.00  0.00    +0.098 C 
ENDBRANCH  13  16
ENDBRANCH   1  13
BRANCH   6  17
ATOM     17  N   UNL     1       1.171   3.493   0.032  0.00  0.00    -0.334 N 
ATOM     18  H   UNL     1       0.327   3.971   0.038  0.00  0.00    +0.147 HD
BRANCH  17  19
ATOM     19  C   UNL     1       2.434   4.236   0.019  0.00  0.00    +0.198 C 
BRANCH  19  20
ATOM     20  C   UNL     1       2.146   5.715   0.017  0.00  0.00    +0.234 C 
ATOM     21  O   UNL     1       0.999   6.110   0.026  0.00  0.00    -0.274 OA
ATOM     22  N   UNL     1       3.163   6.599   0.006  0.00  0.00    -0.283 N 
ATOM     23  H   UNL     1       4.079   6.286   0.065  0.00  0.00    +0.155 HD
BRANCH  22  24
ATOM     24  C   UNL     1       2.898   7.970  -0.090  0.00  0.00    +0.048 A 
ATOM     25  C   UNL     1       1.767   8.504   0.514  0.00  0.00    +0.024 A 
ATOM     26  C   UNL     1       1.508   9.857   0.418  0.00  0.00    +0.005 A 
ATOM     27  C   UNL     1       2.373  10.681  -0.280  0.00  0.00    -0.049 A 
ATOM     28  C   UNL     1       3.500  10.153  -0.883  0.00  0.00    +0.020 A 
ATOM     29  C   UNL     1       3.768   8.801  -0.786  0.00  0.00    +0.039 A 
ATOM     30 BR   UNL     1       5.312   8.080  -1.605  0.00  0.00    -0.048 Br
ATOM     31  C   UNL     1       2.087  12.157  -0.383  0.00  0.00    +0.044 C 
ENDBRANCH  22  24
ENDBRANCH  19  20
ENDBRANCH  17  19
ENDBRANCH   6  17
TORSDOF 8
