REMARK  Name = ZINC06047142
REMARK  12 active torsions:
REMARK  status: ('A' for Active; 'I' for Inactive)
REMARK    1  A    between atoms: C_1  and  C_2
REMARK    2  A    between atoms: C_2  and  O_3
REMARK    3  A    between atoms: O_3  and  C_4
REMARK    4  A    between atoms: C_4  and  C_6
REMARK    5  A    between atoms: C_7  and  C_29
REMARK    6  A    between atoms: C_8  and  C_24
REMARK    7  A    between atoms: C_10  and  N_11
REMARK    8  A    between atoms: C_12  and  C_14
REMARK    9  A    between atoms: C_17  and  C_23
REMARK   10  A    between atoms: C_18  and  N_20
REMARK   11  A    between atoms: N_26  and  C_27
REMARK   12  A    between atoms: N_26  and  C_28
REMARK                            x       y       z     vdW  Elec       q    Type
REMARK                         _______ _______ _______ _____ _____    ______ ____
ROOT
ATOM      1  C   UNL     1       1.764  -1.299   2.359  0.00  0.00    +0.091 A 
ATOM      2  C   UNL     1       1.002  -1.727   3.438  0.00  0.00    -0.015 A 
ATOM      3  C   UNL     1       1.678  -2.365   4.444  0.00  0.00    +0.079 A 
ATOM      4  S   UNL     1       3.359  -2.352   3.857  0.00  0.00    -0.068 S 
ATOM      5  C   UNL     1       3.136  -1.560   2.392  0.00  0.00    +0.087 A 
ATOM      6  C   UNL     1      -0.486  -1.500   3.500  0.00  0.00    +0.046 C 
ENDROOT
BRANCH   3   7
ATOM      7  C   UNL     1       1.149  -2.920   5.691  0.00  0.00    +0.253 C 
ATOM      8  O   UNL     1      -0.011  -2.720   6.003  0.00  0.00    -0.269 OA
ATOM      9  N   UNL     1       1.946  -3.651   6.495  0.00  0.00    -0.303 N 
ATOM     10  C   UNL     1       1.454  -4.107   7.797  0.00  0.00    +0.132 C 
ATOM     11  C   UNL     1       3.305  -3.991   6.065  0.00  0.00    +0.132 C 
ENDBRANCH   3   7
BRANCH   5  12
ATOM     12  N   UNL     1       4.086  -1.240   1.444  0.00  0.00    -0.275 N 
ATOM     13  C   UNL     1       5.377  -1.573   1.645  0.00  0.00    +0.249 C 
ATOM     14  O   UNL     1       5.704  -2.155   2.660  0.00  0.00    -0.270 OA
ATOM     15  H   UNL     1       3.825  -0.775   0.634  0.00  0.00    +0.156 HD
BRANCH  13  16
ATOM     16  C   UNL     1       6.394  -1.230   0.629  0.00  0.00    +0.039 A 
ATOM     17  C   UNL     1       6.023  -0.556  -0.536  0.00  0.00    +0.013 A 
ATOM     18  C   UNL     1       6.978  -0.239  -1.479  0.00  0.00    +0.006 A 
ATOM     19  C   UNL     1       8.301  -0.587  -1.273  0.00  0.00    -0.020 A 
ATOM     20  C   UNL     1       8.676  -1.255  -0.121  0.00  0.00    +0.130 A 
ATOM     21  C   UNL     1       7.732  -1.573   0.834  0.00  0.00    +0.046 A 
ATOM     22  C   UNL     1       9.339  -0.237  -2.308  0.00  0.00    +0.046 C 
BRANCH  20  23
ATOM     23  N   UNL     1      10.094  -1.624   0.091  0.00  0.00    +0.057 N 
ATOM     24  O   UNL     1      10.372  -2.672   0.625  0.00  0.00    -0.126 OA
ATOM     25  O   UNL     1      10.973  -0.877  -0.270  0.00  0.00    -0.126 OA
ENDBRANCH  20  23
ENDBRANCH  13  16
ENDBRANCH   5  12
BRANCH   1  26
ATOM     26  C   UNL     1       1.150  -0.604   1.223  0.00  0.00    +0.342 C 
ATOM     27  O   UNL     1       0.731  -1.240   0.275  0.00  0.00    -0.245 OA
BRANCH  26  28
ATOM     28  O   UNL     1       1.050   0.741   1.229  0.00  0.00    -0.461 OA
BRANCH  28  30
ATOM     29  C   UNL     1       0.416   2.869   0.277  0.00  0.00    +0.048 C 
ATOM     30  C   UNL     1       0.440   1.351   0.090  0.00  0.00    +0.229 C 
ENDBRANCH  28  30
ENDBRANCH  26  28
ENDBRANCH   1  26
TORSDOF 7
