REMARK  Name = ZINC45402570
REMARK  5 active torsions:
REMARK  status: ('A' for Active; 'I' for Inactive)
REMARK    1  A    between atoms: C_1  and  C_2
REMARK    2  A    between atoms: C_2  and  C_4
REMARK    3  A    between atoms: C_2  and  N_13
REMARK    4  A    between atoms: N_16  and  C_17
REMARK    5  A    between atoms: N_16  and  C_18
REMARK                            x       y       z     vdW  Elec       q    Type
REMARK                         _______ _______ _______ _____ _____    ______ ____
ROOT
ATOM      1  N   UNL     1       0.688  -0.476  -1.203  0.00  0.00    -0.293 N 
ATOM      2  C   UNL     1       2.031  -0.587  -1.215  0.00  0.00    +0.303 C 
ATOM      3  O   UNL     1       2.674  -0.294  -0.225  0.00  0.00    -0.253 OA
ATOM      4  N   UNL     1       2.662  -1.022  -2.324  0.00  0.00    -0.282 N 
ATOM      5  C   UNL     1       1.887  -1.374  -3.517  0.00  0.00    +0.134 C 
ATOM      6  H   UNL     1       0.175  -0.710  -1.993  0.00  0.00    +0.151 HD
ENDROOT
BRANCH   4   7
ATOM      7  C   UNL     1       4.122  -1.142  -2.336  0.00  0.00    +0.108 C 
ATOM      8  C   UNL     1       4.537  -2.595  -2.649  0.00  0.00    +0.032 C 
ATOM      9  C   UNL     1       5.827  -2.401  -3.474  0.00  0.00    +0.037 C 
ATOM     10  C   UNL     1       5.687  -1.036  -4.113  0.00  0.00    -0.042 A 
ATOM     11  C   UNL     1       4.707  -0.310  -3.457  0.00  0.00    -0.024 A 
ATOM     12  C   UNL     1       4.407   0.977  -3.871  0.00  0.00    +0.006 A 
ATOM     13  C   UNL     1       5.084   1.540  -4.936  0.00  0.00    +0.000 A 
ATOM     14  C   UNL     1       6.063   0.818  -5.591  0.00  0.00    +0.000 A 
ATOM     15  C   UNL     1       6.364  -0.471  -5.181  0.00  0.00    +0.004 A 
ENDBRANCH   4   7
BRANCH   1  17
ATOM     16  C   UNL     1      -0.019   1.526   0.010  0.00  0.00    +0.033 C 
ATOM     17  C   UNL     1       0.002  -0.004   0.002  0.00  0.00    +0.102 C 
BRANCH  17  18
ATOM     18  C   UNL     1      -1.412  -0.526   0.013  0.00  0.00    -0.024 A 
ATOM     19  C   UNL     1      -2.140  -0.568  -1.162  0.00  0.00    +0.009 A 
ATOM     20  C   UNL     1      -3.437  -1.046  -1.157  0.00  0.00    +0.050 A 
ATOM     21  C   UNL     1      -4.011  -1.484   0.026  0.00  0.00    +0.166 A 
ATOM     22  C   UNL     1      -3.277  -1.441   1.209  0.00  0.00    +0.167 A 
ATOM     23  C   UNL     1      -1.976  -0.966   1.196  0.00  0.00    +0.055 A 
ATOM     24  O   UNL     1      -4.055  -1.921   2.222  0.00  0.00    -0.453 OA
ATOM     25  C   UNL     1      -5.405  -1.876   1.725  0.00  0.00    +0.466 C 
ATOM     26  O   UNL     1      -5.248  -1.991   0.298  0.00  0.00    -0.453 OA
ENDBRANCH  17  18
ENDBRANCH   1  17
TORSDOF 3
