REMARK  Name = ZINC39989392
REMARK  8 active torsions:
REMARK  status: ('A' for Active; 'I' for Inactive)
REMARK    1  A    between atoms: C_1  and  C_2
REMARK    2  A    between atoms: C_2  and  C_3
REMARK    3  A    between atoms: C_2  and  C_4
REMARK    4  A    between atoms: C_2  and  C_5
REMARK    5  A    between atoms: C_7  and  C_20
REMARK    6  A    between atoms: C_8  and  N_10
REMARK    7  A    between atoms: N_10  and  N_11
REMARK    8  A    between atoms: C_12  and  C_13
REMARK                            x       y       z     vdW  Elec       q    Type
REMARK                         _______ _______ _______ _____ _____    ______ ____
ROOT
ATOM      1  C   UNL     1       0.707  -0.490  -1.238  0.00  0.00    +0.205 A 
ATOM      2  N   UNL     1       1.940  -0.225  -1.548  0.00  0.00    -0.200 NA
ATOM      3  C   UNL     1       2.231  -0.830  -2.734  0.00  0.00    +0.202 A 
ATOM      4  C   UNL     1       1.083  -1.493  -3.136  0.00  0.00    +0.244 A 
ATOM      5  O   UNL     1       0.158  -1.268  -2.184  0.00  0.00    -0.423 OA
ENDROOT
BRANCH   1   7
ATOM      6  C   UNL     1      -0.019   1.526   0.010  0.00  0.00    +0.020 C 
ATOM      7  C   UNL     1       0.002  -0.004   0.002  0.00  0.00    +0.039 C 
ATOM      8  C   UNL     1       0.742  -0.511   1.242  0.00  0.00    +0.020 C 
ATOM      9  C   UNL     1      -1.433  -0.534   0.013  0.00  0.00    +0.020 C 
ENDBRANCH   1   7
BRANCH   4  10
ATOM     10  N   UNL     1       0.922  -2.240  -4.282  0.00  0.00    -0.205 N 
ATOM     11  H   UNL     1       0.070  -2.665  -4.469  0.00  0.00    +0.177 HD
BRANCH  10  12
ATOM     12  N   UNL     1       1.989  -2.388  -5.178  0.00  0.00    -0.188 NA
ATOM     13  C   UNL     1       1.837  -3.092  -6.259  0.00  0.00    +0.138 C 
BRANCH  13  14
ATOM     14  C   UNL     1       2.960  -3.247  -7.202  0.00  0.00    -0.005 A 
ATOM     15  C   UNL     1       4.190  -2.642  -6.933  0.00  0.00    +0.012 A 
ATOM     16  C   UNL     1       5.236  -2.791  -7.819  0.00  0.00    +0.039 A 
ATOM     17  C   UNL     1       5.069  -3.539  -8.973  0.00  0.00    +0.123 A 
ATOM     18  C   UNL     1       3.851  -4.142  -9.245  0.00  0.00    +0.039 A 
ATOM     19  C   UNL     1       2.799  -4.005  -8.365  0.00  0.00    +0.012 A 
ATOM     20  F   UNL     1       6.098  -3.680  -9.838  0.00  0.00    -0.205 F 
ENDBRANCH  13  14
ENDBRANCH  10  12
ENDBRANCH   4  10
BRANCH   3  21
ATOM     21  C   UNL     1       3.482  -0.788  -3.430  0.00  0.00    +0.124 C 
ATOM     22  N   UNL     1       4.474  -0.754  -3.982  0.00  0.00    -0.189 NA
ENDBRANCH   3  21
TORSDOF 5
