REMARK  Name = ZINC09075735
REMARK  9 active torsions:
REMARK  status: ('A' for Active; 'I' for Inactive)
REMARK    1  A    between atoms: C_1  and  C_2
REMARK    2  A    between atoms: C_3  and  C_28
REMARK    3  A    between atoms: C_4  and  C_23
REMARK    4  A    between atoms: C_6  and  C_21
REMARK    5  A    between atoms: C_7  and  S_9
REMARK    6  A    between atoms: S_9  and  C_10
REMARK    7  A    between atoms: C_10  and  C_11
REMARK    8  A    between atoms: N_13  and  C_14
REMARK    9  A    between atoms: N_30  and  C_31
REMARK                            x       y       z     vdW  Elec       q    Type
REMARK                         _______ _______ _______ _____ _____    ______ ____
ROOT
ATOM      1  C   UNL     1       0.080   1.641  -0.634  0.00  0.00    +0.061 C 
ATOM      2  C   UNL     1      -0.525   1.923   0.717  0.00  0.00    +0.015 C 
ATOM      3  C   UNL     1       0.236   1.817   1.818  0.00  0.00    +0.047 C 
ATOM      4  C   UNL     1      -0.317   2.077   3.189  0.00  0.00    +0.134 C 
ATOM      5  C   UNL     1      -1.621   2.819   3.108  0.00  0.00    +0.072 C 
ATOM      6  C   UNL     1      -2.321   2.889   1.944  0.00  0.00    +0.080 C 
ATOM      7  N   UNL     1      -1.841   2.289   0.803  0.00  0.00    -0.312 N 
ATOM      8  H   UNL     1      -2.520   2.103  -0.043  0.00  0.00    +0.152 HD
ENDROOT
BRANCH   4   9
ATOM      9  C   UNL     1      -0.537   0.763   3.893  0.00  0.00    +0.118 A 
ATOM     10  C   UNL     1       0.041   0.381   5.046  0.00  0.00    +0.045 A 
ATOM     11  C   UNL     1      -0.446  -0.913   5.340  0.00  0.00    +0.041 A 
ATOM     12  C   UNL     1      -1.293  -1.245   4.348  0.00  0.00    +0.195 A 
ATOM     13  O   UNL     1      -1.348  -0.224   3.478  0.00  0.00    -0.467 OA
ENDBRANCH   4   9
BRANCH   3  14
ATOM     14  C   UNL     1       1.596   1.450   1.682  0.00  0.00    +0.247 C 
ATOM     15  O   UNL     1       2.083   1.313   0.574  0.00  0.00    -0.270 OA
ATOM     16  N   UNL     1       2.354   1.250   2.779  0.00  0.00    -0.282 N 
ATOM     17  H   UNL     1       1.897   1.298   3.779  0.00  0.00    +0.155 HD
BRANCH  16  18
ATOM     18  C   UNL     1       3.720   0.983   2.647  0.00  0.00    +0.034 A 
ATOM     19  C   UNL     1       4.178   0.208   1.589  0.00  0.00    +0.023 A 
ATOM     20  C   UNL     1       5.529  -0.049   1.458  0.00  0.00    +0.002 A 
ATOM     21  C   UNL     1       6.423   0.455   2.384  0.00  0.00    +0.000 A 
ATOM     22  C   UNL     1       5.970   1.222   3.442  0.00  0.00    +0.002 A 
ATOM     23  C   UNL     1       4.621   1.488   3.575  0.00  0.00    +0.023 A 
ENDBRANCH  16  18
ENDBRANCH   3  14
BRANCH   5  24
ATOM     24  C   UNL     1      -2.137   3.463   4.278  0.00  0.00    +0.098 C 
ATOM     25  N   UNL     1      -2.547   3.975   5.206  0.00  0.00    -0.191 NA
ENDBRANCH   5  24
BRANCH   6  26
ATOM     26  S   UNL     1      -3.852   3.761   1.895  0.00  0.00    -0.100 S 
BRANCH  26  27
ATOM     27  C   UNL     1      -4.296   3.519   0.157  0.00  0.00    +0.171 C 
BRANCH  27  28
ATOM     28  C   UNL     1      -5.611   4.199  -0.125  0.00  0.00    +0.227 C 
ATOM     29  O   UNL     1      -6.191   4.789   0.762  0.00  0.00    -0.275 OA
ATOM     30  N   UNL     1      -6.143   4.151  -1.362  0.00  0.00    -0.284 N 
ATOM     31  H   UNL     1      -5.664   3.543  -2.143  0.00  0.00    +0.155 HD
BRANCH  30  32
ATOM     32  C   UNL     1      -7.305   4.875  -1.653  0.00  0.00    +0.052 A 
ATOM     33  C   UNL     1      -7.666   5.958  -0.862  0.00  0.00    +0.025 A 
ATOM     34  C   UNL     1      -8.810   6.674  -1.155  0.00  0.00    +0.002 A 
ATOM     35  C   UNL     1      -9.602   6.308  -2.228  0.00  0.00    +0.002 A 
ATOM     36  C   UNL     1      -9.248   5.228  -3.015  0.00  0.00    +0.022 A 
ATOM     37  C   UNL     1      -8.102   4.510  -2.731  0.00  0.00    +0.062 A 
ATOM     38 CL   UNL     1      -7.659   3.153  -3.719  0.00  0.00    -0.082 Cl
ENDBRANCH  30  32
ENDBRANCH  27  28
ENDBRANCH  26  27
ENDBRANCH   6  26
TORSDOF 8
