REMARK  Name = ZINC22018042
REMARK  8 active torsions:
REMARK  status: ('A' for Active; 'I' for Inactive)
REMARK    1  A    between atoms: C_4  and  C_7
REMARK    2  A    between atoms: C_7  and  C_21
REMARK    3  A    between atoms: N_8  and  N_9
REMARK    4  A    between atoms: C_10  and  C_12
REMARK    5  A    between atoms: C_15  and  N_18
REMARK    6  A    between atoms: C_21  and  C_22
REMARK    7  A    between atoms: C_22  and  C_24
REMARK    8  A    between atoms: C_22  and  C_35
REMARK                            x       y       z     vdW  Elec       q    Type
REMARK                         _______ _______ _______ _____ _____    ______ ____
ROOT
ATOM      1  C   UNL     1       3.812   1.922   0.988  0.00  0.00    +0.067 C 
ATOM      2  N   UNL     1       4.302   2.718   0.088  0.00  0.00    -0.184 NA
ENDROOT
BRANCH   1   6
ATOM      3  C   UNL     1       5.621  -1.853   1.694  0.00  0.00    +0.000 A 
ATOM      4  C   UNL     1       5.098  -1.131   2.753  0.00  0.00    +0.001 A 
ATOM      5  C   UNL     1       4.509   0.097   2.531  0.00  0.00    +0.010 A 
ATOM      6  C   UNL     1       4.441   0.610   1.234  0.00  0.00    -0.002 A 
ATOM      7  C   UNL     1       4.966  -0.127   0.169  0.00  0.00    +0.010 A 
ATOM      8  C   UNL     1       5.556  -1.350   0.407  0.00  0.00    +0.001 A 
ENDBRANCH   1   6
BRANCH   2   9
ATOM      9  N   UNL     1       5.523   2.412  -0.528  0.00  0.00    -0.203 N 
ATOM     10  C   UNL     1       6.041   3.248  -1.450  0.00  0.00    +0.263 C 
ATOM     11  O   UNL     1       5.449   4.268  -1.746  0.00  0.00    -0.268 OA
ATOM     12  H   UNL     1       6.058   1.489  -0.260  0.00  0.00    +0.178 HD
BRANCH  10  13
ATOM     13  C   UNL     1       7.328   2.926  -2.099  0.00  0.00    +0.038 A 
ATOM     14  C   UNL     1       8.013   1.758  -1.757  0.00  0.00    +0.015 A 
ATOM     15  C   UNL     1       9.212   1.461  -2.371  0.00  0.00    +0.033 A 
ATOM     16  C   UNL     1       9.741   2.322  -3.317  0.00  0.00    +0.126 A 
ATOM     17  C   UNL     1       9.070   3.483  -3.657  0.00  0.00    +0.033 A 
ATOM     18  C   UNL     1       7.867   3.790  -3.054  0.00  0.00    +0.015 A 
BRANCH  16  19
ATOM     19  N   UNL     1      11.031   1.999  -3.967  0.00  0.00    +0.056 N 
ATOM     20  O   UNL     1      11.499   2.755  -4.799  0.00  0.00    -0.126 OA
ATOM     21  O   UNL     1      11.624   0.978  -3.670  0.00  0.00    -0.126 OA
ENDBRANCH  16  19
ENDBRANCH  10  13
ENDBRANCH   2   9
BRANCH   1  22
ATOM     22  C   UNL     1       2.602   2.337   1.784  0.00  0.00    +0.073 C 
BRANCH  22  23
ATOM     23  C   UNL     1       1.432   1.408   1.454  0.00  0.00    +0.117 C 
BRANCH  23  24
ATOM     24  C   UNL     1       0.258   1.746   2.338  0.00  0.00    +0.053 C 
ATOM     25  C   UNL     1       0.108   2.863   3.006  0.00  0.00    +0.083 C 
ATOM     26  N   UNL     1      -1.056   2.921   3.746  0.00  0.00    -0.288 NA
ATOM     27  C   UNL     1      -1.816   1.677   3.558  0.00  0.00    +0.135 C 
ATOM     28  C   UNL     1      -0.931   0.848   2.594  0.00  0.00    +0.049 C 
ATOM     29  C   UNL     1      -0.385  -0.458   3.123  0.00  0.00    -0.020 C 
ATOM     30  C   UNL     1      -0.669  -0.842   4.357  0.00  0.00    -0.004 C 
ATOM     31  C   UNL     1      -1.503  -0.059   5.268  0.00  0.00    -0.002 C 
ATOM     32  C   UNL     1      -2.047   1.101   4.936  0.00  0.00    -0.000 C 
ENDBRANCH  23  24
BRANCH  23  33
ATOM     33  C   UNL     1       1.040   1.585   0.010  0.00  0.00    +0.360 C 
ATOM     34  O   UNL     1       0.126   2.319  -0.283  0.00  0.00    -0.246 OA
ATOM     35  O   UNL     1       1.707   0.928  -0.952  0.00  0.00    -0.246 OA
ENDBRANCH  23  33
ENDBRANCH  22  23
ENDBRANCH   1  22
TORSDOF 8
