REMARK  Name = ZINC52637658
REMARK  8 active torsions:
REMARK  status: ('A' for Active; 'I' for Inactive)
REMARK    1  A    between atoms: C_1  and  C_2
REMARK    2  A    between atoms: C_2  and  C_3
REMARK    3  A    between atoms: C_2  and  S_4
REMARK    4  A    between atoms: S_4  and  N_7
REMARK    5  A    between atoms: C_12  and  C_14
REMARK    6  A    between atoms: C_15  and  C_28
REMARK    7  A    between atoms: C_17  and  C_20
REMARK    8  A    between atoms: C_35  and  N_37
REMARK                            x       y       z     vdW  Elec       q    Type
REMARK                         _______ _______ _______ _____ _____    ______ ____
ROOT
ATOM      1  C   UNL     1       2.166   4.313   3.542  0.00  0.00    +0.093 A 
ATOM      2  C   UNL     1       3.381   4.115   2.907  0.00  0.00    +0.099 A 
ATOM      3  N   UNL     1       3.993   5.307   2.815  0.00  0.00    -0.227 NA
ATOM      4  C   UNL     1       3.234   6.235   3.353  0.00  0.00    +0.145 A 
ATOM      5  N   UNL     1       2.084   5.661   3.813  0.00  0.00    -0.336 N 
ATOM      6  H   UNL     1       1.348   6.117   4.250  0.00  0.00    +0.167 HD
ENDROOT
BRANCH   1  12
ATOM      7  N   UNL     1       0.017  -0.011   2.755  0.00  0.00    -0.154 N 
ATOM      8  C   UNL     1       0.221   1.215   3.389  0.00  0.00    +0.165 A 
ATOM      9  C   UNL     1      -0.701   1.366   4.426  0.00  0.00    +0.072 A 
ATOM     10  C   UNL     1      -0.678   2.524   5.198  0.00  0.00    +0.028 A 
ATOM     11  C   UNL     1       0.264   3.496   4.910  0.00  0.00    +0.032 A 
ATOM     12  C   UNL     1       1.158   3.285   3.859  0.00  0.00    +0.092 A 
ATOM     13  N   UNL     1       1.110   2.167   3.141  0.00  0.00    -0.227 NA
ATOM     14  N   UNL     1      -1.529   0.240   4.495  0.00  0.00    -0.310 N 
ATOM     15  C   UNL     1      -1.105  -0.675   3.428  0.00  0.00    +0.253 C 
ATOM     16  H   UNL     1      -2.251   0.093   5.126  0.00  0.00    +0.149 HD
BRANCH   7  17
ATOM     17  S   UNL     1       0.879  -0.605   1.472  0.00  0.00    +0.052 S 
ATOM     18  O   UNL     1       0.754  -2.017   1.573  0.00  0.00    -0.155 OA
ATOM     19  O   UNL     1       2.152   0.018   1.571  0.00  0.00    -0.155 OA
BRANCH  17  21
ATOM     20  C   UNL     1      -0.019   1.526   0.010  0.00  0.00    +0.033 C 
ATOM     21  C   UNL     1       0.002  -0.004   0.002  0.00  0.00    +0.145 C 
ATOM     22  C   UNL     1       0.718  -0.497  -1.257  0.00  0.00    +0.033 C 
ENDBRANCH  17  21
ENDBRANCH   7  17
BRANCH  15  23
ATOM     23  N   UNL     1      -0.665  -1.953   4.005  0.00  0.00    -0.296 NA
ATOM     24  H   UNL     1      -1.428  -2.421   4.471  0.00  0.00    +0.121 HD
ATOM     25  H   UNL     1      -0.255  -2.546   3.299  0.00  0.00    +0.121 HD
ENDBRANCH  15  23
ENDBRANCH   1  12
BRANCH   4  26
ATOM     26  C   UNL     1       3.569   7.671   3.440  0.00  0.00    +0.087 A 
ATOM     27  C   UNL     1       2.679   8.564   4.043  0.00  0.00    +0.137 A 
ATOM     28  C   UNL     1       3.001   9.906   4.122  0.00  0.00    +0.039 A 
ATOM     29  C   UNL     1       4.198  10.366   3.604  0.00  0.00    +0.006 A 
ATOM     30  C   UNL     1       5.084   9.488   3.005  0.00  0.00    +0.039 A 
ATOM     31  C   UNL     1       4.780   8.142   2.924  0.00  0.00    +0.137 A 
ATOM     32  F   UNL     1       5.648   7.286   2.344  0.00  0.00    -0.205 F 
ATOM     33  F   UNL     1       1.509   8.117   4.549  0.00  0.00    -0.205 F 
ENDBRANCH   4  26
BRANCH   2  34
ATOM     34  C   UNL     1       3.911   2.821   2.419  0.00  0.00    +0.003 A 
ATOM     35  C   UNL     1       3.644   1.645   3.120  0.00  0.00    +0.010 A 
ATOM     36  C   UNL     1       4.140   0.443   2.660  0.00  0.00    +0.001 A 
ATOM     37  C   UNL     1       4.901   0.402   1.505  0.00  0.00    +0.000 A 
ATOM     38  C   UNL     1       5.169   1.564   0.805  0.00  0.00    +0.001 A 
ATOM     39  C   UNL     1       4.674   2.772   1.252  0.00  0.00    +0.010 A 
ENDBRANCH   2  34
TORSDOF 6
