REMARK  Name = ZINC08304113
REMARK  6 active torsions:
REMARK  status: ('A' for Active; 'I' for Inactive)
REMARK    1  A    between atoms: C_3  and  S_22
REMARK    2  A    between atoms: C_6  and  C_7
REMARK    3  A    between atoms: C_7  and  C_8
REMARK    4  A    between atoms: C_8  and  N_9
REMARK    5  A    between atoms: C_10  and  C_12
REMARK    6  A    between atoms: S_22  and  N_25
REMARK                            x       y       z     vdW  Elec       q    Type
REMARK                         _______ _______ _______ _____ _____    ______ ____
ROOT
ATOM      1  C   UNL     1      -3.744  -1.091   0.014  0.00  0.00    +0.109 C 
ENDROOT
BRANCH   1   2
ATOM      2  N   UNL     1      -2.484  -0.343   0.012  0.00  0.00    -0.311 N 
ATOM      3  C   UNL     1      -2.501   1.004   0.019  0.00  0.00    +0.244 C 
ATOM      4  O   UNL     1      -3.561   1.599   0.028  0.00  0.00    -0.270 OA
ATOM      5  H   UNL     1      -1.639  -0.818   0.005  0.00  0.00    +0.149 HD
BRANCH   3   6
ATOM      6  C   UNL     1      -1.231   1.758   0.017  0.00  0.00    +0.042 A 
ATOM      7  C   UNL     1      -1.246   3.155   0.031  0.00  0.00    +0.062 A 
ATOM      8  C   UNL     1      -0.057   3.857   0.024  0.00  0.00    +0.168 A 
ATOM      9  C   UNL     1       1.158   3.171   0.008  0.00  0.00    +0.184 A 
ATOM     10  C   UNL     1       1.172   1.782   0.000  0.00  0.00    +0.087 A 
ATOM     11  C   UNL     1      -0.013   1.076   0.008  0.00  0.00    +0.037 A 
ATOM     12 CL   UNL     1       2.686   0.932  -0.018  0.00  0.00    -0.080 Cl
ATOM     13  O   UNL     1       2.172   4.082   0.003  0.00  0.00    -0.451 OA
ATOM     14  C   UNL     1       1.570   5.327  -0.398  0.00  0.00    +0.466 C 
ATOM     15  O   UNL     1       0.201   5.198   0.028  0.00  0.00    -0.453 OA
ENDBRANCH   3   6
ENDBRANCH   1   2
BRANCH   1  16
ATOM     16  C   UNL     1      -3.446  -2.592   0.004  0.00  0.00    +0.054 C 
BRANCH  16  22
ATOM     17  C   UNL     1      -5.328  -3.725   1.204  0.00  0.00    +0.005 A 
ATOM     18  C   UNL     1      -6.519  -4.427   1.205  0.00  0.00    +0.029 A 
ATOM     19  C   UNL     1      -7.120  -4.773   0.009  0.00  0.00    +0.105 A 
ATOM     20  C   UNL     1      -6.531  -4.413  -1.189  0.00  0.00    +0.029 A 
ATOM     21  C   UNL     1      -5.342  -3.707  -1.190  0.00  0.00    +0.005 A 
ATOM     22  C   UNL     1      -4.742  -3.361   0.006  0.00  0.00    -0.046 A 
BRANCH  19  23
ATOM     23  S   UNL     1      -8.635  -5.671   0.011  0.00  0.00    +0.056 S 
ATOM     24  O   UNL     1      -9.259  -5.412   1.262  0.00  0.00    -0.153 OA
ATOM     25  O   UNL     1      -9.272  -5.397  -1.229  0.00  0.00    -0.153 OA
BRANCH  23  26
ATOM     26  N   UNL     1      -8.250  -7.282  -0.001  0.00  0.00    -0.204 NA
ATOM     27  H   UNL     1      -7.320  -7.558  -0.007  0.00  0.00    +0.144 HD
ATOM     28  H   UNL     1      -8.954  -7.949  -0.001  0.00  0.00    +0.144 HD
ENDBRANCH  23  26
ENDBRANCH  19  23
ENDBRANCH  16  22
ENDBRANCH   1  16
TORSDOF 6
