REMARK  Name = ZINC24660125
REMARK  11 active torsions:
REMARK  status: ('A' for Active; 'I' for Inactive)
REMARK    1  A    between atoms: C_1  and  C_2
REMARK    2  A    between atoms: C_9  and  N_15
REMARK    3  A    between atoms: C_10  and  C_11
REMARK    4  A    between atoms: C_11  and  O_13
REMARK    5  A    between atoms: O_13  and  C_14
REMARK    6  A    between atoms: C_16  and  C_18
REMARK    7  A    between atoms: C_18  and  S_19
REMARK    8  A    between atoms: S_19  and  C_20
REMARK    9  A    between atoms: C_23  and  S_25
REMARK   10  A    between atoms: S_25  and  C_26
REMARK   11  A    between atoms: C_26  and  C_27
REMARK                            x       y       z     vdW  Elec       q    Type
REMARK                         _______ _______ _______ _____ _____    ______ ____
ROOT
ATOM      1  N   UNL     1      -1.503  -2.326  -2.347  0.00  0.00    -0.279 N 
ATOM      2  C   UNL     1      -2.375  -3.194  -2.897  0.00  0.00    +0.228 C 
ATOM      3  O   UNL     1      -2.150  -4.385  -2.859  0.00  0.00    -0.275 OA
ATOM      4  H   UNL     1      -1.707  -1.245  -2.381  0.00  0.00    +0.155 HD
ENDROOT
BRANCH   1  12
ATOM      5  C   UNL     1       4.917  -5.369   0.925  0.00  0.00    +0.008 C 
ATOM      6  C   UNL     1       3.995  -4.427   0.149  0.00  0.00    -0.009 C 
ATOM      7  C   UNL     1       3.658  -3.207   1.011  0.00  0.00    +0.008 C 
ATOM      8  C   UNL     1       2.947  -2.151   0.163  0.00  0.00    +0.037 C 
ATOM      9  C   UNL     1       1.770  -2.805  -0.550  0.00  0.00    -0.021 A 
ATOM     10  C   UNL     1       1.699  -4.146  -0.689  0.00  0.00    -0.004 A 
ATOM     11  S   UNL     1       0.187  -4.432  -1.563  0.00  0.00    -0.077 S 
ATOM     12  C   UNL     1      -0.349  -2.794  -1.738  0.00  0.00    +0.086 A 
ATOM     13  C   UNL     1       0.659  -2.064  -1.123  0.00  0.00    +0.091 A 
ATOM     14  C   UNL     1       2.692  -5.158  -0.204  0.00  0.00    +0.046 C 
BRANCH  13  15
ATOM     15  C   UNL     1       0.601  -0.603  -1.048  0.00  0.00    +0.342 C 
ATOM     16  O   UNL     1       1.094   0.071  -1.932  0.00  0.00    -0.245 OA
BRANCH  15  17
ATOM     17  O   UNL     1       0.002  -0.004   0.002  0.00  0.00    -0.464 OA
ATOM     18  C   UNL     1      -0.018   1.448   0.010  0.00  0.00    +0.280 C 
ENDBRANCH  15  17
ENDBRANCH  13  15
ENDBRANCH   1  12
BRANCH   2  19
ATOM     19  C   UNL     1      -3.630  -2.685  -3.558  0.00  0.00    +0.172 C 
BRANCH  19  20
ATOM     20  S   UNL     1      -4.589  -4.087  -4.196  0.00  0.00    -0.088 S 
BRANCH  20  21
ATOM     21  C   UNL     1      -6.004  -3.336  -4.929  0.00  0.00    +0.160 A 
ATOM     22  N   UNL     1      -6.324  -2.059  -5.014  0.00  0.00    -0.134 NA
ATOM     23  N   UNL     1      -7.492  -1.686  -5.638  0.00  0.00    -0.134 NA
ATOM     24  C   UNL     1      -8.286  -2.607  -6.149  0.00  0.00    +0.160 A 
ATOM     25  S   UNL     1      -7.386  -4.101  -5.764  0.00  0.00    -0.033 S 
BRANCH  24  26
ATOM     26  S   UNL     1      -9.822  -2.414  -6.992  0.00  0.00    -0.088 S 
BRANCH  26  27
ATOM     27  C   UNL     1     -10.090  -0.621  -7.011  0.00  0.00    +0.171 C 
BRANCH  27  28
ATOM     28  C   UNL     1     -11.388  -0.314  -7.712  0.00  0.00    +0.221 C 
ATOM     29  O   UNL     1     -12.065  -1.217  -8.156  0.00  0.00    -0.275 OA
ATOM     30  N   UNL     1     -11.796   0.964  -7.847  0.00  0.00    -0.329 N 
ATOM     31  H   UNL     1     -12.743   1.187  -8.359  0.00  0.00    +0.145 HD
ATOM     32  H   UNL     1     -11.181   1.782  -7.444  0.00  0.00    +0.145 HD
ENDBRANCH  27  28
ENDBRANCH  26  27
ENDBRANCH  24  26
ENDBRANCH  20  21
ENDBRANCH  19  20
ENDBRANCH   2  19
TORSDOF 9
