REMARK  Name = ZINC21622278
REMARK  12 active torsions:
REMARK  status: ('A' for Active; 'I' for Inactive)
REMARK    1  A    between atoms: C_1  and  C_2
REMARK    2  A    between atoms: C_2  and  C_4
REMARK    3  A    between atoms: C_2  and  S_18
REMARK    4  A    between atoms: N_9  and  C_12
REMARK    5  A    between atoms: S_18  and  C_19
REMARK    6  A    between atoms: C_22  and  C_25
REMARK    7  A    between atoms: N_23  and  N_24
REMARK    8  A    between atoms: C_25  and  O_26
REMARK    9  A    between atoms: O_26  and  C_27
REMARK   10  A    between atoms: C_30  and  C_33
REMARK   11  A    between atoms: C_33  and  C_34
REMARK   12  A    between atoms: C_33  and  C_35
REMARK                            x       y       z     vdW  Elec       q    Type
REMARK                         _______ _______ _______ _____ _____    ______ ____
ROOT
ATOM      1  C   UNL     1      -2.364  -0.049  -1.535  0.00  0.00    +0.209 A 
ATOM      2  N   UNL     1      -1.735   0.655  -2.448  0.00  0.00    -0.121 NA
ATOM      3  N   UNL     1      -2.521   0.888  -3.438  0.00  0.00    -0.128 NA
ATOM      4  C   UNL     1      -3.688   0.351  -3.218  0.00  0.00    +0.189 A 
ATOM      5  N   UNL     1      -3.628  -0.269  -2.001  0.00  0.00    -0.225 N 
ENDROOT
BRANCH   5   6
ATOM      6  N   UNL     1      -4.627  -0.964  -1.379  0.00  0.00    -0.295 N 
ATOM      7  H   UNL     1      -5.183  -0.354  -0.799  0.00  0.00    +0.163 HD
ATOM      8  H   UNL     1      -5.203  -1.448  -2.051  0.00  0.00    +0.163 HD
ENDBRANCH   5   6
BRANCH   1   9
ATOM      9  S   UNL     1      -1.699  -0.609  -0.003  0.00  0.00    -0.072 S 
BRANCH   9  11
ATOM     10  C   UNL     1      -0.019   1.549   0.024  0.00  0.00    +0.029 C 
ATOM     11  C   UNL     1       0.003   0.019  -0.006  0.00  0.00    +0.137 C 
BRANCH  11  12
ATOM     12  C   UNL     1       0.731  -0.497   1.207  0.00  0.00    +0.229 C 
ATOM     13  O   UNL     1       0.105  -0.898   2.165  0.00  0.00    -0.274 OA
ATOM     14  N   UNL     1       2.079  -0.512   1.228  0.00  0.00    -0.298 N 
ATOM     15  C   UNL     1       2.850  -0.023   0.077  0.00  0.00    +0.126 C 
ATOM     16  C   UNL     1       3.818   1.064   0.562  0.00  0.00    +0.124 C 
ATOM     17  N   UNL     1       4.542   0.558   1.737  0.00  0.00    -0.327 N 
ATOM     18  C   UNL     1       3.770   0.069   2.888  0.00  0.00    +0.124 C 
ATOM     19  C   UNL     1       2.803  -1.013   2.405  0.00  0.00    +0.126 C 
BRANCH  17  20
ATOM     20  C   UNL     1       5.938   0.542   1.759  0.00  0.00    +0.030 A 
ATOM     21  C   UNL     1       6.657   0.898   0.624  0.00  0.00    +0.023 A 
ATOM     22  C   UNL     1       8.037   0.882   0.649  0.00  0.00    +0.002 A 
ATOM     23  C   UNL     1       8.705   0.511   1.802  0.00  0.00    +0.000 A 
ATOM     24  C   UNL     1       7.993   0.156   2.933  0.00  0.00    +0.002 A 
ATOM     25  C   UNL     1       6.612   0.176   2.917  0.00  0.00    +0.023 A 
ENDBRANCH  17  20
ENDBRANCH  11  12
ENDBRANCH   9  11
ENDBRANCH   1   9
BRANCH   4  26
ATOM     26  C   UNL     1      -4.881   0.401  -4.138  0.00  0.00    +0.306 C 
BRANCH  26  27
ATOM     27  O   UNL     1      -4.847  -0.721  -5.022  0.00  0.00    -0.484 OA
BRANCH  27  28
ATOM     28  C   UNL     1      -5.860  -0.828  -5.923  0.00  0.00    +0.121 A 
ATOM     29  C   UNL     1      -6.862   0.131  -5.958  0.00  0.00    +0.046 A 
ATOM     30  C   UNL     1      -7.889   0.021  -6.875  0.00  0.00    +0.007 A 
ATOM     31  C   UNL     1      -7.920  -1.044  -7.756  0.00  0.00    -0.045 A 
ATOM     32  C   UNL     1      -6.923  -2.002  -7.722  0.00  0.00    +0.007 A 
ATOM     33  C   UNL     1      -5.890  -1.893  -6.812  0.00  0.00    +0.046 A 
BRANCH  31  34
ATOM     34  C   UNL     1      -9.042  -1.162  -8.755  0.00  0.00    +0.013 C 
ATOM     35  C   UNL     1      -8.467  -1.148 -10.173  0.00  0.00    +0.012 C 
ATOM     36  C   UNL     1      -9.795  -2.474  -8.523  0.00  0.00    +0.012 C 
ENDBRANCH  31  34
ENDBRANCH  27  28
ENDBRANCH  26  27
ENDBRANCH   4  26
TORSDOF 9
