REMARK  Name = ZINC21622205
REMARK  12 active torsions:
REMARK  status: ('A' for Active; 'I' for Inactive)
REMARK    1  A    between atoms: C_1  and  C_2
REMARK    2  A    between atoms: C_2  and  C_3
REMARK    3  A    between atoms: C_9  and  C_13
REMARK    4  A    between atoms: C_13  and  S_14
REMARK    5  A    between atoms: S_14  and  C_15
REMARK    6  A    between atoms: C_18  and  C_21
REMARK    7  A    between atoms: N_19  and  N_20
REMARK    8  A    between atoms: C_21  and  O_22
REMARK    9  A    between atoms: O_22  and  C_23
REMARK   10  A    between atoms: C_26  and  C_29
REMARK   11  A    between atoms: C_29  and  C_30
REMARK   12  A    between atoms: C_29  and  C_31
REMARK                            x       y       z     vdW  Elec       q    Type
REMARK                         _______ _______ _______ _____ _____    ______ ____
ROOT
ATOM      1  C   UNL     1       1.213   1.744  -0.000  0.00  0.00    +0.209 A 
ATOM      2  N   UNL     1      -0.015   1.281   0.009  0.00  0.00    -0.121 NA
ATOM      3  N   UNL     1       0.002  -0.004   0.002  0.00  0.00    -0.128 NA
ATOM      4  C   UNL     1       1.232  -0.435  -0.012  0.00  0.00    +0.189 A 
ATOM      5  N   UNL     1       2.047   0.663  -0.014  0.00  0.00    -0.225 N 
ENDROOT
BRANCH   5   6
ATOM      6  N   UNL     1       3.413   0.675  -0.027  0.00  0.00    -0.295 N 
ATOM      7  H   UNL     1       3.972  -0.272  -0.038  0.00  0.00    +0.163 HD
ATOM      8  H   UNL     1       3.955   1.633  -0.028  0.00  0.00    +0.163 HD
ENDBRANCH   5   6
BRANCH   1   9
ATOM      9  S   UNL     1       1.694   3.439   0.004  0.00  0.00    -0.078 S 
BRANCH   9  10
ATOM     10  C   UNL     1       0.066   4.228   0.024  0.00  0.00    +0.133 C 
BRANCH  10  17
ATOM     11  C   UNL     1       1.129  10.303   1.413  0.00  0.00    +0.102 A 
ATOM     12  N   UNL     1       0.753   9.829   0.264  0.00  0.00    -0.159 NA
ATOM     13  N   UNL     1       0.547   8.467   0.068  0.00  0.00    -0.171 N 
ATOM     14  C   UNL     1       0.155   7.848  -1.085  0.00  0.00    +0.275 A 
ATOM     15  O   UNL     1      -0.055   8.507  -2.092  0.00  0.00    -0.266 OA
ATOM     16  C   UNL     1      -0.006   6.463  -1.110  0.00  0.00    +0.096 A 
ATOM     17  C   UNL     1       0.233   5.726   0.030  0.00  0.00    +0.060 A 
ATOM     18  N   UNL     1       0.609   6.360   1.137  0.00  0.00    -0.225 NA
ATOM     19  C   UNL     1       0.762   7.660   1.151  0.00  0.00    +0.199 A 
ATOM     20  S   UNL     1       1.244   8.825   2.407  0.00  0.00    -0.033 S 
BRANCH  11  22
ATOM     21  C   UNL     1       1.162  12.646   0.601  0.00  0.00    +0.011 C 
ATOM     22  C   UNL     1       1.398  11.733   1.806  0.00  0.00    +0.061 C 
ENDBRANCH  11  22
ENDBRANCH  10  17
ENDBRANCH   9  10
ENDBRANCH   1   9
BRANCH   4  23
ATOM     23  C   UNL     1       1.673  -1.875  -0.024  0.00  0.00    +0.306 C 
BRANCH  23  24
ATOM     24  O   UNL     1       1.800  -2.324  -1.374  0.00  0.00    -0.484 OA
BRANCH  24  25
ATOM     25  C   UNL     1       2.194  -3.611  -1.563  0.00  0.00    +0.121 A 
ATOM     26  C   UNL     1       2.457  -4.424  -0.470  0.00  0.00    +0.046 A 
ATOM     27  C   UNL     1       2.851  -5.734  -0.664  0.00  0.00    +0.007 A 
ATOM     28  C   UNL     1       2.994  -6.231  -1.946  0.00  0.00    -0.045 A 
ATOM     29  C   UNL     1       2.737  -5.421  -3.037  0.00  0.00    +0.007 A 
ATOM     30  C   UNL     1       2.337  -4.113  -2.848  0.00  0.00    +0.046 A 
BRANCH  28  31
ATOM     31  C   UNL     1       3.430  -7.659  -2.155  0.00  0.00    +0.013 C 
ATOM     32  C   UNL     1       4.806  -7.870  -1.520  0.00  0.00    +0.012 C 
ATOM     33  C   UNL     1       2.417  -8.602  -1.502  0.00  0.00    +0.012 C 
ENDBRANCH  28  31
ENDBRANCH  24  25
ENDBRANCH  23  24
ENDBRANCH   4  23
TORSDOF 9
