REMARK  Name = ZINC09440186
REMARK  9 active torsions:
REMARK  status: ('A' for Active; 'I' for Inactive)
REMARK    1  A    between atoms: C_1  and  C_2
REMARK    2  A    between atoms: C_2  and  S_3
REMARK    3  A    between atoms: S_3  and  C_6
REMARK    4  A    between atoms: C_9  and  O_32
REMARK    5  A    between atoms: C_10  and  N_12
REMARK    6  A    between atoms: C_13  and  C_15
REMARK    7  A    between atoms: C_18  and  N_24
REMARK    8  A    between atoms: C_19  and  N_21
REMARK    9  A    between atoms: C_28  and  C_31
REMARK                            x       y       z     vdW  Elec       q    Type
REMARK                         _______ _______ _______ _____ _____    ______ ____
ROOT
ATOM      1  N   UNL     1      -4.314   3.236   4.408  0.00  0.00    -0.279 N 
ATOM      2  C   UNL     1      -2.975   3.390   4.387  0.00  0.00    +0.248 C 
ATOM      3  O   UNL     1      -2.414   3.955   5.307  0.00  0.00    -0.270 OA
ATOM      4  H   UNL     1      -4.755   2.727   3.710  0.00  0.00    +0.155 HD
ENDROOT
BRANCH   1   9
ATOM      5  C   UNL     1      -5.288   4.479   7.730  0.00  0.00    +0.090 A 
ATOM      6  C   UNL     1      -6.562   4.951   7.473  0.00  0.00    +0.030 A 
ATOM      7  C   UNL     1      -7.096   4.855   6.202  0.00  0.00    +0.049 A 
ATOM      8  C   UNL     1      -6.352   4.291   5.178  0.00  0.00    +0.138 A 
ATOM      9  C   UNL     1      -5.070   3.812   5.437  0.00  0.00    +0.077 A 
ATOM     10  C   UNL     1      -4.541   3.911   6.716  0.00  0.00    +0.054 A 
BRANCH   5  11
ATOM     11  S   UNL     1      -4.615   4.604   9.354  0.00  0.00    -0.003 S 
ATOM     12  O   UNL     1      -5.746   4.624  10.214  0.00  0.00    -0.169 OA
ATOM     13  O   UNL     1      -3.663   3.553   9.433  0.00  0.00    -0.169 OA
BRANCH  11  15
ATOM     14  C   UNL     1      -3.147   6.430  10.765  0.00  0.00    +0.028 C 
ATOM     15  C   UNL     1      -3.775   6.212   9.388  0.00  0.00    +0.168 C 
ENDBRANCH  11  15
ENDBRANCH   5  11
BRANCH   8  16
ATOM     16  O   UNL     1      -6.873   4.202   3.926  0.00  0.00    -0.505 OA
ATOM     17  H   UNL     1      -7.360   3.383   3.760  0.00  0.00    +0.292 HD
ENDBRANCH   8  16
ENDBRANCH   1   9
BRANCH   2  18
ATOM     18  C   UNL     1      -2.191   2.874   3.250  0.00  0.00    +0.039 A 
ATOM     19  C   UNL     1      -2.835   2.225   2.192  0.00  0.00    +0.015 A 
ATOM     20  C   UNL     1      -2.101   1.749   1.130  0.00  0.00    +0.026 A 
ATOM     21  C   UNL     1      -0.717   1.904   1.113  0.00  0.00    +0.060 A 
ATOM     22  C   UNL     1      -0.073   2.550   2.164  0.00  0.00    +0.148 A 
ATOM     23  C   UNL     1      -0.802   3.033   3.227  0.00  0.00    +0.047 A 
BRANCH  21  24
ATOM     24  N   UNL     1       0.022   1.418   0.040  0.00  0.00    -0.328 N 
ATOM     25  C   UNL     1      -0.321   2.126  -1.200  0.00  0.00    +0.105 C 
ATOM     26  C   UNL     1       0.611   1.668  -2.325  0.00  0.00    +0.019 C 
ATOM     27  C   UNL     1       0.462   0.157  -2.520  0.00  0.00    +0.006 C 
ATOM     28  C   UNL     1       0.778  -0.554  -1.201  0.00  0.00    +0.003 C 
ATOM     29  C   UNL     1      -0.158  -0.032  -0.109  0.00  0.00    +0.108 C 
ATOM     30  C   UNL     1       0.574  -2.061  -1.371  0.00  0.00    +0.009 C 
ENDBRANCH  21  24
BRANCH  22  31
ATOM     31  N   UNL     1       1.397   2.718   2.139  0.00  0.00    +0.058 N 
ATOM     32  O   UNL     1       1.972   3.196   3.101  0.00  0.00    -0.126 OA
ATOM     33  O   UNL     1       2.032   2.378   1.157  0.00  0.00    -0.126 OA
ENDBRANCH  22  31
ENDBRANCH   2  18
TORSDOF 7
