REMARK  Name = ZINC67306424
REMARK  8 active torsions:
REMARK  status: ('A' for Active; 'I' for Inactive)
REMARK    1  A    between atoms: C_1  and  C_2
REMARK    2  A    between atoms: C_2  and  C_3
REMARK    3  A    between atoms: C_2  and  C_4
REMARK    4  A    between atoms: C_2  and  C_5
REMARK    5  A    between atoms: C_8  and  C_11
REMARK    6  A    between atoms: C_11  and  C_13
REMARK    7  A    between atoms: C_11  and  N_15
REMARK    8  A    between atoms: C_16  and  C_18
REMARK                            x       y       z     vdW  Elec       q    Type
REMARK                         _______ _______ _______ _____ _____    ______ ____
ROOT
ATOM      1  N   UNL     1       3.548  -0.795  -5.289  0.00  0.00    -0.296 N 
ATOM      2  C   UNL     1       3.868  -0.781  -6.598  0.00  0.00    +0.217 C 
ATOM      3  O   UNL     1       3.460  -1.656  -7.332  0.00  0.00    -0.275 OA
ATOM      4  H   UNL     1       3.874  -0.095  -4.702  0.00  0.00    +0.150 HD
ENDROOT
BRANCH   2   5
ATOM      5  C   UNL     1       4.733   0.323  -7.150  0.00  0.00    +0.075 C 
ATOM      6  C   UNL     1       6.086   0.316  -6.436  0.00  0.00    +0.015 C 
ATOM      7  C   UNL     1       6.960   1.444  -6.990  0.00  0.00    +0.036 C 
ATOM      8  C   UNL     1       7.156   1.248  -8.489  0.00  0.00    +0.112 C 
ATOM      9  C   UNL     1       5.813   1.232  -9.211  0.00  0.00    +0.036 C 
ATOM     10  C   UNL     1       4.943   0.104  -8.649  0.00  0.00    +0.015 C 
ATOM     11  C   UNL     1       8.045   2.333  -9.052  0.00  0.00    +0.244 C 
ATOM     12  O   UNL     1       7.833   3.526  -9.057  0.00  0.00    -0.273 OA
ATOM     13  N   UNL     1       9.124   1.693  -9.548  0.00  0.00    -0.238 N 
ATOM     14  C   UNL     1       9.034   0.368  -9.375  0.00  0.00    +0.307 C 
ATOM     15  O   UNL     1       9.885  -0.420  -9.739  0.00  0.00    -0.252 OA
ATOM     16  N   UNL     1       7.896   0.007  -8.753  0.00  0.00    -0.285 N 
ATOM     17  H   UNL     1       9.872   2.137  -9.977  0.00  0.00    +0.159 HD
ATOM     18  H   UNL     1       7.620  -0.894  -8.524  0.00  0.00    +0.151 HD
ENDBRANCH   2   5
BRANCH   1  19
ATOM     19  C   UNL     1       2.707  -1.868  -4.752  0.00  0.00    +0.207 C 
BRANCH  19  23
ATOM     20  C   UNL     1       0.707  -0.490  -1.238  0.00  0.00    -0.042 A 
ATOM     21  C   UNL     1       0.036  -1.284  -2.148  0.00  0.00    +0.004 A 
ATOM     22  C   UNL     1       0.683  -1.730  -3.286  0.00  0.00    +0.007 A 
ATOM     23  C   UNL     1       2.001  -1.381  -3.513  0.00  0.00    -0.013 A 
ATOM     24  C   UNL     1       2.672  -0.586  -2.603  0.00  0.00    +0.007 A 
ATOM     25  C   UNL     1       2.024  -0.137  -1.467  0.00  0.00    +0.004 A 
BRANCH  20  27
ATOM     26  C   UNL     1      -0.019   1.526   0.010  0.00  0.00    +0.015 C 
ATOM     27  C   UNL     1       0.002  -0.004   0.002  0.00  0.00    -0.013 C 
ATOM     28  C   UNL     1       0.742  -0.511   1.242  0.00  0.00    +0.015 C 
ATOM     29  C   UNL     1      -1.433  -0.534   0.013  0.00  0.00    +0.015 C 
ENDBRANCH  20  27
ENDBRANCH  19  23
BRANCH  19  30
ATOM     30  C   UNL     1       3.548  -3.028  -4.414  0.00  0.00    +0.090 C 
ATOM     31  N   UNL     1       4.197  -3.923  -4.154  0.00  0.00    -0.194 NA
ENDBRANCH  19  30
ENDBRANCH   1  19
TORSDOF 5
