REMARK  Name = ZINC65370148
REMARK  8 active torsions:
REMARK  status: ('A' for Active; 'I' for Inactive)
REMARK    1  A    between atoms: C_1  and  C_2
REMARK    2  A    between atoms: C_2  and  C_3
REMARK    3  A    between atoms: C_5  and  C_10
REMARK    4  A    between atoms: C_7  and  C_9
REMARK    5  A    between atoms: C_12  and  C_23
REMARK    6  A    between atoms: N_15  and  C_16
REMARK    7  A    between atoms: C_16  and  C_17
REMARK    8  A    between atoms: C_17  and  N_18
REMARK                            x       y       z     vdW  Elec       q    Type
REMARK                         _______ _______ _______ _____ _____    ______ ____
ROOT
ATOM      1  C   UNL     1       0.839  -1.533  -4.690  0.00  0.00    +0.156 C 
ATOM      2  C   UNL     1       1.031  -0.350  -5.612  0.00  0.00    +0.068 C 
ATOM      3  N   UNL     1      -0.123   0.107  -5.970  0.00  0.00    -0.270 NA
ATOM      4  C   UNL     1      -1.201  -0.677  -5.357  0.00  0.00    +0.229 C 
ATOM      5  N   UNL     1      -0.573  -1.941  -4.895  0.00  0.00    -0.268 NA
ENDROOT
BRANCH   1   8
ATOM      6  C   UNL     1       1.376   0.108  -1.514  0.00  0.00    +0.084 A 
ATOM      7  N   UNL     1       1.189   0.131  -2.805  0.00  0.00    -0.345 N 
ATOM      8  C   UNL     1       1.066  -1.125  -3.257  0.00  0.00    +0.060 A 
ATOM      9  H   UNL     1       1.505  -1.488  -0.190  0.00  0.00    +0.167 HD
ATOM     10  C   UNL     1       1.180  -1.959  -2.206  0.00  0.00    +0.035 A 
ATOM     11  N   UNL     1       1.383  -1.177  -1.101  0.00  0.00    -0.347 N 
ATOM     12  C   UNL     1       1.106  -3.464  -2.240  0.00  0.00    +0.065 C 
ATOM     13  H   UNL     1       1.147   0.931  -3.352  0.00  0.00    +0.167 HD
BRANCH   6  15
ATOM     14  C   UNL     1       3.049   1.662  -0.546  0.00  0.00    +0.012 C 
ATOM     15  C   UNL     1       1.561   1.316  -0.631  0.00  0.00    +0.069 C 
ENDBRANCH   6  15
ENDBRANCH   1   8
BRANCH   2  16
ATOM     16  C   UNL     1       2.334   0.198  -6.037  0.00  0.00    -0.002 A 
ATOM     17  C   UNL     1       3.518  -0.455  -5.686  0.00  0.00    +0.010 A 
ATOM     18  C   UNL     1       4.732   0.062  -6.086  0.00  0.00    +0.001 A 
ATOM     19  C   UNL     1       4.780   1.226  -6.833  0.00  0.00    +0.000 A 
ATOM     20  C   UNL     1       3.611   1.878  -7.184  0.00  0.00    +0.001 A 
ATOM     21  C   UNL     1       2.390   1.368  -6.796  0.00  0.00    +0.010 A 
ENDBRANCH   2  16
BRANCH   5  22
ATOM     22  C   UNL     1      -0.675  -2.987  -5.921  0.00  0.00    +0.108 C 
BRANCH  22  23
ATOM     23  C   UNL     1      -2.096  -3.556  -5.930  0.00  0.00    +0.138 C 
BRANCH  23  24
ATOM     24  N   UNL     1      -2.197  -4.599  -6.954  0.00  0.00    -0.337 N 
ATOM     25  C   UNL     1      -2.547  -4.419  -8.265  0.00  0.00    +0.104 A 
ATOM     26  C   UNL     1      -2.514  -5.633  -8.847  0.00  0.00    +0.101 A 
ATOM     27  N   UNL     1      -2.155  -6.529  -7.917  0.00  0.00    -0.352 N 
ATOM     28  C   UNL     1      -1.958  -5.917  -6.782  0.00  0.00    +0.173 A 
ATOM     29  H   UNL     1      -2.053  -7.483  -8.066  0.00  0.00    +0.166 HD
ENDBRANCH  23  24
ENDBRANCH  22  23
ENDBRANCH   5  22
TORSDOF 6
