REMARK  Name = ZINC43936096
REMARK  10 active torsions:
REMARK  status: ('A' for Active; 'I' for Inactive)
REMARK    1  A    between atoms: C_1  and  C_2
REMARK    2  A    between atoms: C_2  and  C_4
REMARK    3  A    between atoms: C_2  and  N_20
REMARK    4  A    between atoms: N_9  and  C_19
REMARK    5  A    between atoms: C_11  and  C_13
REMARK    6  A    between atoms: C_21  and  O_23
REMARK    7  A    between atoms: O_23  and  C_24
REMARK    8  A    between atoms: C_24  and  C_25
REMARK    9  A    between atoms: C_24  and  C_26
REMARK   10  A    between atoms: C_24  and  C_27
REMARK                            x       y       z     vdW  Elec       q    Type
REMARK                         _______ _______ _______ _____ _____    ______ ____
ROOT
ATOM      1  C   UNL     1       0.651   0.119   2.095  0.00  0.00    +0.236 C 
ATOM      2  O   UNL     1       0.306  -0.725   2.896  0.00  0.00    -0.274 OA
ATOM      3  N   UNL     1       1.958   0.290   1.817  0.00  0.00    -0.290 N 
ATOM      4  C   UNL     1       2.411   1.407   0.974  0.00  0.00    +0.124 C 
ATOM      5  C   UNL     1       3.312   0.847  -0.133  0.00  0.00    +0.103 C 
ATOM      6  N   UNL     1       4.387   0.049   0.472  0.00  0.00    -0.302 NA
ATOM      7  C   UNL     1       3.849  -1.115   1.187  0.00  0.00    +0.111 C 
ATOM      8  C   UNL     1       2.971  -0.633   2.353  0.00  0.00    +0.120 C 
ATOM      9  C   UNL     1       5.370  -0.362  -0.539  0.00  0.00    +0.105 C 
ENDROOT
BRANCH   8  10
ATOM     10  C   UNL     1       2.290  -1.812   2.998  0.00  0.00    -0.026 A 
ATOM     11  C   UNL     1       1.503  -2.657   2.238  0.00  0.00    +0.005 A 
ATOM     12  C   UNL     1       0.879  -3.739   2.830  0.00  0.00    +0.000 A 
ATOM     13  C   UNL     1       1.042  -3.976   4.182  0.00  0.00    +0.000 A 
ATOM     14  C   UNL     1       1.829  -3.132   4.942  0.00  0.00    +0.000 A 
ATOM     15  C   UNL     1       2.457  -2.053   4.349  0.00  0.00    +0.005 A 
ENDBRANCH   8  10
BRANCH   1  17
ATOM     16  C   UNL     1      -0.480   2.326   2.127  0.00  0.00    +0.038 C 
ATOM     17  C   UNL     1      -0.383   0.976   1.412  0.00  0.00    +0.159 C 
BRANCH  17  18
ATOM     18  N   UNL     1      -1.684   0.304   1.460  0.00  0.00    -0.270 N 
ATOM     19  C   UNL     1      -2.621   0.583   0.532  0.00  0.00    +0.401 C 
ATOM     20  O   UNL     1      -2.387   1.391  -0.344  0.00  0.00    -0.226 OA
ATOM     21  H   UNL     1      -1.871  -0.341   2.159  0.00  0.00    +0.153 HD
BRANCH  19  22
ATOM     22  O   UNL     1      -3.816  -0.035   0.576  0.00  0.00    -0.445 OA
BRANCH  22  23
ATOM     23  C   UNL     1      -4.762   0.308  -0.439  0.00  0.00    +0.107 C 
ATOM     24  C   UNL     1      -4.177  -0.024  -1.814  0.00  0.00    +0.055 C 
ATOM     25  C   UNL     1      -6.050  -0.489  -0.227  0.00  0.00    +0.055 C 
ATOM     26  C   UNL     1      -5.069   1.805  -0.364  0.00  0.00    +0.055 C 
ENDBRANCH  22  23
ENDBRANCH  19  22
ENDBRANCH  17  18
ENDBRANCH   1  17
TORSDOF 5
