REMARK  Name = ZINC10426910
REMARK  6 active torsions:
REMARK  status: ('A' for Active; 'I' for Inactive)
REMARK    1  A    between atoms: C_6  and  N_7
REMARK    2  A    between atoms: C_11  and  C_13
REMARK    3  A    between atoms: N_15  and  C_16
REMARK    4  A    between atoms: C_16  and  C_17
REMARK    5  A    between atoms: C_17  and  C_18
REMARK    6  A    between atoms: C_18  and  N_19
REMARK                            x       y       z     vdW  Elec       q    Type
REMARK                         _______ _______ _______ _____ _____    ______ ____
ROOT
ATOM      1  C   UNL     1      -4.440   4.260   3.117  0.00  0.00    +0.251 C 
ATOM      2  O   UNL     1      -5.104   4.700   2.198  0.00  0.00    -0.270 OA
ATOM      3  N   UNL     1      -3.335   3.531   2.861  0.00  0.00    -0.311 N 
ATOM      4  H   UNL     1      -2.805   3.180   3.594  0.00  0.00    +0.149 HD
ENDROOT
BRANCH   1  12
ATOM      5  C   UNL     1      -6.282   5.461   9.150  0.00  0.00    +0.034 A 
ATOM      6  C   UNL     1      -5.245   4.777   8.547  0.00  0.00    +0.018 A 
ATOM      7  C   UNL     1      -5.170   4.732   7.171  0.00  0.00    +0.020 A 
ATOM      8  C   UNL     1      -6.127   5.366   6.343  0.00  0.00    -0.008 A 
ATOM      9  C   UNL     1      -7.174   6.056   7.004  0.00  0.00    +0.041 A 
ATOM     10  C   UNL     1      -7.235   6.092   8.361  0.00  0.00    +0.127 A 
ATOM     11  C   UNL     1      -5.912   5.227   4.960  0.00  0.00    +0.029 A 
ATOM     12  C   UNL     1      -4.842   4.522   4.506  0.00  0.00    +0.075 A 
ATOM     13  S   UNL     1      -4.050   3.986   6.013  0.00  0.00    -0.084 S 
BRANCH  10  14
ATOM     14  N   UNL     1      -8.344   6.822   9.014  0.00  0.00    +0.056 N 
ATOM     15  O   UNL     1      -8.413   6.864  10.230  0.00  0.00    -0.126 OA
ATOM     16  O   UNL     1      -9.188   7.381   8.337  0.00  0.00    -0.126 OA
ENDBRANCH  10  14
ENDBRANCH   1  12
BRANCH   3  17
ATOM     17  C   UNL     1      -2.934   3.269   1.477  0.00  0.00    +0.106 C 
BRANCH  17  18
ATOM     18  C   UNL     1      -1.657   2.426   1.466  0.00  0.00    +0.038 C 
BRANCH  18  19
ATOM     19  C   UNL     1      -1.239   2.153   0.020  0.00  0.00    +0.119 C 
BRANCH  19  20
ATOM     20  N   UNL     1      -0.016   1.346   0.009  0.00  0.00    -0.224 N 
ATOM     21  C   UNL     1       0.002  -0.004   0.002  0.00  0.00    +0.246 C 
ATOM     22  O   UNL     1      -0.952  -0.753   0.007  0.00  0.00    -0.273 OA
ATOM     23  C   UNL     1       1.461  -0.382  -0.014  0.00  0.00    +0.113 C 
ATOM     24  C   UNL     1       1.804  -1.205  -1.263  0.00  0.00    +0.035 C 
ATOM     25  C   UNL     1       2.878  -2.208  -0.767  0.00  0.00    +0.003 C 
ATOM     26  C   UNL     1       2.390  -2.558   0.661  0.00  0.00    +0.003 C 
ATOM     27  C   UNL     1       1.831  -1.226   1.208  0.00  0.00    +0.035 C 
ATOM     28  N   UNL     1       2.171   0.899  -0.014  0.00  0.00    -0.285 N 
ATOM     29  C   UNL     1       1.222   1.856   0.000  0.00  0.00    +0.309 C 
ATOM     30  O   UNL     1       1.463   3.047   0.004  0.00  0.00    -0.252 OA
ATOM     31  H   UNL     1       3.132   1.032  -0.022  0.00  0.00    +0.151 HD
ENDBRANCH  19  20
ENDBRANCH  18  19
ENDBRANCH  17  18
ENDBRANCH   3  17
TORSDOF 6
