REMARK  Name = ZINC39584473
REMARK  7 active torsions:
REMARK  status: ('A' for Active; 'I' for Inactive)
REMARK    1  A    between atoms: C_1  and  C_2
REMARK    2  A    between atoms: C_5  and  C_8
REMARK    3  A    between atoms: N_9  and  N_10
REMARK    4  A    between atoms: C_11  and  C_13
REMARK    5  A    between atoms: C_16  and  C_19
REMARK    6  A    between atoms: C_22  and  C_26
REMARK    7  A    between atoms: C_23  and  C_25
REMARK                            x       y       z     vdW  Elec       q    Type
REMARK                         _______ _______ _______ _____ _____    ______ ____
ROOT
ATOM      1  N   UNL     1       0.090  -6.304   1.091  0.00  0.00    -0.205 N 
ATOM      2  C   UNL     1       0.105  -6.984   2.255  0.00  0.00    +0.263 C 
ATOM      3  O   UNL     1       0.103  -6.383   3.308  0.00  0.00    -0.271 OA
ATOM      4  H   UNL     1       0.092  -6.784   0.248  0.00  0.00    +0.177 HD
ENDROOT
BRANCH   2   5
ATOM      5  C   UNL     1       0.125  -8.491   2.246  0.00  0.00    +0.240 C 
ATOM      6  C   UNL     1       1.538  -9.008   2.046  0.00  0.00    +0.041 C 
ATOM      7  C   UNL     1       1.788  -9.707   3.170  0.00  0.00    +0.092 C 
ATOM      8  N   UNL     1       0.713  -9.670   4.001  0.00  0.00    -0.153 NA
ATOM      9  N   UNL     1      -0.248  -9.023   3.568  0.00  0.00    -0.170 NA
BRANCH   7  10
ATOM     10  C   UNL     1       3.057 -10.418   3.460  0.00  0.00    +0.002 A 
ATOM     11  C   UNL     1       4.102 -10.388   2.538  0.00  0.00    +0.010 A 
ATOM     12  C   UNL     1       5.281 -11.051   2.813  0.00  0.00    +0.004 A 
ATOM     13  C   UNL     1       5.426 -11.745   4.002  0.00  0.00    -0.047 A 
ATOM     14  C   UNL     1       4.393 -11.778   4.920  0.00  0.00    -0.047 A 
ATOM     15  C   UNL     1       3.211 -11.114   4.658  0.00  0.00    +0.013 A 
ATOM     16  C   UNL     1       4.558 -12.537   6.212  0.00  0.00    +0.044 C 
ATOM     17  C   UNL     1       6.715 -12.468   4.296  0.00  0.00    +0.044 C 
ENDBRANCH   7  10
ENDBRANCH   2   5
BRANCH   1  19
ATOM     18  C   UNL     1       0.058  -4.248  -0.021  0.00  0.00    +0.138 C 
ATOM     19  N   UNL     1       0.072  -4.903   1.099  0.00  0.00    -0.188 NA
BRANCH  18  24
ATOM     20  C   UNL     1      -0.018   1.503   0.010  0.00  0.00    +0.044 C 
ATOM     21  C   UNL     1       0.002  -0.004   0.002  0.00  0.00    -0.050 A 
ATOM     22  C   UNL     1       0.006  -0.686  -1.202  0.00  0.00    +0.004 A 
ATOM     23  C   UNL     1       0.024  -2.065  -1.217  0.00  0.00    +0.010 A 
ATOM     24  C   UNL     1       0.039  -2.773  -0.013  0.00  0.00    -0.005 A 
ATOM     25  C   UNL     1       0.036  -2.078   1.198  0.00  0.00    +0.010 A 
ATOM     26  C   UNL     1       0.023  -0.699   1.198  0.00  0.00    +0.004 A 
ENDBRANCH  18  24
ENDBRANCH   1  19
TORSDOF 4
