REMARK  Name = ZINC59792854
REMARK  7 active torsions:
REMARK  status: ('A' for Active; 'I' for Inactive)
REMARK    1  A    between atoms: C_1  and  C_2
REMARK    2  A    between atoms: C_4  and  N_9
REMARK    3  A    between atoms: C_10  and  C_12
REMARK    4  A    between atoms: C_12  and  S_13
REMARK    5  A    between atoms: S_13  and  C_14
REMARK    6  A    between atoms: C_17  and  C_20
REMARK    7  A    between atoms: C_23  and  N_26
REMARK                            x       y       z     vdW  Elec       q    Type
REMARK                         _______ _______ _______ _____ _____    ______ ____
ROOT
ATOM      1  C   UNL     1       0.537  -7.345  -5.022  0.00  0.00    +0.185 A 
ATOM      2  N   UNL     1       0.524  -6.689  -6.162  0.00  0.00    -0.201 NA
ATOM      3  H   UNL     1       0.714  -9.387  -4.656  0.00  0.00    +0.191 HD
ATOM      4  C   UNL     1       0.641  -7.553  -7.180  0.00  0.00    +0.182 A 
ATOM      5  N   UNL     1       0.731  -8.771  -6.696  0.00  0.00    -0.152 NA
ATOM      6  N   UNL     1       0.671  -8.661  -5.298  0.00  0.00    -0.253 N 
ENDROOT
BRANCH   4   7
ATOM      7  C   UNL     1       0.665  -7.193  -8.620  0.00  0.00    +0.021 A 
ATOM      8  C   UNL     1       0.567  -5.858  -9.008  0.00  0.00    +0.014 A 
ATOM      9  C   UNL     1       0.591  -5.529 -10.348  0.00  0.00    +0.033 A 
ATOM     10  C   UNL     1       0.712  -6.520 -11.305  0.00  0.00    +0.126 A 
ATOM     11  C   UNL     1       0.810  -7.846 -10.925  0.00  0.00    +0.033 A 
ATOM     12  C   UNL     1       0.792  -8.187  -9.588  0.00  0.00    +0.014 A 
BRANCH  10  13
ATOM     13  N   UNL     1       0.736  -6.160 -12.741  0.00  0.00    +0.056 N 
ATOM     14  O   UNL     1       0.650  -5.002 -13.075  0.00  0.00    -0.126 OA
ATOM     15  O   UNL     1       0.842  -7.025 -13.579  0.00  0.00    -0.126 OA
ENDBRANCH  10  13
ENDBRANCH   4   7
BRANCH   1  16
ATOM     16  S   UNL     1       0.411  -6.631  -3.416  0.00  0.00    -0.077 S 
BRANCH  16  17
ATOM     17  C   UNL     1       0.265  -4.851  -3.737  0.00  0.00    +0.173 C 
BRANCH  17  19
ATOM     18  N   UNL     1       0.028  -2.771  -2.420  0.00  0.00    -0.285 N 
ATOM     19  C   UNL     1       0.148  -4.113  -2.428  0.00  0.00    +0.227 C 
ATOM     20  O   UNL     1       0.162  -4.727  -1.382  0.00  0.00    -0.275 OA
ATOM     21  H   UNL     1      -0.060  -2.287  -3.256  0.00  0.00    +0.155 HD
BRANCH  18  25
ATOM     22  C   UNL     1       1.619  -2.350   2.213  0.00  0.00    +0.045 C 
ATOM     23  C   UNL     1       0.793  -1.849   1.057  0.00  0.00    -0.035 A 
ATOM     24  C   UNL     1       0.792  -2.538  -0.141  0.00  0.00    +0.027 A 
ATOM     25  C   UNL     1       0.030  -2.075  -1.206  0.00  0.00    +0.034 A 
ATOM     26  C   UNL     1      -0.729  -0.921  -1.063  0.00  0.00    +0.024 A 
ATOM     27  C   UNL     1      -0.724  -0.236   0.136  0.00  0.00    +0.017 A 
ATOM     28  C   UNL     1       0.032  -0.703   1.197  0.00  0.00    +0.021 A 
ATOM     29 BR   UNL     1       0.029   0.233   2.841  0.00  0.00    -0.050 Br
ENDBRANCH  18  25
ENDBRANCH  17  19
ENDBRANCH  16  17
ENDBRANCH   1  16
TORSDOF 6
