REMARK  Name = ZINC28758890
REMARK  7 active torsions:
REMARK  status: ('A' for Active; 'I' for Inactive)
REMARK    1  A    between atoms: C_3  and  N_24
REMARK    2  A    between atoms: C_6  and  C_7
REMARK    3  A    between atoms: C_7  and  C_9
REMARK    4  A    between atoms: C_7  and  O_23
REMARK    5  A    between atoms: C_9  and  C_11
REMARK    6  A    between atoms: C_9  and  N_13
REMARK    7  A    between atoms: C_11  and  O_12
REMARK                            x       y       z     vdW  Elec       q    Type
REMARK                         _______ _______ _______ _____ _____    ______ ____
ROOT
ATOM      1  C   UNK A   1      -1.721   2.465  -1.418  0.00  0.00    +0.130 C 
ENDROOT
BRANCH   1   2
ATOM      2  N   UNK A   1      -3.076   3.013  -1.316  0.00  0.00    -0.320 N 
ATOM      3  C   UNK A   0      -3.910   3.007  -2.422  0.00  0.00    +0.137 A 
ATOM      4  C   UNK A   0      -5.195   3.515  -2.344  0.00  0.00    +0.077 A 
ATOM      5  C   UNK A   0      -6.048   3.517  -3.469  0.00  0.00    +0.083 A 
ATOM      6  C   UNK A   0      -7.325   4.067  -3.255  0.00  0.00    +0.036 A 
ATOM      7  C   UNK A   0      -7.660   4.549  -2.043  0.00  0.00    +0.048 A 
ATOM      8  S   UNK A   0      -6.183   4.269  -1.080  0.00  0.00    -0.092 S 
ATOM      9  N   UNK A   0      -5.525   2.985  -4.601  0.00  0.00    -0.235 NA
ATOM     10  C   UNK A   0      -4.307   2.511  -4.632  0.00  0.00    +0.224 A 
ATOM     11  N   UNK A   0      -3.497   2.508  -3.588  0.00  0.00    -0.220 NA
ATOM     12  H   UNK A   1      -3.431   3.428  -0.362  0.00  0.00    +0.148 HD
ENDBRANCH   1   2
BRANCH   1  13
ATOM     13  C   UNK A   1      -1.248   2.014  -0.035  0.00  0.00    +0.167 C 
BRANCH  13  19
ATOM     14  C   UNK A   1      -1.937  -0.388   0.112  0.00  0.00    +0.008 A 
ATOM     15  C   UNK A   1      -2.776  -1.384   0.576  0.00  0.00    +0.033 A 
ATOM     16  C   UNK A   1      -3.835  -1.065   1.406  0.00  0.00    +0.126 A 
ATOM     17  C   UNK A   1      -4.055   0.250   1.771  0.00  0.00    +0.033 A 
ATOM     18  C   UNK A   1      -3.216   1.246   1.307  0.00  0.00    +0.008 A 
ATOM     19  C   UNK A   1      -2.158   0.927   0.477  0.00  0.00    -0.017 A 
BRANCH  16  20
ATOM     20  N   UNK A   1      -4.733  -2.131   1.903  0.00  0.00    +0.056 N 
ATOM     21  O   UNK A   1      -5.666  -1.850   2.634  0.00  0.00    -0.126 OA
ATOM     22  O   UNK A   1      -4.539  -3.290   1.582  0.00  0.00    -0.126 OA
ENDBRANCH  16  20
ENDBRANCH  13  19
BRANCH  13  23
ATOM     23  O   UNK A   1       0.087   1.512  -0.128  0.00  0.00    -0.385 OA
ATOM     24  H   UNK A   1       0.897   2.166  -0.485  0.00  0.00    +0.210 HD
ENDBRANCH  13  23
ENDBRANCH   1  13
BRANCH   1  25
ATOM     25  C   UNK A   1      -0.775   3.542  -1.954  0.00  0.00    +0.181 C 
BRANCH  25  26
ATOM     26  O   UNK A   1      -0.693   4.615  -1.014  0.00  0.00    -0.393 OA
ATOM     27  H   UNK A   1      -0.056   5.486  -1.228  0.00  0.00    +0.209 HD
ENDBRANCH  25  26
ENDBRANCH   1  25
TORSDOF 7
