REMARK  Name = ZINC06428482
REMARK  8 active torsions:
REMARK  status: ('A' for Active; 'I' for Inactive)
REMARK    1  A    between atoms: C_1  and  C_2
REMARK    2  A    between atoms: C_2  and  C_3
REMARK    3  A    between atoms: C_2  and  N_4
REMARK    4  A    between atoms: C_5  and  C_7
REMARK    5  A    between atoms: C_7  and  O_8
REMARK    6  A    between atoms: O_8  and  C_9
REMARK    7  A    between atoms: C_9  and  C_11
REMARK    8  A    between atoms: C_16  and  N_17
REMARK                            x       y       z     vdW  Elec       q    Type
REMARK                         _______ _______ _______ _____ _____    ______ ____
ROOT
ATOM      1  C   UNL     1      -0.006  -0.698  -1.210  0.00  0.00    +0.090 A 
ATOM      2  C   UNL     1       0.018  -2.093  -1.217  0.00  0.00    +0.018 A 
ATOM      3  C   UNL     1       0.039  -2.796  -0.027  0.00  0.00    +0.013 A 
ATOM      4  C   UNL     1       0.042  -2.114   1.187  0.00  0.00    +0.035 A 
ATOM      5  C   UNL     1       0.023  -0.708   1.201  0.00  0.00    +0.064 A 
ATOM      6  C   UNL     1       0.002  -0.004   0.002  0.00  0.00    +0.152 A 
ATOM      7  C   UNL     1       0.026   0.019   2.488  0.00  0.00    +0.197 C 
ATOM      8  O   UNL     1       0.011   1.234   2.500  0.00  0.00    -0.287 OA
ATOM      9  C   UNL     1       0.049  -0.733   3.760  0.00  0.00    +0.033 A 
ATOM     10  C   UNL     1       0.053  -0.054   4.976  0.00  0.00    +0.012 A 
ATOM     11  C   UNL     1       0.076  -0.766   6.162  0.00  0.00    +0.001 A 
ATOM     12  C   UNL     1       0.094  -2.149   6.150  0.00  0.00    +0.001 A 
ATOM     13  C   UNL     1       0.090  -2.839   4.950  0.00  0.00    +0.012 A 
ATOM     14  C   UNL     1       0.068  -2.139   3.747  0.00  0.00    +0.033 A 
ATOM     15  C   UNL     1       0.064  -2.867   2.461  0.00  0.00    +0.195 C 
ATOM     16  O   UNL     1       0.080  -4.082   2.450  0.00  0.00    -0.287 OA
ENDROOT
BRANCH   6  17
ATOM     17  N   UNL     1      -0.018   1.476   0.010  0.00  0.00    +0.058 N 
ATOM     18  O   UNL     1       1.028   2.099   0.004  0.00  0.00    -0.126 OA
ATOM     19  O   UNL     1      -1.081   2.071   0.018  0.00  0.00    -0.126 OA
ENDBRANCH   6  17
BRANCH   1  20
ATOM     20  C   UNL     1      -0.034   0.047  -2.487  0.00  0.00    +0.342 C 
ATOM     21  O   UNL     1      -0.050   1.262  -2.481  0.00  0.00    -0.245 OA
BRANCH  20  22
ATOM     22  O   UNL     1      -0.041  -0.621  -3.656  0.00  0.00    -0.452 OA
BRANCH  22  23
ATOM     23  C   UNL     1      -0.069   0.175  -4.870  0.00  0.00    +0.328 C 
BRANCH  23  25
ATOM     24  N   UNL     1      -0.098  -0.217  -7.312  0.00  0.00    -0.310 N 
ATOM     25  C   UNL     1      -0.074  -0.738  -6.069  0.00  0.00    +0.251 C 
ATOM     26  O   UNL     1      -0.056  -1.941  -5.916  0.00  0.00    -0.272 OA
ATOM     27  H   UNL     1      -0.113   0.745  -7.435  0.00  0.00    +0.149 HD
BRANCH  24  29
ATOM     28  C   UNL     1      -1.539  -1.532  -8.788  0.00  0.00    +0.027 C 
ATOM     29  C   UNL     1      -0.103  -1.104  -8.478  0.00  0.00    +0.067 C 
ATOM     30  C   UNL     1       0.480  -0.365  -9.684  0.00  0.00    +0.027 C 
ENDBRANCH  24  29
ENDBRANCH  23  25
ENDBRANCH  22  23
ENDBRANCH  20  22
ENDBRANCH   1  20
TORSDOF 6
