REMARK  Name = ZINC27580950
REMARK  7 active torsions:
REMARK  status: ('A' for Active; 'I' for Inactive)
REMARK    1  A    between atoms: C_1  and  C_2
REMARK    2  A    between atoms: C_5  and  C_8
REMARK    3  A    between atoms: C_10  and  C_13
REMARK    4  A    between atoms: N_15  and  C_16
REMARK    5  A    between atoms: C_16  and  C_17
REMARK    6  A    between atoms: C_20  and  S_23
REMARK    7  A    between atoms: S_23  and  N_26
REMARK                            x       y       z     vdW  Elec       q    Type
REMARK                         _______ _______ _______ _____ _____    ______ ____
ROOT
ATOM      1  C   UNL     1       3.496   0.374  -0.029  0.00  0.00    +0.266 C 
ATOM      2  O   UNL     1       4.208   1.359  -0.031  0.00  0.00    -0.268 OA
ATOM      3  N   UNL     1       4.046  -0.856  -0.041  0.00  0.00    -0.306 N 
ATOM      4  H   UNL     1       3.402  -1.747  -0.039  0.00  0.00    +0.149 HD
ENDROOT
BRANCH   1   7
ATOM      5  C   UNL     1      -0.016   1.340   0.009  0.00  0.00    +0.168 A 
ATOM      6  C   UNL     1       1.290   1.743  -0.001  0.00  0.00    +0.086 A 
ATOM      7  C   UNL     1       2.020   0.526  -0.014  0.00  0.00    +0.168 A 
ATOM      8  N   UNL     1       1.131  -0.436  -0.011  0.00  0.00    -0.073 NA
ATOM      9  O   UNL     1       0.002  -0.004   0.002  0.00  0.00    -0.354 OA
BRANCH   5  14
ATOM     10  C   UNL     1      -4.669   4.726   0.052  0.00  0.00    +0.044 C 
ATOM     11  C   UNL     1      -3.451   3.839   0.041  0.00  0.00    -0.050 A 
ATOM     12  C   UNL     1      -3.600   2.464   0.034  0.00  0.00    +0.004 A 
ATOM     13  C   UNL     1      -2.489   1.647   0.024  0.00  0.00    +0.012 A 
ATOM     14  C   UNL     1      -1.212   2.210   0.020  0.00  0.00    +0.020 A 
ATOM     15  C   UNL     1      -1.068   3.598   0.032  0.00  0.00    +0.012 A 
ATOM     16  C   UNL     1      -2.188   4.404   0.037  0.00  0.00    +0.004 A 
ENDBRANCH   5  14
ENDBRANCH   1   7
BRANCH   3  17
ATOM     17  C   UNL     1       5.504  -1.006  -0.055  0.00  0.00    +0.140 C 
BRANCH  17  18
ATOM     18  C   UNL     1       5.857  -2.471  -0.066  0.00  0.00    -0.030 A 
ATOM     19  C   UNL     1       6.037  -3.147   1.126  0.00  0.00    +0.007 A 
ATOM     20  C   UNL     1       6.357  -4.492   1.116  0.00  0.00    +0.029 A 
ATOM     21  C   UNL     1       6.507  -5.158  -0.086  0.00  0.00    +0.105 A 
ATOM     22  C   UNL     1       6.333  -4.480  -1.278  0.00  0.00    +0.029 A 
ATOM     23  C   UNL     1       6.008  -3.136  -1.268  0.00  0.00    +0.007 A 
BRANCH  21  24
ATOM     24  S   UNL     1       6.920  -6.871  -0.098  0.00  0.00    +0.056 S 
ATOM     25  O   UNL     1       6.492  -7.401   1.149  0.00  0.00    -0.153 OA
ATOM     26  O   UNL     1       6.467  -7.389  -1.341  0.00  0.00    -0.153 OA
BRANCH  24  27
ATOM     27  N   UNL     1       8.572  -6.976  -0.116  0.00  0.00    -0.204 NA
ATOM     28  H   UNL     1       8.872  -8.034  -0.124  0.00  0.00    +0.144 HD
ATOM     29  H   UNL     1       8.981  -6.486   0.781  0.00  0.00    +0.144 HD
ENDBRANCH  24  27
ENDBRANCH  21  24
ENDBRANCH  17  18
ENDBRANCH   3  17
TORSDOF 6
