REMARK  Name = ZINC11763052
REMARK  8 active torsions:
REMARK  status: ('A' for Active; 'I' for Inactive)
REMARK    1  A    between atoms: C_2  and  C_3
REMARK    2  A    between atoms: C_3  and  N_4
REMARK    3  A    between atoms: C_5  and  C_22
REMARK    4  A    between atoms: C_8  and  S_9
REMARK    5  A    between atoms: S_9  and  C_10
REMARK    6  A    between atoms: C_10  and  C_11
REMARK    7  A    between atoms: N_13  and  C_14
REMARK    8  A    between atoms: C_26  and  N_28
REMARK                            x       y       z     vdW  Elec       q    Type
REMARK                         _______ _______ _______ _____ _____    ______ ____
ROOT
ATOM      1  N   UNL     1       0.348  -1.591   1.170  0.00  0.00    -0.298 N 
ATOM      2  C   UNL     1       0.739  -1.394   2.474  0.00  0.00    +0.165 A 
ATOM      3  N   UNL     1       0.863  -2.580   3.023  0.00  0.00    -0.128 NA
ATOM      4  N   UNL     1       0.581  -3.493   2.164  0.00  0.00    -0.122 NA
ATOM      5  C   UNL     1       0.255  -2.945   1.014  0.00  0.00    +0.193 A 
ENDROOT
BRANCH   2   6
ATOM      6  C   UNL     1       0.974  -0.091   3.133  0.00  0.00    +0.021 A 
ATOM      7  C   UNL     1       0.455   1.079   2.578  0.00  0.00    +0.012 A 
ATOM      8  C   UNL     1       0.679   2.291   3.197  0.00  0.00    +0.003 A 
ATOM      9  C   UNL     1       1.416   2.348   4.367  0.00  0.00    +0.033 A 
ATOM     10  C   UNL     1       1.933   1.192   4.923  0.00  0.00    +0.127 A 
ATOM     11  C   UNL     1       1.712  -0.028   4.316  0.00  0.00    +0.044 A 
BRANCH  10  12
ATOM     12  N   UNL     1       2.721   1.262   6.174  0.00  0.00    +0.056 N 
ATOM     13  O   UNL     1       2.911   2.329   6.710  0.00  0.00    -0.126 OA
ATOM     14  O   UNL     1       3.173   0.252   6.661  0.00  0.00    -0.126 OA
ENDBRANCH  10  12
ENDBRANCH   2   6
BRANCH   1  15
ATOM     15  C   UNL     1       0.082  -0.564   0.160  0.00  0.00    +0.152 C 
BRANCH  15  17
ATOM     16  C   UNL     1      -1.833   0.950   0.205  0.00  0.00    +0.005 C 
ATOM     17  C   UNL     1      -1.397  -0.282   0.108  0.00  0.00    -0.013 C 
ENDBRANCH  15  17
ENDBRANCH   1  15
BRANCH   5  18
ATOM     18  S   UNL     1      -0.214  -3.799  -0.454  0.00  0.00    -0.077 S 
BRANCH  18  19
ATOM     19  C   UNL     1      -0.136  -5.550   0.012  0.00  0.00    +0.173 C 
BRANCH  19  20
ATOM     20  C   UNL     1      -0.519  -6.402  -1.170  0.00  0.00    +0.228 C 
ATOM     21  O   UNL     1      -0.816  -5.879  -2.224  0.00  0.00    -0.275 OA
ATOM     22  N   UNL     1      -0.532  -7.745  -1.057  0.00  0.00    -0.280 N 
ATOM     23  H   UNL     1      -0.319  -8.162  -0.208  0.00  0.00    +0.155 HD
BRANCH  22  24
ATOM     24  C   UNL     1      -0.853  -8.539  -2.167  0.00  0.00    +0.105 A 
ATOM     25  C   UNL     1      -1.603  -9.697  -2.001  0.00  0.00    +0.147 A 
ATOM     26  C   UNL     1      -1.919 -10.478  -3.099  0.00  0.00    +0.040 A 
ATOM     27  C   UNL     1      -1.488 -10.107  -4.359  0.00  0.00    +0.006 A 
ATOM     28  C   UNL     1      -0.742  -8.956  -4.528  0.00  0.00    +0.040 A 
ATOM     29  C   UNL     1      -0.428  -8.167  -3.436  0.00  0.00    +0.147 A 
ATOM     30  F   UNL     1       0.297  -7.039  -3.603  0.00  0.00    -0.203 F 
ATOM     31  F   UNL     1      -2.024 -10.060  -0.769  0.00  0.00    -0.203 F 
ENDBRANCH  22  24
ENDBRANCH  19  20
ENDBRANCH  18  19
ENDBRANCH   5  18
TORSDOF 8
