REMARK  Name = ZINC39960777
REMARK  6 active torsions:
REMARK  status: ('A' for Active; 'I' for Inactive)
REMARK    1  A    between atoms: C_1  and  C_2
REMARK    2  A    between atoms: C_4  and  C_27
REMARK    3  A    between atoms: C_6  and  C_8
REMARK    4  A    between atoms: C_17  and  C_19
REMARK    5  A    between atoms: C_19  and  N_20
REMARK    6  A    between atoms: N_20  and  C_21
REMARK                            x       y       z     vdW  Elec       q    Type
REMARK                         _______ _______ _______ _____ _____    ______ ____
ROOT
ATOM      1  C   UNL     1       0.563  -2.546   2.345  0.00  0.00    +0.024 C 
ATOM      2  C   UNL     1      -0.339  -3.780   2.271  0.00  0.00    -0.069 C 
ATOM      3  N   UNL     1       0.415  -4.975   2.658  0.00  0.00    +0.381 N 
ATOM      4  C   UNL     1       0.890  -4.861   4.039  0.00  0.00    -0.078 C 
ATOM      5  C   UNL     1       1.832  -3.663   4.171  0.00  0.00    -0.015 C 
ATOM      6  C   UNL     1       1.962  -2.978   2.804  0.00  0.00    -0.007 C 
ATOM      7  C   UNL     1       2.505  -4.004   1.802  0.00  0.00    -0.013 C 
ATOM      8  C   UNL     1       1.537  -5.196   1.743  0.00  0.00    -0.086 C 
ATOM      9  H   UNL     1      -0.202  -5.772   2.604  0.00  0.00    -0.082 HD
ENDROOT
BRANCH   1  15
ATOM     10  C   UNL     1      -1.379  -1.746  -2.071  0.00  0.00    +0.088 C 
ATOM     11  C   UNL     1      -0.250  -1.521  -1.098  0.00  0.00    +0.127 A 
ATOM     12  N   UNL     1       0.771  -0.776  -1.465  0.00  0.00    -0.232 NA
ATOM     13  C   UNL     1       1.787  -0.556  -0.629  0.00  0.00    +0.081 A 
ATOM     14  C   UNL     1       1.748  -1.131   0.648  0.00  0.00    +0.052 A 
ATOM     15  C   UNL     1       0.654  -1.904   0.984  0.00  0.00    +0.047 A 
ATOM     16  N   UNL     1      -0.318  -2.071   0.098  0.00  0.00    -0.237 NA
BRANCH  13  17
ATOM     17  C   UNL     1       2.932   0.278  -1.042  0.00  0.00    +0.038 A 
ATOM     18  C   UNL     1       3.191   0.846  -2.263  0.00  0.00    +0.017 A 
ATOM     19  C   UNL     1       4.336   1.592  -2.415  0.00  0.00    +0.008 A 
ATOM     20  C   UNL     1       5.174   1.745  -1.355  0.00  0.00    +0.046 A 
ATOM     21  S   UNL     1       4.336   0.817  -0.080  0.00  0.00    -0.095 S 
ENDBRANCH  13  17
ENDBRANCH   1  15
BRANCH   8  22
ATOM     22  C   UNL     1       1.006  -5.350   0.316  0.00  0.00    -0.098 C 
BRANCH  22  23
ATOM     23  N   UNL     1       0.017  -6.436   0.277  0.00  0.00    +0.380 N 
ATOM     24  H   UNL     1       0.468  -7.310   0.501  0.00  0.00    -0.086 HD
ATOM     25  H   UNL     1      -0.712  -6.251   0.949  0.00  0.00    -0.086 HD
BRANCH  23  26
ATOM     26  C   UNL     1      -0.567  -6.517  -1.069  0.00  0.00    -0.068 C 
ATOM     27  C   UNL     1       0.507  -6.958  -2.068  0.00  0.00    +0.012 C 
ATOM     28  C   UNL     1      -0.128  -7.116  -3.452  0.00  0.00    +0.158 C 
ATOM     29  O   UNL     1      -1.197  -8.061  -3.378  0.00  0.00    -0.380 OA
ATOM     30  C   UNL     1      -2.254  -7.680  -2.495  0.00  0.00    +0.158 C 
ATOM     31  C   UNL     1      -1.704  -7.544  -1.073  0.00  0.00    +0.012 C 
ENDBRANCH  23  26
ENDBRANCH  22  23
ENDBRANCH   8  22
TORSDOF 5
