REMARK  Name = ZINC13575016
REMARK  8 active torsions:
REMARK  status: ('A' for Active; 'I' for Inactive)
REMARK    1  A    between atoms: C_4  and  S_7
REMARK    2  A    between atoms: S_7  and  N_10
REMARK    3  A    between atoms: N_10  and  C_11
REMARK    4  A    between atoms: N_10  and  C_24
REMARK    5  A    between atoms: C_11  and  C_12
REMARK    6  A    between atoms: N_14  and  C_15
REMARK    7  A    between atoms: C_21  and  O_23
REMARK    8  A    between atoms: C_27  and  N_30
REMARK                            x       y       z     vdW  Elec       q    Type
REMARK                         _______ _______ _______ _____ _____    ______ ____
ROOT
ATOM      1  N   UNL     1      -0.872   1.871   1.353  0.00  0.00    -0.194 N 
ENDROOT
BRANCH   1   2
ATOM      2  C   UNL     1      -0.508   3.021   2.057  0.00  0.00    +0.052 A 
ATOM      3  C   UNL     1       0.813   3.213   2.442  0.00  0.00    +0.027 A 
ATOM      4  C   UNL     1       1.171   4.354   3.132  0.00  0.00    +0.034 A 
ATOM      5  C   UNL     1       0.214   5.300   3.451  0.00  0.00    +0.126 A 
ATOM      6  C   UNL     1      -1.103   5.110   3.074  0.00  0.00    +0.034 A 
ATOM      7  C   UNL     1      -1.467   3.974   2.379  0.00  0.00    +0.027 A 
BRANCH   5   8
ATOM      8  N   UNL     1       0.600   6.519   4.196  0.00  0.00    +0.056 N 
ATOM      9  O   UNL     1      -0.242   7.354   4.477  0.00  0.00    -0.126 OA
ATOM     10  O   UNL     1       1.760   6.689   4.528  0.00  0.00    -0.126 OA
ENDBRANCH   5   8
ENDBRANCH   1   2
BRANCH   1  11
ATOM     11  S   UNL     1      -0.195   1.555  -0.124  0.00  0.00    +0.075 S 
ATOM     12  O   UNL     1      -0.318   0.155  -0.337  0.00  0.00    -0.150 OA
ATOM     13  O   UNL     1       1.060   2.221  -0.147  0.00  0.00    -0.150 OA
BRANCH  11  17
ATOM     14  C   UNL     1      -2.784   3.570  -3.243  0.00  0.00    +0.000 A 
ATOM     15  C   UNL     1      -1.726   4.255  -2.675  0.00  0.00    +0.002 A 
ATOM     16  C   UNL     1      -0.936   3.640  -1.723  0.00  0.00    +0.029 A 
ATOM     17  C   UNL     1      -1.203   2.339  -1.338  0.00  0.00    +0.109 A 
ATOM     18  C   UNL     1      -2.257   1.652  -1.909  0.00  0.00    +0.029 A 
ATOM     19  C   UNL     1      -3.051   2.269  -2.858  0.00  0.00    +0.002 A 
ENDBRANCH  11  17
ENDBRANCH   1  11
BRANCH   1  20
ATOM     20  C   UNL     1      -1.853   0.944   1.923  0.00  0.00    +0.227 C 
BRANCH  20  21
ATOM     21  C   UNL     1      -1.156  -0.018   2.850  0.00  0.00    +0.232 C 
ATOM     22  O   UNL     1       0.042   0.062   3.018  0.00  0.00    -0.274 OA
ATOM     23  N   UNL     1      -1.865  -0.968   3.491  0.00  0.00    -0.309 N 
ATOM     24  H   UNL     1      -2.823  -1.032   3.357  0.00  0.00    +0.149 HD
BRANCH  23  25
ATOM     25  C   UNL     1      -1.187  -1.904   4.393  0.00  0.00    +0.101 C 
ATOM     26  C   UNL     1      -1.056  -1.272   5.780  0.00  0.00    +0.025 C 
ATOM     27  C   UNL     1      -0.349  -2.249   6.721  0.00  0.00    +0.002 C 
ATOM     28  C   UNL     1      -1.165  -3.539   6.823  0.00  0.00    +0.003 C 
ATOM     29  C   UNL     1      -1.295  -4.171   5.436  0.00  0.00    +0.033 C 
ATOM     30  C   UNL     1      -2.003  -3.194   4.495  0.00  0.00    +0.135 C 
BRANCH  30  31
ATOM     31  O   UNL     1      -2.125  -3.785   3.200  0.00  0.00    -0.390 OA
ATOM     32  H   UNL     1      -2.631  -4.608   3.189  0.00  0.00    +0.210 HD
ENDBRANCH  30  31
ENDBRANCH  23  25
ENDBRANCH  20  21
ENDBRANCH   1  20
TORSDOF 8
