REMARK  Name = ZINC24775650
REMARK  4 active torsions:
REMARK  status: ('A' for Active; 'I' for Inactive)
REMARK    1  A    between atoms: C_1  and  N_2
REMARK    2  A    between atoms: C_6  and  S_8
REMARK    3  A    between atoms: S_8  and  C_9
REMARK    4  A    between atoms: C_17  and  C_19
REMARK                            x       y       z     vdW  Elec       q    Type
REMARK                         _______ _______ _______ _____ _____    ______ ____
ROOT
ATOM      1  C   UNL     1      -6.952  -0.391   1.853  0.00  0.00    +0.115 A 
ATOM      2  C   UNL     1      -8.301  -0.782   2.051  0.00  0.00    +0.033 A 
ATOM      3  C   UNL     1      -9.034  -0.372   3.169  0.00  0.00    +0.012 A 
ATOM      4  C   UNL     1     -10.332  -0.774   3.306  0.00  0.00    +0.001 A 
ATOM      5  C   UNL     1     -10.936  -1.580   2.346  0.00  0.00    +0.002 A 
ATOM      6  C   UNL     1     -10.249  -1.992   1.242  0.00  0.00    +0.028 A 
ATOM      7  C   UNL     1      -8.915  -1.598   1.070  0.00  0.00    +0.076 A 
ATOM      8  N   UNL     1      -8.197  -1.975   0.003  0.00  0.00    -0.227 NA
ATOM      9  C   UNL     1      -6.942  -1.587  -0.131  0.00  0.00    +0.161 A 
ATOM     10  N   UNL     1      -6.328  -0.817   0.764  0.00  0.00    -0.220 NA
ENDROOT
BRANCH   9  11
ATOM     11  C   UNL     1      -6.186  -2.029  -1.327  0.00  0.00    +0.019 A 
ATOM     12  C   UNL     1      -6.797  -2.841  -2.281  0.00  0.00    +0.011 A 
ATOM     13  C   UNL     1      -6.089  -3.244  -3.395  0.00  0.00    +0.001 A 
ATOM     14  C   UNL     1      -4.773  -2.853  -3.561  0.00  0.00    +0.000 A 
ATOM     15  C   UNL     1      -4.160  -2.052  -2.615  0.00  0.00    +0.001 A 
ATOM     16  C   UNL     1      -4.859  -1.637  -1.500  0.00  0.00    +0.011 A 
ENDBRANCH   9  11
BRANCH   1  17
ATOM     17  S   UNL     1      -6.125   0.629   3.028  0.00  0.00    -0.041 S 
BRANCH  17  23
ATOM     18  C   UNL     1      -0.013   1.086   0.008  0.00  0.00    +0.127 C 
ATOM     19  N   UNL     1      -0.698   1.558   1.213  0.00  0.00    -0.325 N 
ATOM     20  C   UNL     1      -2.022   1.203   1.444  0.00  0.00    +0.182 A 
ATOM     21  N   UNL     1      -2.829   0.464   0.708  0.00  0.00    -0.125 NA
ATOM     22  N   UNL     1      -4.118   0.231   1.130  0.00  0.00    -0.133 NA
ATOM     23  C   UNL     1      -4.543   0.756   2.262  0.00  0.00    +0.166 A 
ATOM     24  S   UNL     1      -3.087   1.633   2.812  0.00  0.00    -0.024 S 
ATOM     25  H   UNL     1      -0.166   2.194   1.936  0.00  0.00    +0.148 HD
ENDBRANCH  17  23
ENDBRANCH   1  17
TORSDOF 3
