REMARK  Name = ZINC39579311
REMARK  8 active torsions:
REMARK  status: ('A' for Active; 'I' for Inactive)
REMARK    1  A    between atoms: C_1  and  C_2
REMARK    2  A    between atoms: C_2  and  C_3
REMARK    3  A    between atoms: C_6  and  C_9
REMARK    4  A    between atoms: C_11  and  C_15
REMARK    5  A    between atoms: N_17  and  N_18
REMARK    6  A    between atoms: C_19  and  C_20
REMARK    7  A    between atoms: C_19  and  C_21
REMARK    8  A    between atoms: C_24  and  N_27
REMARK                            x       y       z     vdW  Elec       q    Type
REMARK                         _______ _______ _______ _____ _____    ______ ____
ROOT
ATOM      1  C   UNL     1     -10.123  -2.880  -0.709  0.00  0.00    +0.263 C 
ATOM      2  O   UNL     1     -10.778  -2.167   0.022  0.00  0.00    -0.271 OA
ATOM      3  N   UNL     1      -9.993  -2.569  -2.014  0.00  0.00    -0.205 N 
ATOM      4  H   UNL     1      -9.468  -3.139  -2.598  0.00  0.00    +0.177 HD
ENDROOT
BRANCH   1   7
ATOM      5  C   UNL     1      -7.853  -4.040   1.435  0.00  0.00    +0.092 C 
ATOM      6  C   UNL     1      -7.981  -3.849   0.108  0.00  0.00    +0.041 C 
ATOM      7  C   UNL     1      -9.453  -4.112  -0.157  0.00  0.00    +0.240 C 
ATOM      8  N   UNL     1      -9.980  -4.441   1.177  0.00  0.00    -0.170 NA
ATOM      9  N   UNL     1      -9.048  -4.386   1.982  0.00  0.00    -0.153 NA
BRANCH   5  13
ATOM     10  C   UNL     1      -4.217  -3.641   3.604  0.00  0.00    -0.048 A 
ATOM     11  C   UNL     1      -5.379  -3.997   4.265  0.00  0.00    +0.004 A 
ATOM     12  C   UNL     1      -6.562  -4.128   3.567  0.00  0.00    +0.010 A 
ATOM     13  C   UNL     1      -6.584  -3.901   2.192  0.00  0.00    +0.002 A 
ATOM     14  C   UNL     1      -5.411  -3.542   1.531  0.00  0.00    +0.010 A 
ATOM     15  C   UNL     1      -4.235  -3.409   2.240  0.00  0.00    +0.004 A 
BRANCH  10  17
ATOM     16  C   UNL     1      -2.790  -2.060   4.874  0.00  0.00    +0.009 C 
ATOM     17  C   UNL     1      -2.929  -3.499   4.373  0.00  0.00    +0.032 C 
ENDBRANCH  10  17
ENDBRANCH   5  13
ENDBRANCH   1   7
BRANCH   3  18
ATOM     18  N   UNL     1     -10.616  -1.424  -2.527  0.00  0.00    -0.184 NA
ATOM     19  C   UNL     1     -10.588  -1.186  -3.802  0.00  0.00    +0.063 C 
ATOM     20  C   UNL     1     -11.090   0.131  -4.335  0.00  0.00    +0.068 C 
BRANCH  19  21
ATOM     21  C   UNL     1     -10.065  -2.205  -4.731  0.00  0.00    -0.002 A 
ATOM     22  C   UNL     1     -10.305  -3.561  -4.494  0.00  0.00    +0.012 A 
ATOM     23  C   UNL     1      -9.813  -4.509  -5.367  0.00  0.00    +0.033 A 
ATOM     24  C   UNL     1      -9.081  -4.119  -6.475  0.00  0.00    +0.126 A 
ATOM     25  C   UNL     1      -8.839  -2.779  -6.716  0.00  0.00    +0.033 A 
ATOM     26  C   UNL     1      -9.331  -1.820  -5.855  0.00  0.00    +0.012 A 
BRANCH  24  27
ATOM     27  N   UNL     1      -8.556  -5.142  -7.407  0.00  0.00    +0.056 N 
ATOM     28  O   UNL     1      -8.766  -6.315  -7.199  0.00  0.00    -0.126 OA
ATOM     29  O   UNL     1      -7.916  -4.806  -8.376  0.00  0.00    -0.126 OA
ENDBRANCH  24  27
ENDBRANCH  19  21
ENDBRANCH   3  18
TORSDOF 6
