REMARK  Name = ZINC23215025
REMARK  11 active torsions:
REMARK  status: ('A' for Active; 'I' for Inactive)
REMARK    1  A    between atoms: C_1  and  O_2
REMARK    2  A    between atoms: O_2  and  C_3
REMARK    3  A    between atoms: C_5  and  C_14
REMARK    4  A    between atoms: C_6  and  N_11
REMARK    5  A    between atoms: C_8  and  O_9
REMARK    6  A    between atoms: O_9  and  C_10
REMARK    7  A    between atoms: C_15  and  C_16
REMARK    8  A    between atoms: C_15  and  C_18
REMARK    9  A    between atoms: N_20  and  C_21
REMARK   10  A    between atoms: C_24  and  S_27
REMARK   11  A    between atoms: S_27  and  C_28
REMARK                            x       y       z     vdW  Elec       q    Type
REMARK                         _______ _______ _______ _____ _____    ______ ____
ROOT
ATOM      1  C   UNL     1       1.163   2.606  -0.213  0.00  0.00    +0.034 C 
ATOM      2  C   UNL     1       0.092   1.740  -0.247  0.00  0.00    +0.114 C 
ENDROOT
BRANCH   1   5
ATOM      3  C   UNL     1       4.101   0.434   0.616  0.00  0.00    +0.162 A 
ATOM      4  C   UNL     1       2.812   0.924   0.576  0.00  0.00    +0.059 A 
ATOM      5  C   UNL     1       2.529   2.080  -0.165  0.00  0.00    +0.010 A 
ATOM      6  C   UNL     1       3.557   2.728  -0.865  0.00  0.00    +0.137 A 
ATOM      7  C   UNL     1       4.841   2.234  -0.813  0.00  0.00    +0.082 A 
ATOM      8  C   UNL     1       5.119   1.088  -0.079  0.00  0.00    +0.164 A 
BRANCH   6   9
ATOM      9  N   UNL     1       3.263   3.945  -1.655  0.00  0.00    +0.057 N 
ATOM     10  O   UNL     1       4.141   4.467  -2.318  0.00  0.00    -0.126 OA
ATOM     11  O   UNL     1       2.144   4.425  -1.641  0.00  0.00    -0.126 OA
ENDBRANCH   6   9
BRANCH   3  13
ATOM     12  C   UNL     1       3.289  -1.305   2.021  0.00  0.00    +0.277 C 
ATOM     13  O   UNL     1       4.380  -0.687   1.334  0.00  0.00    -0.491 OA
ENDBRANCH   3  13
BRANCH   8  14
ATOM     14  O   UNL     1       6.386   0.603  -0.037  0.00  0.00    -0.491 OA
ATOM     15  C   UNL     1       7.381   1.320  -0.771  0.00  0.00    +0.277 C 
ENDBRANCH   8  14
ENDBRANCH   1   5
BRANCH   2  16
ATOM     16  C   UNL     1      -1.280   2.264  -0.167  0.00  0.00    +0.259 C 
ATOM     17  O   UNL     1      -1.469   3.462  -0.066  0.00  0.00    -0.269 OA
ATOM     18  N   UNL     1      -2.328   1.417  -0.205  0.00  0.00    -0.281 N 
ATOM     19  H   UNL     1      -2.162   0.343  -0.375  0.00  0.00    +0.155 HD
BRANCH  18  20
ATOM     20  C   UNL     1      -3.629   1.905  -0.028  0.00  0.00    +0.034 A 
ATOM     21  C   UNL     1      -3.859   2.978   0.823  0.00  0.00    +0.024 A 
ATOM     22  C   UNL     1      -5.141   3.462   0.993  0.00  0.00    +0.017 A 
ATOM     23  C   UNL     1      -6.202   2.869   0.321  0.00  0.00    +0.013 A 
ATOM     24  C   UNL     1      -5.973   1.792  -0.526  0.00  0.00    +0.017 A 
ATOM     25  C   UNL     1      -4.690   1.311  -0.700  0.00  0.00    +0.024 A 
BRANCH  23  26
ATOM     26  S   UNL     1      -7.839   3.483   0.542  0.00  0.00    -0.056 S 
BRANCH  26  27
ATOM     27  C   UNL     1      -7.638   4.857   1.709  0.00  0.00    +0.404 C 
ATOM     28  F   UNL     1      -7.088   4.379   2.903  0.00  0.00    -0.197 F 
ATOM     29  F   UNL     1      -6.785   5.818   1.155  0.00  0.00    -0.197 F 
ENDBRANCH  26  27
ENDBRANCH  23  26
ENDBRANCH  18  20
ENDBRANCH   2  16
BRANCH   2  30
ATOM     30  C   UNL     1       0.315   0.331  -0.365  0.00  0.00    +0.104 C 
ATOM     31  N   UNL     1       0.491  -0.788  -0.459  0.00  0.00    -0.191 NA
ENDBRANCH   2  30
TORSDOF 9
