REMARK  Name = ZINC21355817
REMARK  16 active torsions:
REMARK  status: ('A' for Active; 'I' for Inactive)
REMARK    1  A    between atoms: C_1  and  C_2
REMARK    2  A    between atoms: C_2  and  O_3
REMARK    3  A    between atoms: O_3  and  C_4
REMARK    4  A    between atoms: C_4  and  C_6
REMARK    5  A    between atoms: C_8  and  C_15
REMARK    6  A    between atoms: C_10  and  N_12
REMARK    7  A    between atoms: N_17  and  C_18
REMARK    8  A    between atoms: N_17  and  C_22
REMARK    9  A    between atoms: C_18  and  C_19
REMARK   10  A    between atoms: C_19  and  C_20
REMARK   11  A    between atoms: C_19  and  C_21
REMARK   12  A    between atoms: C_23  and  N_35
REMARK   13  A    between atoms: N_24  and  C_31
REMARK   14  A    between atoms: C_31  and  C_32
REMARK   15  A    between atoms: C_32  and  C_33
REMARK   16  A    between atoms: C_32  and  C_34
REMARK                            x       y       z     vdW  Elec       q    Type
REMARK                         _______ _______ _______ _____ _____    ______ ____
ROOT
ATOM      1  C   UNL     1      -0.340  -2.551   3.898  0.00  0.00    +0.251 C 
ATOM      2  O   UNL     1      -0.535  -3.200   4.908  0.00  0.00    -0.270 OA
ATOM      3  N   UNL     1      -0.171  -3.177   2.717  0.00  0.00    -0.260 N 
ENDROOT
BRANCH   3   4
ATOM      4  C   UNL     1      -0.061  -2.425   1.529  0.00  0.00    +0.140 A 
ATOM      5  C   UNL     1      -0.930  -2.641   0.479  0.00  0.00    +0.127 A 
ATOM      6  N   UNL     1      -0.799  -1.891  -0.667  0.00  0.00    -0.280 N 
ATOM      7  C   UNL     1       0.169  -0.962  -0.765  0.00  0.00    +0.331 A 
ATOM      8  O   UNL     1       0.272  -0.313  -1.788  0.00  0.00    -0.246 OA
ATOM      9  N   UNL     1       1.022  -0.734   0.250  0.00  0.00    -0.273 N 
ATOM     10  H   UNL     1       1.800   0.037   0.152  0.00  0.00    +0.173 HD
ATOM     11  C   UNL     1       0.936  -1.441   1.394  0.00  0.00    +0.277 A 
ATOM     12  O   UNL     1       1.717  -1.229   2.306  0.00  0.00    -0.266 OA
BRANCH   5  13
ATOM     13  N   UNL     1      -1.916  -3.594   0.577  0.00  0.00    -0.343 N 
ATOM     14  H   UNL     1      -2.605  -3.761  -0.265  0.00  0.00    +0.144 HD
ATOM     15  H   UNL     1      -2.016  -4.190   1.496  0.00  0.00    +0.144 HD
ENDBRANCH   5  13
BRANCH   6  16
ATOM     16  C   UNL     1      -1.714  -2.110  -1.790  0.00  0.00    +0.131 C 
BRANCH  16  17
ATOM     17  C   UNL     1      -2.934  -1.200  -1.638  0.00  0.00    +0.003 C 
ATOM     18  C   UNL     1      -2.497   0.262  -1.751  0.00  0.00    +0.009 C 
ATOM     19  C   UNL     1      -3.947  -1.516  -2.740  0.00  0.00    +0.009 C 
ENDBRANCH  16  17
ENDBRANCH   6  16
ENDBRANCH   3   4
BRANCH   1  22
ATOM     20  C   UNL     1       0.044   0.950   5.229  0.00  0.00    +0.062 A 
ATOM     21  C   UNL     1      -0.004  -0.442   5.174  0.00  0.00    +0.028 A 
ATOM     22  C   UNL     1      -0.287  -1.075   3.966  0.00  0.00    +0.040 A 
ATOM     23  C   UNL     1      -0.515  -0.313   2.818  0.00  0.00    +0.045 A 
ATOM     24  C   UNL     1      -0.471   1.066   2.880  0.00  0.00    +0.128 A 
ATOM     25  C   UNL     1      -0.192   1.700   4.074  0.00  0.00    +0.047 A 
BRANCH  24  26
ATOM     26  N   UNL     1      -0.718   1.867   1.661  0.00  0.00    +0.056 N 
ATOM     27  O   UNL     1      -0.773   3.082   1.730  0.00  0.00    -0.126 OA
ATOM     28  O   UNL     1      -0.867   1.312   0.587  0.00  0.00    -0.126 OA
ENDBRANCH  24  26
BRANCH  20  29
ATOM     29  C   UNL     1       0.344   1.631   6.506  0.00  0.00    +0.339 C 
ATOM     30  O   UNL     1       0.548   0.977   7.509  0.00  0.00    -0.245 OA
BRANCH  29  31
ATOM     31  O   UNL     1       0.390   2.976   6.558  0.00  0.00    -0.461 OA
BRANCH  31  33
ATOM     32  C   UNL     1       0.698   5.100   7.708  0.00  0.00    +0.048 C 
ATOM     33  C   UNL     1       0.690   3.576   7.845  0.00  0.00    +0.229 C 
ENDBRANCH  31  33
ENDBRANCH  29  31
ENDBRANCH  20  29
ENDBRANCH   1  22
BRANCH   3  34
ATOM     34  C   UNL     1      -0.101  -4.640   2.667  0.00  0.00    +0.117 C 
BRANCH  34  35
ATOM     35  C   UNL     1       1.329  -5.093   2.971  0.00  0.00    +0.001 C 
ATOM     36  C   UNL     1       1.370  -6.619   3.072  0.00  0.00    +0.009 C 
ATOM     37  C   UNL     1       2.260  -4.631   1.848  0.00  0.00    +0.009 C 
ENDBRANCH  34  35
ENDBRANCH   3  34
TORSDOF 11
