REMARK  Name = ZINC36784589
REMARK  8 active torsions:
REMARK  status: ('A' for Active; 'I' for Inactive)
REMARK    1  A    between atoms: C_1  and  C_2
REMARK    2  A    between atoms: C_2  and  C_3
REMARK    3  A    between atoms: C_3  and  C_28
REMARK    4  A    between atoms: N_6  and  N_10
REMARK    5  A    between atoms: C_11  and  C_13
REMARK    6  A    between atoms: C_13  and  S_14
REMARK    7  A    between atoms: S_14  and  C_15
REMARK    8  A    between atoms: C_18  and  C_21
REMARK                            x       y       z     vdW  Elec       q    Type
REMARK                         _______ _______ _______ _____ _____    ______ ____
ROOT
ATOM      1  N   UNL     1      -4.167   1.333  -1.528  0.00  0.00    -0.223 N 
ATOM      2  C   UNL     1      -5.410   0.825  -1.635  0.00  0.00    +0.240 C 
ATOM      3  O   UNL     1      -5.705  -0.187  -1.036  0.00  0.00    -0.273 OA
ATOM      4  H   UNL     1      -3.931   2.143  -2.007  0.00  0.00    +0.174 HD
ENDROOT
BRANCH   1   8
ATOM      5  C   UNL     1      -1.433  -0.534   0.013  0.00  0.00    +0.139 C 
ATOM      6  C   UNL     1      -2.192  -0.043  -1.205  0.00  0.00    +0.268 C 
ATOM      7  O   UNL     1      -1.933  -0.267  -2.368  0.00  0.00    -0.271 OA
ATOM      8  N   UNL     1      -3.214   0.692  -0.725  0.00  0.00    -0.137 N 
ATOM      9  C   UNL     1      -3.207   0.734   0.612  0.00  0.00    +0.327 C 
ATOM     10  O   UNL     1      -4.031   1.335   1.273  0.00  0.00    -0.251 OA
ATOM     11  N   UNL     1      -2.187   0.036   1.143  0.00  0.00    -0.280 N 
ATOM     12  H   UNL     1      -1.987  -0.072   2.086  0.00  0.00    +0.152 HD
BRANCH   5  13
ATOM     13  C   UNL     1      -1.441  -2.039   0.076  0.00  0.00    -0.015 A 
ATOM     14  C   UNL     1      -0.400  -2.759  -0.480  0.00  0.00    +0.006 A 
ATOM     15  C   UNL     1      -0.407  -4.141  -0.423  0.00  0.00    +0.000 A 
ATOM     16  C   UNL     1      -1.454  -4.802   0.191  0.00  0.00    +0.000 A 
ATOM     17  C   UNL     1      -2.495  -4.082   0.748  0.00  0.00    +0.000 A 
ATOM     18  C   UNL     1      -2.486  -2.700   0.694  0.00  0.00    +0.006 A 
ENDBRANCH   5  13
BRANCH   5  20
ATOM     19  C   UNL     1      -0.019   1.526   0.010  0.00  0.00    +0.007 C 
ATOM     20  C   UNL     1       0.002  -0.004   0.002  0.00  0.00    +0.037 C 
ENDBRANCH   5  20
ENDBRANCH   1   8
BRANCH   2  21
ATOM     21  C   UNL     1      -6.435   1.516  -2.498  0.00  0.00    +0.174 C 
BRANCH  21  22
ATOM     22  S   UNL     1      -7.997   0.596  -2.436  0.00  0.00    -0.077 S 
BRANCH  22  23
ATOM     23  C   UNL     1      -9.076   1.517  -3.481  0.00  0.00    +0.185 A 
ATOM     24  N   UNL     1      -8.767   2.615  -4.135  0.00  0.00    -0.201 NA
ATOM     25  H   UNL     1     -10.867   0.457  -3.418  0.00  0.00    +0.191 HD
ATOM     26  C   UNL     1      -9.832   3.041  -4.829  0.00  0.00    +0.185 A 
ATOM     27  N   UNL     1     -10.832   2.215  -4.622  0.00  0.00    -0.151 NA
ATOM     28  N   UNL     1     -10.364   1.215  -3.755  0.00  0.00    -0.253 N 
BRANCH  26  29
ATOM     29  C   UNL     1      -9.874   4.249  -5.690  0.00  0.00    +0.056 A 
ATOM     30  C   UNL     1      -8.740   5.045  -5.833  0.00  0.00    +0.014 A 
ATOM     31  C   UNL     1      -8.784   6.167  -6.635  0.00  0.00    +0.001 A 
ATOM     32  C   UNL     1      -9.951   6.503  -7.297  0.00  0.00    +0.003 A 
ATOM     33  C   UNL     1     -11.081   5.718  -7.160  0.00  0.00    +0.039 A 
ATOM     34  C   UNL     1     -11.047   4.588  -6.364  0.00  0.00    +0.134 A 
ATOM     35  F   UNL     1     -12.150   3.818  -6.234  0.00  0.00    -0.205 F 
ENDBRANCH  26  29
ENDBRANCH  22  23
ENDBRANCH  21  22
ENDBRANCH   2  21
TORSDOF 7
