REMARK  Name = ZINC63386004
REMARK  9 active torsions:
REMARK  status: ('A' for Active; 'I' for Inactive)
REMARK    1  A    between atoms: C_1  and  C_2
REMARK    2  A    between atoms: C_2  and  O_3
REMARK    3  A    between atoms: O_3  and  C_4
REMARK    4  A    between atoms: C_4  and  C_6
REMARK    5  A    between atoms: C_10  and  N_12
REMARK    6  A    between atoms: C_13  and  C_15
REMARK    7  A    between atoms: N_26  and  C_28
REMARK    8  A    between atoms: C_28  and  C_29
REMARK    9  A    between atoms: C_29  and  C_30
REMARK                            x       y       z     vdW  Elec       q    Type
REMARK                         _______ _______ _______ _____ _____    ______ ____
ROOT
ATOM      1  C   UNL     1       3.145  -7.567  -5.464  0.00  0.00    +0.123 C 
ATOM      2  C   UNL     1       3.999  -8.260  -4.354  0.00  0.00    +0.155 C 
ATOM      3  C   UNL     1       4.032  -9.756  -4.688  0.00  0.00    +0.004 C 
ATOM      4  C   UNL     1       4.835  -9.910  -5.748  0.00  0.00    +0.008 C 
ATOM      5  C   UNL     1       5.251  -8.522  -6.080  0.00  0.00    +0.116 C 
ATOM      6  C   UNL     1       4.015  -7.785  -6.715  0.00  0.00    +0.127 C 
ATOM      7  C   UNL     1       4.650  -6.541  -7.269  0.00  0.00    +0.223 C 
ATOM      8  O   UNL     1       4.079  -5.489  -7.466  0.00  0.00    -0.275 OA
ATOM      9  N   UNL     1       5.963  -6.779  -7.514  0.00  0.00    -0.298 N 
ATOM     10  C   UNL     1       6.340  -8.167  -7.043  0.00  0.00    +0.147 C 
ATOM     11  O   UNL     1       5.349  -7.847  -4.778  0.00  0.00    -0.359 OA
ENDROOT
BRANCH   1  13
ATOM     12  N   UNL     1       1.891  -5.441  -5.632  0.00  0.00    -0.285 N 
ATOM     13  C   UNL     1       2.976  -6.098  -5.175  0.00  0.00    +0.224 C 
ATOM     14  O   UNL     1       3.816  -5.505  -4.531  0.00  0.00    -0.275 OA
ATOM     15  H   UNL     1       1.187  -5.927  -6.089  0.00  0.00    +0.155 HD
BRANCH  12  20
ATOM     16  C   UNL     1       1.068  -1.897  -6.228  0.00  0.00    +0.061 A 
ATOM     17  C   UNL     1       1.570  -1.316  -5.061  0.00  0.00    +0.015 A 
ATOM     18  C   UNL     1       2.169  -2.105  -4.101  0.00  0.00    +0.003 A 
ATOM     19  C   UNL     1       2.275  -3.471  -4.289  0.00  0.00    +0.023 A 
ATOM     20  C   UNL     1       1.780  -4.059  -5.446  0.00  0.00    +0.034 A 
ATOM     21  C   UNL     1       1.170  -3.276  -6.415  0.00  0.00    +0.038 A 
BRANCH  16  22
ATOM     22  C   UNL     1       0.425  -1.055  -7.258  0.00  0.00    +0.339 C 
ATOM     23  O   UNL     1      -0.015  -1.563  -8.270  0.00  0.00    -0.245 OA
BRANCH  22  24
ATOM     24  O   UNL     1       0.328   0.276  -7.075  0.00  0.00    -0.461 OA
BRANCH  24  26
ATOM     25  C   UNL     1      -0.323   2.510  -7.729  0.00  0.00    +0.048 C 
ATOM     26  C   UNL     1      -0.305   1.028  -8.112  0.00  0.00    +0.229 C 
ENDBRANCH  24  26
ENDBRANCH  22  24
ENDBRANCH  16  22
ENDBRANCH  12  20
ENDBRANCH   1  13
BRANCH   9  27
ATOM     27  C   UNL     1       6.872  -5.834  -8.167  0.00  0.00    +0.112 C 
BRANCH  27  28
ATOM     28  C   UNL     1       7.530  -4.944  -7.111  0.00  0.00    +0.052 C 
BRANCH  28  29
ATOM     29  C   UNL     1       8.465  -3.972  -7.783  0.00  0.00    -0.040 C 
ATOM     30  C   UNL     1       8.188  -2.701  -8.152  0.00  0.00    -0.001 A 
ATOM     31  C   UNL     1       6.980  -1.875  -8.044  0.00  0.00    +0.010 A 
ATOM     32  C   UNL     1       7.007  -0.607  -8.516  0.00  0.00    +0.001 A 
ATOM     33  C   UNL     1       8.158  -0.065  -9.105  0.00  0.00    +0.002 A 
ATOM     34  C   UNL     1       9.305  -0.762  -9.240  0.00  0.00    +0.026 A 
ATOM     35  C   UNL     1       9.390  -2.105  -8.778  0.00  0.00    +0.043 A 
ATOM     36  N   UNL     1      10.371  -2.974  -8.795  0.00  0.00    -0.380 N 
ATOM     37  C   UNL     1       9.904  -4.219  -8.176  0.00  0.00    +0.144 C 
ATOM     38  H   UNL     1      11.259  -2.818  -9.153  0.00  0.00    +0.160 HD
ENDBRANCH  28  29
ENDBRANCH  27  28
ENDBRANCH   9  27
TORSDOF 8
