REMARK  Name = ZINC60095044
REMARK  14 active torsions:
REMARK  status: ('A' for Active; 'I' for Inactive)
REMARK    1  A    between atoms: C_1  and  C_2
REMARK    2  A    between atoms: C_5  and  C_33
REMARK    3  A    between atoms: N_8  and  C_10
REMARK    4  A    between atoms: C_10  and  C_11
REMARK    5  A    between atoms: C_10  and  C_12
REMARK    6  A    between atoms: C_10  and  C_13
REMARK    7  A    between atoms: C_13  and  N_14
REMARK    8  A    between atoms: C_15  and  C_17
REMARK    9  A    between atoms: C_17  and  C_18
REMARK   10  A    between atoms: C_18  and  N_19
REMARK   11  A    between atoms: N_19  and  C_20
REMARK   12  A    between atoms: C_23  and  S_29
REMARK   13  A    between atoms: C_25  and  N_26
REMARK   14  A    between atoms: S_29  and  N_32
REMARK                            x       y       z     vdW  Elec       q    Type
REMARK                         _______ _______ _______ _____ _____    ______ ____
ROOT
ATOM      1  C   UNL     1       3.965   2.028   3.154  0.00  0.00    +0.114 C 
ENDROOT
BRANCH   1   3
ATOM      2  N   UNL     1       3.090  -0.203   3.768  0.00  0.00    -0.317 N 
ATOM      3  C   UNL     1       4.117   0.536   3.305  0.00  0.00    +0.214 C 
ATOM      4  O   UNL     1       5.165   0.001   3.011  0.00  0.00    -0.276 OA
ATOM      5  H   UNL     1       2.252   0.225   4.003  0.00  0.00    +0.149 HD
BRANCH   2   6
ATOM      6  C   UNL     1       3.238  -1.653   3.915  0.00  0.00    +0.092 C 
BRANCH   6   7
ATOM      7  C   UNL     1       1.903  -2.260   4.353  0.00  0.00    -0.055 C 
ATOM      8  C   UNL     1       2.067  -3.770   4.538  0.00  0.00    -0.008 C 
ATOM      9  C   UNL     1       0.844  -1.989   3.282  0.00  0.00    -0.008 C 
BRANCH   7  15
ATOM     10  C   UNL     1       3.218  -1.385   8.987  0.00  0.00    +0.005 C 
ATOM     11  C   UNL     1       2.129  -1.163   7.935  0.00  0.00    -0.031 C 
ATOM     12  C   UNL     1       0.805  -1.746   8.438  0.00  0.00    +0.003 C 
ATOM     13  C   UNL     1      -0.258  -1.589   7.347  0.00  0.00    -0.031 C 
ATOM     14  C   UNL     1       0.228  -2.273   6.067  0.00  0.00    -0.075 C 
ATOM     15  N   UNL     1       1.482  -1.654   5.623  0.00  0.00    +0.384 N 
ATOM     16  C   UNL     1       2.527  -1.862   6.633  0.00  0.00    -0.075 C 
ATOM     17  C   UNL     1      -1.564  -2.238   7.809  0.00  0.00    +0.005 C 
ATOM     18  H   UNL     1       1.339  -0.664   5.489  0.00  0.00    -0.081 HD
ENDBRANCH   7  15
ENDBRANCH   6   7
ENDBRANCH   2   6
ENDBRANCH   1   3
BRANCH   1  19
ATOM     19  C   UNL     1       5.268   2.622   2.615  0.00  0.00    +0.111 C 
BRANCH  19  20
ATOM     20  N   UNL     1       5.119   4.072   2.468  0.00  0.00    -0.342 N 
ATOM     21  H   UNL     1       4.282   4.500   2.703  0.00  0.00    +0.146 HD
BRANCH  20  22
ATOM     22  C   UNL     1       6.185   4.837   1.988  0.00  0.00    +0.058 A 
ATOM     23  C   UNL     1       7.430   4.253   1.794  0.00  0.00    +0.027 A 
ATOM     24  C   UNL     1       8.481   5.013   1.320  0.00  0.00    +0.030 A 
ATOM     25  C   UNL     1       8.294   6.354   1.038  0.00  0.00    +0.107 A 
ATOM     26  C   UNL     1       7.056   6.939   1.230  0.00  0.00    +0.063 A 
ATOM     27  C   UNL     1       6.000   6.183   1.699  0.00  0.00    +0.149 A 
BRANCH  27  28
ATOM     28  N   UNL     1       4.673   6.808   1.899  0.00  0.00    +0.058 N 
ATOM     29  O   UNL     1       3.667   6.188   1.641  0.00  0.00    -0.126 OA
ATOM     30  O   UNL     1       4.595   7.939   2.320  0.00  0.00    -0.126 OA
ENDBRANCH  27  28
BRANCH  25  31
ATOM     31  S   UNL     1       9.638   7.320   0.432  0.00  0.00    +0.056 S 
ATOM     32  O   UNL     1       9.348   8.672   0.763  0.00  0.00    -0.153 OA
ATOM     33  O   UNL     1      10.829   6.671   0.857  0.00  0.00    -0.153 OA
BRANCH  31  34
ATOM     34  N   UNL     1       9.608   7.220  -1.220  0.00  0.00    -0.204 NA
ATOM     35  H   UNL     1       9.934   7.960  -1.757  0.00  0.00    +0.144 HD
ATOM     36  H   UNL     1       9.264   6.423  -1.651  0.00  0.00    +0.144 HD
ENDBRANCH  31  34
ENDBRANCH  25  31
ENDBRANCH  20  22
ENDBRANCH  19  20
ENDBRANCH   1  19
TORSDOF 10
