REMARK  Name = ZINC32937787
REMARK  9 active torsions:
REMARK  status: ('A' for Active; 'I' for Inactive)
REMARK    1  A    between atoms: C_1  and  C_2
REMARK    2  A    between atoms: C_2  and  C_4
REMARK    3  A    between atoms: C_2  and  N_14
REMARK    4  A    between atoms: C_15  and  C_17
REMARK    5  A    between atoms: C_17  and  O_18
REMARK    6  A    between atoms: O_18  and  C_19
REMARK    7  A    between atoms: C_19  and  C_21
REMARK    8  A    between atoms: N_29  and  C_30
REMARK    9  A    between atoms: C_30  and  C_31
REMARK                            x       y       z     vdW  Elec       q    Type
REMARK                         _______ _______ _______ _____ _____    ______ ____
ROOT
ATOM      1  O   UNL     1      -0.685   1.556   1.202  0.00  0.00    -0.455 OA
ENDROOT
BRANCH   1   2
ATOM      2  C   UNL     1      -0.160   1.195   2.383  0.00  0.00    +0.311 C 
ATOM      3  O   UNL     1       0.836   0.512   2.419  0.00  0.00    -0.251 OA
BRANCH   2   4
ATOM      4  C   UNL     1      -0.813   1.643   3.666  0.00  0.00    +0.101 C 
ATOM      5  C   UNL     1      -0.834   3.173   3.720  0.00  0.00    +0.034 C 
ATOM      6  C   UNL     1      -1.529   3.624   5.008  0.00  0.00    +0.110 C 
ATOM      7  N   UNL     1      -0.861   2.990   6.153  0.00  0.00    -0.286 N 
ATOM      8  C   UNL     1      -0.706   1.528   6.159  0.00  0.00    +0.110 C 
ATOM      9  C   UNL     1      -0.021   1.100   4.857  0.00  0.00    +0.034 C 
ATOM     10  C   UNL     1      -0.400   3.733   7.178  0.00  0.00    +0.303 C 
ATOM     11  O   UNL     1       0.068   3.191   8.160  0.00  0.00    -0.253 OA
ATOM     12  N   UNL     1      -0.457   5.078   7.114  0.00  0.00    -0.292 N 
ATOM     13  H   UNL     1      -0.956   5.568   6.264  0.00  0.00    +0.151 HD
BRANCH  12  14
ATOM     14  C   UNL     1       0.144   5.888   8.176  0.00  0.00    +0.180 C 
BRANCH  14  15
ATOM     15  C   UNL     1      -0.057   7.350   7.868  0.00  0.00    +0.122 A 
ATOM     16  C   UNL     1      -1.106   8.098   8.252  0.00  0.00    +0.046 A 
ATOM     17  C   UNL     1      -0.887   9.401   7.749  0.00  0.00    +0.041 A 
ATOM     18  C   UNL     1       0.284   9.371   7.087  0.00  0.00    +0.195 A 
ATOM     19  O   UNL     1       0.785   8.127   7.167  0.00  0.00    -0.466 OA
ENDBRANCH  14  15
ENDBRANCH  12  14
ENDBRANCH   2   4
ENDBRANCH   1   2
BRANCH   1  20
ATOM     20  C   UNL     1      -0.004   1.088   0.008  0.00  0.00    +0.327 C 
BRANCH  20  22
ATOM     21  N   UNL     1      -0.278   1.275  -2.444  0.00  0.00    -0.306 N 
ATOM     22  C   UNL     1      -0.733   1.587  -1.214  0.00  0.00    +0.251 C 
ATOM     23  O   UNL     1      -1.727   2.270  -1.090  0.00  0.00    -0.272 OA
ATOM     24  H   UNL     1       0.624   0.656  -2.556  0.00  0.00    +0.149 HD
BRANCH  21  26
ATOM     25  C   UNL     1      -2.129   0.802  -3.970  0.00  0.00    +0.033 C 
ATOM     26  C   UNL     1      -0.986   1.760  -3.631  0.00  0.00    +0.100 C 
BRANCH  26  27
ATOM     27  C   UNL     1      -0.028   1.831  -4.793  0.00  0.00    -0.027 A 
ATOM     28  C   UNL     1       0.911   0.833  -4.979  0.00  0.00    +0.006 A 
ATOM     29  C   UNL     1       1.786   0.907  -6.043  0.00  0.00    +0.004 A 
ATOM     30  C   UNL     1       1.731   1.975  -6.930  0.00  0.00    -0.044 A 
ATOM     31  C   UNL     1       0.793   2.966  -6.747  0.00  0.00    -0.044 A 
ATOM     32  C   UNL     1      -0.089   2.888  -5.676  0.00  0.00    +0.009 A 
ATOM     33  C   UNL     1       0.670   4.147  -7.673  0.00  0.00    +0.035 C 
ATOM     34  C   UNL     1       1.940   4.312  -8.504  0.00  0.00    +0.005 C 
ATOM     35  C   UNL     1       2.271   2.963  -9.155  0.00  0.00    +0.005 C 
ATOM     36  C   UNL     1       2.725   1.999  -8.061  0.00  0.00    +0.035 C 
ENDBRANCH  26  27
ENDBRANCH  21  26
ENDBRANCH  20  22
ENDBRANCH   1  20
TORSDOF 8
