REMARK  Name = ZINC41154504
REMARK  6 active torsions:
REMARK  status: ('A' for Active; 'I' for Inactive)
REMARK    1  A    between atoms: C_3  and  C_6
REMARK    2  A    between atoms: C_8  and  C_11
REMARK    3  A    between atoms: C_11  and  C_12
REMARK    4  A    between atoms: C_12  and  N_13
REMARK    5  A    between atoms: N_13  and  S_14
REMARK    6  A    between atoms: S_14  and  C_17
REMARK                            x       y       z     vdW  Elec       q    Type
REMARK                         _______ _______ _______ _____ _____    ______ ____
ROOT
ATOM      1  N   UNL     1       9.185   0.696  -1.539  0.00  0.00    -0.189 NA
ATOM      2  H   UNL     1       9.723   0.737  -0.733  0.00  0.00    +0.148 HD
ENDROOT
BRANCH   1   3
ATOM      3  S   UNL     1       9.832   0.089  -2.937  0.00  0.00    +0.059 S 
ATOM      4  O   UNL     1      11.179  -0.257  -2.645  0.00  0.00    -0.153 OA
ATOM      5  O   UNL     1       8.896  -0.853  -3.443  0.00  0.00    -0.153 OA
BRANCH   3   6
ATOM      6  C   UNL     1       9.893   1.412  -4.100  0.00  0.00    +0.109 A 
ATOM      7  C   UNL     1       8.817   1.647  -4.935  0.00  0.00    +0.032 A 
ATOM      8  C   UNL     1       8.860   2.683  -5.848  0.00  0.00    +0.051 A 
ATOM      9  C   UNL     1       9.984   3.490  -5.929  0.00  0.00    +0.166 A 
ATOM     10  C   UNL     1      11.068   3.253  -5.088  0.00  0.00    +0.168 A 
ATOM     11  C   UNL     1      11.015   2.216  -4.171  0.00  0.00    +0.078 A 
ATOM     12  O   UNL     1      12.040   4.173  -5.359  0.00  0.00    -0.453 OA
ATOM     13  C   UNL     1      11.705   4.716  -6.650  0.00  0.00    +0.466 C 
ATOM     14  O   UNL     1      10.276   4.558  -6.728  0.00  0.00    -0.453 OA
ENDBRANCH   3   6
ENDBRANCH   1   3
BRANCH   1  15
ATOM     15  C   UNL     1       7.799   1.172  -1.519  0.00  0.00    +0.115 C 
BRANCH  15  16
ATOM     16  C   UNL     1       7.333   1.324  -0.070  0.00  0.00    +0.115 C 
BRANCH  16  19
ATOM     17  C   UNL     1       3.738   1.826  -0.024  0.00  0.00    +0.209 A 
ATOM     18  N   UNL     1       4.846   1.060  -0.044  0.00  0.00    -0.191 NA
ATOM     19  C   UNL     1       5.908   1.813  -0.049  0.00  0.00    +0.229 A 
ATOM     20  O   UNL     1       5.522   3.095  -0.032  0.00  0.00    -0.338 OA
ATOM     21  N   UNL     1       4.102   3.087  -0.022  0.00  0.00    -0.056 NA
BRANCH  17  24
ATOM     22  C   UNL     1      -0.016   1.355   0.009  0.00  0.00    +0.008 A 
ATOM     23  C   UNL     1       1.176   2.042   0.002  0.00  0.00    +0.019 A 
ATOM     24  C   UNL     1       2.346   1.330  -0.013  0.00  0.00    +0.060 A 
ATOM     25  S   UNL     1       1.753  -0.354  -0.017  0.00  0.00    -0.093 S 
ATOM     26  C   UNL     1       0.002  -0.004   0.002  0.00  0.00    +0.046 A 
ENDBRANCH  17  24
ENDBRANCH  16  19
ENDBRANCH  15  16
ENDBRANCH   1  15
TORSDOF 6
