REMARK  Name = ZINC04593389
REMARK  8 active torsions:
REMARK  status: ('A' for Active; 'I' for Inactive)
REMARK    1  A    between atoms: C_2  and  C_3
REMARK    2  A    between atoms: C_3  and  N_4
REMARK    3  A    between atoms: C_5  and  C_23
REMARK    4  A    between atoms: C_8  and  S_9
REMARK    5  A    between atoms: S_9  and  C_10
REMARK    6  A    between atoms: C_10  and  C_11
REMARK    7  A    between atoms: N_13  and  C_14
REMARK    8  A    between atoms: C_17  and  N_20
REMARK                            x       y       z     vdW  Elec       q    Type
REMARK                         _______ _______ _______ _____ _____    ______ ____
ROOT
ATOM      1  S   UNL     1      -3.257  -0.680   0.651  0.00  0.00    -0.077 S 
ENDROOT
BRANCH   1   6
ATOM      2  N   UNL     1      -1.976   1.694   1.393  0.00  0.00    -0.298 N 
ATOM      3  C   UNL     1      -1.931   2.488   2.515  0.00  0.00    +0.167 A 
ATOM      4  N   UNL     1      -2.699   1.922   3.418  0.00  0.00    -0.128 NA
ATOM      5  N   UNL     1      -3.212   0.844   2.944  0.00  0.00    -0.122 NA
ATOM      6  C   UNL     1      -2.809   0.658   1.707  0.00  0.00    +0.193 A 
BRANCH   3   7
ATOM      7  C   UNL     1      -1.165   3.742   2.675  0.00  0.00    +0.037 A 
ATOM      8  C   UNL     1      -1.491   4.652   3.688  0.00  0.00    +0.014 A 
ATOM      9  C   UNL     1      -0.743   5.811   3.794  0.00  0.00    +0.020 A 
ATOM     10  C   UNL     1       0.293   6.032   2.904  0.00  0.00    +0.111 A 
ATOM     11  N   UNL     1       0.578   5.157   1.960  0.00  0.00    -0.263 NA
ATOM     12  C   UNL     1      -0.101   4.037   1.821  0.00  0.00    +0.122 A 
ENDBRANCH   3   7
BRANCH   2  13
ATOM     13  C   UNL     1      -1.279   1.916   0.123  0.00  0.00    +0.152 C 
BRANCH  13  15
ATOM     14  C   UNL     1       1.149   1.839  -0.117  0.00  0.00    +0.005 C 
ATOM     15  C   UNL     1       0.041   1.190   0.141  0.00  0.00    -0.013 C 
ENDBRANCH  13  15
ENDBRANCH   2  13
ENDBRANCH   1   6
BRANCH   1  16
ATOM     16  C   UNL     1      -4.354  -1.600   1.759  0.00  0.00    +0.173 C 
BRANCH  16  17
ATOM     17  C   UNL     1      -4.873  -2.823   1.049  0.00  0.00    +0.227 C 
ATOM     18  O   UNL     1      -4.535  -3.051  -0.094  0.00  0.00    -0.275 OA
ATOM     19  N   UNL     1      -5.714  -3.665   1.683  0.00  0.00    -0.285 N 
ATOM     20  H   UNL     1      -6.042  -3.446   2.569  0.00  0.00    +0.155 HD
BRANCH  19  21
ATOM     21  C   UNL     1      -6.114  -4.854   1.062  0.00  0.00    +0.034 A 
ATOM     22  C   UNL     1      -7.387  -5.361   1.286  0.00  0.00    +0.025 A 
ATOM     23  C   UNL     1      -7.781  -6.531   0.667  0.00  0.00    +0.034 A 
ATOM     24  C   UNL     1      -6.905  -7.204  -0.164  0.00  0.00    +0.126 A 
ATOM     25  C   UNL     1      -5.634  -6.705  -0.384  0.00  0.00    +0.034 A 
ATOM     26  C   UNL     1      -5.237  -5.532   0.227  0.00  0.00    +0.025 A 
BRANCH  24  27
ATOM     27  N   UNL     1      -7.328  -8.462  -0.820  0.00  0.00    +0.056 N 
ATOM     28  O   UNL     1      -6.558  -9.055  -1.553  0.00  0.00    -0.126 OA
ATOM     29  O   UNL     1      -8.447  -8.903  -0.627  0.00  0.00    -0.126 OA
ENDBRANCH  24  27
ENDBRANCH  19  21
ENDBRANCH  16  17
ENDBRANCH   1  16
TORSDOF 8
