REMARK  Name = ZINC11911508
REMARK  7 active torsions:
REMARK  status: ('A' for Active; 'I' for Inactive)
REMARK    1  A    between atoms: C_4  and  O_7
REMARK    2  A    between atoms: O_7  and  C_8
REMARK    3  A    between atoms: C_8  and  C_9
REMARK    4  A    between atoms: N_11  and  C_12
REMARK    5  A    between atoms: C_21  and  O_23
REMARK    6  A    between atoms: C_28  and  C_29
REMARK    7  A    between atoms: C_28  and  N_60
REMARK                            x       y       z     vdW  Elec       q    Type
REMARK                         _______ _______ _______ _____ _____    ______ ____
ROOT
ATOM      1  C   UNL     1       4.953  -5.145   3.973  0.00  0.00    +0.133 C 
ATOM      2  C   UNL     1       4.210  -4.904   5.270  0.00  0.00    -0.021 A 
ATOM      3  C   UNL     1       4.410  -5.439   6.531  0.00  0.00    +0.006 A 
ATOM      4  C   UNL     1       3.594  -5.069   7.581  0.00  0.00    +0.000 A 
ATOM      5  C   UNL     1       2.572  -4.161   7.373  0.00  0.00    +0.000 A 
ATOM      6  C   UNL     1       2.370  -3.626   6.117  0.00  0.00    +0.004 A 
ATOM      7  C   UNL     1       3.188  -3.995   5.061  0.00  0.00    -0.034 A 
ATOM      8  C   UNL     1       3.182  -3.563   3.615  0.00  0.00    +0.021 C 
ATOM      9  C   UNL     1       4.558  -3.968   3.055  0.00  0.00    +0.149 C 
ATOM     10  C   UNL     1       2.075  -4.283   2.849  0.00  0.00    -0.005 C 
ATOM     11  C   UNL     1       2.072  -3.805   1.394  0.00  0.00    -0.077 C 
ATOM     12  C   UNL     1       2.969  -1.645   2.035  0.00  0.00    -0.077 C 
ATOM     13  C   UNL     1       3.001  -2.051   3.511  0.00  0.00    -0.005 C 
ATOM     14  N   UNL     1       1.847  -2.343   1.371  0.00  0.00    +0.384 N 
ATOM     15  H   UNL     1       0.978  -2.132   1.876  0.00  0.00    -0.081 HD
ENDROOT
BRANCH   1  18
ATOM     16  C   UNL     1       5.142  -7.564   3.743  0.00  0.00    +0.251 C 
ATOM     17  O   UNL     1       6.032  -7.543   4.566  0.00  0.00    -0.272 OA
ATOM     18  N   UNL     1       4.536  -6.417   3.377  0.00  0.00    -0.303 N 
ATOM     19  H   UNL     1       3.824  -6.433   2.718  0.00  0.00    +0.149 HD
BRANCH  16  20
ATOM     20  C   UNL     1       4.713  -8.872   3.130  0.00  0.00    +0.324 C 
BRANCH  20  21
ATOM     21  O   UNL     1       5.497  -9.934   3.675  0.00  0.00    -0.483 OA
BRANCH  21  25
ATOM     22  C   UNL     1       4.702 -13.744   2.308  0.00  0.00    +0.000 A 
ATOM     23  C   UNL     1       5.692 -13.542   3.252  0.00  0.00    +0.004 A 
ATOM     24  C   UNL     1       5.960 -12.267   3.712  0.00  0.00    +0.045 A 
ATOM     25  C   UNL     1       5.236 -11.189   3.225  0.00  0.00    +0.121 A 
ATOM     26  C   UNL     1       4.240 -11.395   2.281  0.00  0.00    +0.045 A 
ATOM     27  C   UNL     1       3.979 -12.671   1.821  0.00  0.00    +0.004 A 
ENDBRANCH  21  25
ENDBRANCH  20  21
ENDBRANCH  16  20
ENDBRANCH   1  18
BRANCH   9  28
ATOM     28  O   UNL     1       5.491  -2.893   3.176  0.00  0.00    -0.389 OA
ATOM     29  H   UNL     1       6.373  -3.099   2.837  0.00  0.00    +0.210 HD
ENDBRANCH   9  28
BRANCH  14  30
ATOM     30  C   UNL     1       1.717  -1.875  -0.024  0.00  0.00    -0.003 C 
BRANCH  30  31
ATOM     31  C   UNL     1       1.274  -0.435  -0.012  0.00  0.00    +0.089 A 
ATOM     32  C   UNL     1       2.086   0.638  -0.014  0.00  0.00    +0.042 A 
ATOM     33  C   UNL     1       1.254   1.781  -0.000  0.00  0.00    +0.041 A 
ATOM     34  C   UNL     1      -0.016   1.339   0.009  0.00  0.00    +0.195 A 
ATOM     35  O   UNL     1       0.002  -0.004   0.002  0.00  0.00    -0.470 OA
ENDBRANCH  30  31
ENDBRANCH  14  30
TORSDOF 7
