REMARK  Name = ZINC11791461
REMARK  12 active torsions:
REMARK  status: ('A' for Active; 'I' for Inactive)
REMARK    1  A    between atoms: C_1  and  C_2
REMARK    2  A    between atoms: C_5  and  C_7
REMARK    3  A    between atoms: N_9  and  C_10
REMARK    4  A    between atoms: C_14  and  C_23
REMARK    5  A    between atoms: C_18  and  C_19
REMARK    6  A    between atoms: C_19  and  O_21
REMARK    7  A    between atoms: O_21  and  C_22
REMARK    8  A    between atoms: C_23  and  N_54
REMARK    9  A    between atoms: C_24  and  N_54
REMARK   10  A    between atoms: C_25  and  C_27
REMARK   11  A    between atoms: C_25  and  C_28
REMARK   12  A    between atoms: C_25  and  N_54
REMARK                            x       y       z     vdW  Elec       q    Type
REMARK                         _______ _______ _______ _____ _____    ______ ____
ROOT
ATOM      1  C   UNL     1       2.278   1.010  -0.015  0.00  0.00    +0.064 A 
ATOM      2  C   UNL     1       1.381   1.925   0.672  0.00  0.00    +0.030 A 
ATOM      3  C   UNL     1       1.701   3.096   1.403  0.00  0.00    +0.014 A 
ATOM      4  C   UNL     1       0.685   3.821   1.979  0.00  0.00    +0.022 A 
ATOM      5  C   UNL     1      -0.633   3.409   1.846  0.00  0.00    +0.026 A 
ATOM      6  N   UNL     1      -0.927   2.317   1.168  0.00  0.00    -0.246 NA
ATOM      7  C   UNL     1       0.009   1.593   0.595  0.00  0.00    +0.111 A 
ATOM      8  S   UNL     1      -0.016   0.103  -0.372  0.00  0.00    -0.060 S 
ATOM      9  C   UNL     1       1.733  -0.075  -0.666  0.00  0.00    +0.120 A 
ENDROOT
BRANCH   1  12
ATOM     10  C   UNL     1       4.139   2.466  -0.212  0.00  0.00    +0.255 C 
ATOM     11  O   UNL     1       3.379   3.413  -0.292  0.00  0.00    -0.269 OA
ATOM     12  N   UNL     1       3.651   1.225  -0.016  0.00  0.00    -0.279 N 
ATOM     13  H   UNL     1       4.259   0.481   0.125  0.00  0.00    +0.155 HD
BRANCH  10  18
ATOM     14  C   UNL     1       9.715   2.218  -0.519  0.00  0.00    +0.051 C 
ATOM     15  C   UNL     1       8.246   2.551  -0.474  0.00  0.00    -0.013 A 
ATOM     16  C   UNL     1       7.652   3.767  -0.601  0.00  0.00    +0.011 A 
ATOM     17  C   UNL     1       6.284   3.855  -0.529  0.00  0.00    +0.021 A 
ATOM     18  C   UNL     1       5.585   2.675  -0.328  0.00  0.00    +0.074 A 
ATOM     19  S   UNL     1       6.905   1.477  -0.241  0.00  0.00    -0.089 S 
ENDBRANCH  10  18
ENDBRANCH   1  12
BRANCH   9  20
ATOM     20  C   UNL     1       2.402  -1.090  -1.395  0.00  0.00    +0.348 C 
ATOM     21  O   UNL     1       3.602  -1.013  -1.584  0.00  0.00    -0.244 OA
BRANCH  20  22
ATOM     22  O   UNL     1       1.709  -2.142  -1.879  0.00  0.00    -0.464 OA
ATOM     23  C   UNL     1       2.447  -3.127  -2.604  0.00  0.00    +0.280 C 
ENDBRANCH  20  22
ENDBRANCH   9  20
BRANCH   5  24
ATOM     24  C   UNL     1      -1.737   4.214   2.484  0.00  0.00    -0.022 C 
BRANCH  24  26
ATOM     25  C   UNL     1      -1.303   6.161   1.112  0.00  0.00    -0.095 C 
ATOM     26  N   UNL     1      -2.302   5.133   1.474  0.00  0.00    +0.387 N 
ATOM     27  H   UNL     1      -2.548   4.596   0.635  0.00  0.00    -0.081 HD
BRANCH  26  28
ATOM     28  C   UNL     1      -3.521   5.779   2.005  0.00  0.00    -0.018 C 
ATOM     29  C   UNL     1      -3.166   6.747   3.136  0.00  0.00    -0.007 C 
BRANCH  28  30
ATOM     30  C   UNL     1      -4.195   6.535   0.890  0.00  0.00    +0.070 A 
ATOM     31  C   UNL     1      -5.569   6.853   0.793  0.00  0.00    +0.065 A 
ATOM     32  C   UNL     1      -5.667   7.529  -0.377  0.00  0.00    +0.230 A 
ATOM     33  O   UNL     1      -4.430   7.580  -0.890  0.00  0.00    -0.363 OA
ATOM     34  N   UNL     1      -3.628   7.029  -0.172  0.00  0.00    -0.085 NA
ENDBRANCH  28  30
ENDBRANCH  26  28
ENDBRANCH  24  26
ENDBRANCH   5  24
TORSDOF 8
