REMARK  Name = ZINC39362494
REMARK  11 active torsions:
REMARK  status: ('A' for Active; 'I' for Inactive)
REMARK    1  A    between atoms: C_1  and  C_2
REMARK    2  A    between atoms: C_2  and  C_3
REMARK    3  A    between atoms: C_3  and  C_5
REMARK    4  A    between atoms: C_3  and  S_6
REMARK    5  A    between atoms: S_6  and  C_7
REMARK    6  A    between atoms: C_11  and  C_23
REMARK    7  A    between atoms: N_13  and  C_14
REMARK    8  A    between atoms: C_17  and  O_20
REMARK    9  A    between atoms: O_20  and  C_21
REMARK   10  A    between atoms: C_21  and  C_22
REMARK   11  A    between atoms: C_23  and  C_24
REMARK                            x       y       z     vdW  Elec       q    Type
REMARK                         _______ _______ _______ _____ _____    ______ ____
ROOT
ATOM      1  C   UNL     1      -3.949  -0.632   1.367  0.00  0.00    +0.275 C 
ATOM      2  N   UNL     1      -3.979  -2.069   1.090  0.00  0.00    -0.156 NA
ATOM      3  N   UNL     1      -4.488  -2.314  -0.002  0.00  0.00    -0.166 NA
ATOM      4  C   UNL     1      -4.909  -1.093  -0.692  0.00  0.00    +0.222 C 
ATOM      5  N   UNL     1      -4.560   0.029   0.200  0.00  0.00    -0.274 N 
ENDROOT
BRANCH   5   6
ATOM      6  C   UNL     1      -4.761   1.397  -0.011  0.00  0.00    +0.034 A 
ATOM      7  C   UNL     1      -5.365   1.839  -1.181  0.00  0.00    +0.027 A 
ATOM      8  C   UNL     1      -5.563   3.189  -1.389  0.00  0.00    +0.047 A 
ATOM      9  C   UNL     1      -5.160   4.106  -0.429  0.00  0.00    +0.121 A 
ATOM     10  C   UNL     1      -4.557   3.666   0.740  0.00  0.00    +0.047 A 
ATOM     11  C   UNL     1      -4.362   2.315   0.952  0.00  0.00    +0.027 A 
BRANCH   9  12
ATOM     12  O   UNL     1      -5.356   5.436  -0.634  0.00  0.00    -0.492 OA
BRANCH  12  13
ATOM     13  C   UNL     1      -4.916   6.323   0.397  0.00  0.00    +0.225 C 
ATOM     14  C   UNL     1      -5.218   7.766  -0.010  0.00  0.00    +0.048 C 
ENDBRANCH  12  13
ENDBRANCH   9  12
ENDBRANCH   5   6
BRANCH   1  15
ATOM     15  S   UNL     1      -2.236  -0.073   1.573  0.00  0.00    -0.110 S 
BRANCH  15  16
ATOM     16  C   UNL     1      -1.433  -0.534   0.013  0.00  0.00    +0.047 C 
ATOM     17  C   UNL     1      -1.416  -2.058  -0.121  0.00  0.00    +0.019 C 
BRANCH  16  19
ATOM     18  C   UNL     1      -0.019   1.526   0.010  0.00  0.00    +0.005 C 
ATOM     19  C   UNL     1       0.002  -0.004   0.002  0.00  0.00    +0.010 C 
ENDBRANCH  16  19
ENDBRANCH  15  16
ENDBRANCH   1  15
BRANCH   4  20
ATOM     20  C   UNL     1      -4.165  -0.959  -2.022  0.00  0.00    +0.102 C 
BRANCH  20  21
ATOM     21  C   UNL     1      -4.596  -2.064  -2.952  0.00  0.00    +0.029 A 
ATOM     22  N   UNL     1      -3.994  -3.292  -2.885  0.00  0.00    -0.311 N 
ATOM     23  C   UNL     1      -4.371  -4.285  -3.710  0.00  0.00    +0.327 A 
ATOM     24  O   UNL     1      -3.823  -5.368  -3.633  0.00  0.00    -0.247 OA
ATOM     25  N   UNL     1      -5.346  -4.098  -4.618  0.00  0.00    -0.275 N 
ATOM     26  C   UNL     1      -5.964  -2.904  -4.715  0.00  0.00    +0.254 A 
ATOM     27  O   UNL     1      -6.846  -2.733  -5.537  0.00  0.00    -0.268 OA
ATOM     28  C   UNL     1      -5.580  -1.851  -3.850  0.00  0.00    +0.091 A 
ATOM     29  H   UNL     1      -5.606  -4.825  -5.205  0.00  0.00    +0.173 HD
ATOM     30  H   UNL     1      -3.289  -3.446  -2.237  0.00  0.00    +0.170 HD
ENDBRANCH  20  21
ENDBRANCH   4  20
TORSDOF 8
