REMARK  Name = ZINC56303068
REMARK  8 active torsions:
REMARK  status: ('A' for Active; 'I' for Inactive)
REMARK    1  A    between atoms: C_1  and  C_2
REMARK    2  A    between atoms: C_5  and  N_15
REMARK    3  A    between atoms: C_6  and  O_8
REMARK    4  A    between atoms: O_8  and  C_9
REMARK    5  A    between atoms: C_9  and  C_10
REMARK    6  A    between atoms: C_16  and  C_18
REMARK    7  A    between atoms: C_19  and  C_20
REMARK    8  A    between atoms: C_24  and  N_26
REMARK                            x       y       z     vdW  Elec       q    Type
REMARK                         _______ _______ _______ _____ _____    ______ ____
ROOT
ATOM      1  N   UNL     1       0.059  -4.174  -0.031  0.00  0.00    -0.279 N 
ATOM      2  C   UNL     1       0.556  -4.832  -1.097  0.00  0.00    +0.241 C 
ATOM      3  O   UNL     1       1.071  -4.213  -2.009  0.00  0.00    -0.270 OA
ATOM      4  H   UNL     1      -0.278  -4.670   0.732  0.00  0.00    +0.155 HD
ENDROOT
BRANCH   1   9
ATOM      5  C   UNL     1      -0.060   1.502  -0.009  0.00  0.00    +0.044 C 
ATOM      6  C   UNL     1      -0.028  -0.004  -0.012  0.00  0.00    -0.047 A 
ATOM      7  C   UNL     1      -0.021  -0.691  -1.212  0.00  0.00    +0.005 A 
ATOM      8  C   UNL     1       0.008  -2.073  -1.221  0.00  0.00    +0.027 A 
ATOM      9  C   UNL     1       0.030  -2.774  -0.024  0.00  0.00    +0.076 A 
ATOM     10  C   UNL     1       0.023  -2.081   1.185  0.00  0.00    +0.142 A 
ATOM     11  C   UNL     1      -0.001  -0.696   1.185  0.00  0.00    +0.051 A 
BRANCH  10  12
ATOM     12  O   UNL     1       0.045  -2.763   2.361  0.00  0.00    -0.488 OA
BRANCH  12  13
ATOM     13  C   UNL     1       0.036  -1.987   3.561  0.00  0.00    +0.260 C 
BRANCH  13  14
ATOM     14  C   UNL     1       0.063  -2.920   4.772  0.00  0.00    +0.156 C 
ATOM     15  C   UNL     1       0.109  -2.098   6.085  0.00  0.00    +0.037 C 
ATOM     16  C   UNL     1      -0.507  -3.110   7.089  0.00  0.00    +0.031 C 
ATOM     17  C   UNL     1      -1.542  -3.850   6.215  0.00  0.00    +0.160 C 
ATOM     18  O   UNL     1      -1.156  -3.677   4.846  0.00  0.00    -0.373 OA
ENDBRANCH  13  14
ENDBRANCH  12  13
ENDBRANCH  10  12
ENDBRANCH   1   9
BRANCH   2  19
ATOM     19  C   UNL     1       0.477  -6.293  -1.157  0.00  0.00    +0.068 C 
ATOM     20  C   UNL     1       0.974  -6.952  -2.223  0.00  0.00    +0.013 C 
BRANCH  20  21
ATOM     21  C   UNL     1       0.894  -8.420  -2.283  0.00  0.00    -0.023 A 
ATOM     22  C   UNL     1       0.298  -9.136  -1.240  0.00  0.00    +0.008 A 
ATOM     23  C   UNL     1       0.226 -10.511  -1.304  0.00  0.00    +0.003 A 
ATOM     24  C   UNL     1       0.743 -11.184  -2.398  0.00  0.00    +0.033 A 
ATOM     25  C   UNL     1       1.334 -10.484  -3.434  0.00  0.00    +0.127 A 
ATOM     26  C   UNL     1       1.408  -9.107  -3.387  0.00  0.00    +0.040 A 
BRANCH  25  27
ATOM     27  N   UNL     1       1.883 -11.213  -4.599  0.00  0.00    +0.056 N 
ATOM     28  O   UNL     1       1.815 -12.419  -4.644  0.00  0.00    -0.126 OA
ATOM     29  O   UNL     1       2.401 -10.603  -5.506  0.00  0.00    -0.126 OA
ENDBRANCH  25  27
ENDBRANCH  20  21
ENDBRANCH   2  19
TORSDOF 7
