REMARK  Name = ZINC63083870
REMARK  6 active torsions:
REMARK  status: ('A' for Active; 'I' for Inactive)
REMARK    1  A    between atoms: C_1  and  C_2
REMARK    2  A    between atoms: C_7  and  S_12
REMARK    3  A    between atoms: S_12  and  C_13
REMARK    4  A    between atoms: C_13  and  C_14
REMARK    5  A    between atoms: N_16  and  C_17
REMARK    6  A    between atoms: C_19  and  C_31
REMARK                            x       y       z     vdW  Elec       q    Type
REMARK                         _______ _______ _______ _____ _____    ______ ____
ROOT
ATOM      1  C   UNL     1       4.241  -4.802   1.804  0.00  0.00    +0.224 C 
ATOM      2  O   UNL     1       4.268  -5.870   2.379  0.00  0.00    -0.275 OA
ATOM      3  N   UNL     1       5.393  -4.186   1.474  0.00  0.00    -0.302 N 
ATOM      4  H   UNL     1       5.372  -3.332   1.014  0.00  0.00    +0.150 HD
ENDROOT
BRANCH   3   5
ATOM      5  C   UNL     1       6.678  -4.804   1.810  0.00  0.00    +0.148 C 
ATOM      6  C   UNL     1       7.684  -4.662   0.647  0.00  0.00    +0.126 C 
ATOM      7  C   UNL     1       8.628  -3.474   0.783  0.00  0.00    +0.021 C 
ATOM      8  C   UNL     1      10.066  -3.964   0.822  0.00  0.00    +0.006 C 
ATOM      9  C   UNL     1      11.031  -2.963   0.249  0.00  0.00    +0.000 C 
ATOM     10  C   UNL     1      11.629  -2.016   1.247  0.00  0.00    +0.000 C 
ATOM     11  C   UNL     1      10.434  -1.192   1.826  0.00  0.00    +0.001 C 
ATOM     12  C   UNL     1       9.654  -2.160   2.734  0.00  0.00    +0.014 C 
ATOM     13  C   UNL     1       8.399  -2.651   2.079  0.00  0.00    +0.053 C 
ATOM     14  S   UNL     1       7.536  -3.866   3.148  0.00  0.00    -0.134 S 
BRANCH   6  15
ATOM     15  C   UNL     1       8.490  -5.891   0.572  0.00  0.00    +0.069 C 
ATOM     16  N   UNL     1       9.112  -6.840   0.514  0.00  0.00    -0.196 NA
ENDBRANCH   6  15
ENDBRANCH   3   5
BRANCH   1  17
ATOM     17  C   UNL     1       2.920  -4.166   1.458  0.00  0.00    +0.168 C 
BRANCH  17  18
ATOM     18  S   UNL     1       1.567  -5.231   2.029  0.00  0.00    -0.106 S 
BRANCH  18  25
ATOM     19  C   UNL     1      -0.018   1.503   0.010  0.00  0.00    +0.044 C 
ATOM     20  C   UNL     1       0.002  -0.004   0.002  0.00  0.00    -0.048 A 
ATOM     21  C   UNL     1       0.005  -0.672  -1.235  0.00  0.00    +0.005 A 
ATOM     22  C   UNL     1       0.022  -2.017  -1.335  0.00  0.00    +0.028 A 
ATOM     23  C   UNL     1       0.040  -2.834  -0.114  0.00  0.00    +0.061 A 
ATOM     24  N   UNL     1       0.057  -4.120   0.090  0.00  0.00    -0.355 N 
ATOM     25  C   UNL     1       0.067  -4.335   1.542  0.00  0.00    +0.236 C 
ATOM     26  N   UNL     1       0.053  -3.002   2.159  0.00  0.00    -0.355 N 
ATOM     27  C   UNL     1       0.037  -2.127   1.195  0.00  0.00    +0.061 A 
ATOM     28  C   UNL     1       0.022  -0.657   1.181  0.00  0.00    +0.030 A 
ATOM     29  H   UNL     1       0.062  -4.809  -0.593  0.00  0.00    +0.162 HD
ATOM     30  H   UNL     1       0.055  -2.810   3.109  0.00  0.00    +0.162 HD
ENDBRANCH  18  25
ENDBRANCH  17  18
ENDBRANCH   1  17
TORSDOF 5
