REMARK  Name = ZINC64709768
REMARK  9 active torsions:
REMARK  status: ('A' for Active; 'I' for Inactive)
REMARK    1  A    between atoms: C_1  and  C_2
REMARK    2  A    between atoms: N_4  and  C_9
REMARK    3  A    between atoms: C_6  and  C_8
REMARK    4  A    between atoms: C_12  and  N_15
REMARK    5  A    between atoms: N_18  and  C_19
REMARK    6  A    between atoms: C_19  and  C_20
REMARK    7  A    between atoms: C_19  and  C_21
REMARK    8  A    between atoms: C_21  and  C_22
REMARK    9  A    between atoms: C_25  and  O_28
REMARK                            x       y       z     vdW  Elec       q    Type
REMARK                         _______ _______ _______ _____ _____    ______ ____
ROOT
ATOM      1  N   UNL     1       4.753   2.504  -5.304  0.00  0.00    -0.269 N 
ATOM      2  C   UNL     1       4.359   2.308  -6.579  0.00  0.00    +0.304 C 
ATOM      3  O   UNL     1       3.379   1.629  -6.814  0.00  0.00    -0.253 OA
ATOM      4  N   UNL     1       5.052   2.866  -7.591  0.00  0.00    -0.296 N 
ATOM      5  H   UNL     1       5.494   3.099  -5.112  0.00  0.00    +0.156 HD
ATOM      6  H   UNL     1       5.834   3.408  -7.403  0.00  0.00    +0.151 HD
ENDROOT
BRANCH   1  10
ATOM      7  C   UNL     1       2.782   0.551  -2.190  0.00  0.00    +0.030 A 
ATOM      8  C   UNL     1       2.068   0.988  -3.297  0.00  0.00    +0.025 A 
ATOM      9  C   UNL     1       2.720   1.635  -4.328  0.00  0.00    +0.025 A 
ATOM     10  C   UNL     1       4.090   1.848  -4.258  0.00  0.00    +0.035 A 
ATOM     11  C   UNL     1       4.805   1.410  -3.150  0.00  0.00    +0.025 A 
ATOM     12  C   UNL     1       4.152   0.768  -2.117  0.00  0.00    +0.025 A 
BRANCH   7  16
ATOM     13  C   UNL     1       2.856  -2.974  -1.020  0.00  0.00    +0.039 C 
ATOM     14  C   UNL     1       2.411  -2.131   0.177  0.00  0.00    +0.133 C 
ATOM     15  C   UNL     1       2.871  -0.682  -0.018  0.00  0.00    +0.136 C 
ATOM     16  N   UNL     1       2.121  -0.105  -1.145  0.00  0.00    -0.325 N 
ATOM     17  C   UNL     1       0.656  -0.237  -1.141  0.00  0.00    +0.136 C 
ATOM     18  C   UNL     1       0.304  -1.708  -0.891  0.00  0.00    +0.133 C 
ATOM     19  O   UNL     1       0.986  -2.162   0.281  0.00  0.00    -0.371 OA
ATOM     20  C   UNL     1      -1.207  -1.845  -0.688  0.00  0.00    +0.039 C 
ENDBRANCH   7  16
ENDBRANCH   1  10
BRANCH   4  21
ATOM     21  C   UNL     1       4.624   2.653  -8.976  0.00  0.00    +0.076 C 
ATOM     22  C   UNL     1       5.209   1.338  -9.494  0.00  0.00    +0.028 C 
BRANCH  21  23
ATOM     23  C   UNL     1       5.119   3.810  -9.846  0.00  0.00    +0.057 C 
BRANCH  23  24
ATOM     24  C   UNL     1       4.448   5.088  -9.413  0.00  0.00    -0.045 A 
ATOM     25  C   UNL     1       3.248   5.466  -9.988  0.00  0.00    +0.007 A 
ATOM     26  C   UNL     1       2.631   6.637  -9.593  0.00  0.00    +0.045 A 
ATOM     27  C   UNL     1       3.215   7.434  -8.619  0.00  0.00    +0.117 A 
ATOM     28  C   UNL     1       4.418   7.051  -8.043  0.00  0.00    +0.045 A 
ATOM     29  C   UNL     1       5.029   5.877  -8.438  0.00  0.00    +0.007 A 
BRANCH  27  30
ATOM     30  O   UNL     1       2.610   8.586  -8.229  0.00  0.00    -0.507 OA
ATOM     31  H   UNL     1       1.995   8.477  -7.491  0.00  0.00    +0.292 HD
ENDBRANCH  27  30
ENDBRANCH  23  24
ENDBRANCH  21  23
ENDBRANCH   4  21
TORSDOF 6
