REMARK  Name = ZINC39692668
REMARK  8 active torsions:
REMARK  status: ('A' for Active; 'I' for Inactive)
REMARK    1  A    between atoms: C_1  and  C_2
REMARK    2  A    between atoms: C_4  and  C_30
REMARK    3  A    between atoms: C_6  and  C_8
REMARK    4  A    between atoms: C_11  and  S_13
REMARK    5  A    between atoms: S_13  and  C_14
REMARK    6  A    between atoms: C_14  and  C_15
REMARK    7  A    between atoms: C_20  and  C_27
REMARK    8  A    between atoms: C_21  and  C_26
REMARK                            x       y       z     vdW  Elec       q    Type
REMARK                         _______ _______ _______ _____ _____    ______ ____
ROOT
ATOM      1  C   UNL     1       0.101  -4.988   6.851  0.00  0.00    +0.152 C 
ENDROOT
BRANCH   1   2
ATOM      2  C   UNL     1       0.105  -5.048   8.357  0.00  0.00    +0.136 C 
ATOM      3  N   UNL     1       0.080  -3.913   9.007  0.00  0.00    -0.160 NA
ATOM      4  C   UNL     1       0.082  -3.874  10.353  0.00  0.00    +0.275 C 
ATOM      5  O   UNL     1       0.058  -2.818  10.959  0.00  0.00    -0.268 OA
ATOM      6  C   UNL     1       0.112  -5.176  11.065  0.00  0.00    +0.114 C 
ATOM      7  C   UNL     1       0.123  -5.537  12.370  0.00  0.00    +0.098 C 
ATOM      8  C   UNL     1       0.157  -7.048  12.394  0.00  0.00    +0.210 C 
ATOM      9  O   UNL     1       0.164  -7.479  11.030  0.00  0.00    -0.468 OA
ATOM     10  C   UNL     1       0.138  -6.398  10.233  0.00  0.00    +0.230 C 
ATOM     11  N   UNL     1       0.128  -6.245   8.921  0.00  0.00    -0.199 NA
ATOM     12  C   UNL     1      -1.083  -7.589  13.109  0.00  0.00    +0.057 C 
BRANCH   7  13
ATOM     13  C   UNL     1       0.105  -4.629  13.543  0.00  0.00    +0.387 C 
ATOM     14  O   UNL     1       0.077  -3.419  13.378  0.00  0.00    -0.241 OA
ATOM     15  O   UNL     1       0.118  -5.091  14.674  0.00  0.00    -0.241 OA
ENDBRANCH   7  13
ENDBRANCH   1   2
BRANCH   1  16
ATOM     16  S   UNL     1       0.068  -3.255   6.315  0.00  0.00    -0.058 S 
BRANCH  16  20
ATOM     17  C   UNL     1       0.052  -2.845   2.457  0.00  0.00    +0.249 A 
ATOM     18  N   UNL     1       0.076  -4.149   2.588  0.00  0.00    -0.106 NA
ATOM     19  N   UNL     1       0.084  -4.453   3.838  0.00  0.00    -0.101 NA
ATOM     20  C   UNL     1       0.066  -3.353   4.555  0.00  0.00    +0.278 A 
ATOM     21  O   UNL     1       0.051  -2.314   3.699  0.00  0.00    -0.411 OA
BRANCH  17  27
ATOM     22  C   UNL     1      -0.018   1.503   0.010  0.00  0.00    +0.044 C 
ATOM     23  C   UNL     1       0.002  -0.004   0.002  0.00  0.00    -0.049 A 
ATOM     24  C   UNL     1       0.006  -0.688  -1.201  0.00  0.00    +0.006 A 
ATOM     25  C   UNL     1       0.025  -2.071  -1.218  0.00  0.00    -0.049 A 
ATOM     26  C   UNL     1       0.040  -2.778  -0.033  0.00  0.00    +0.016 A 
ATOM     27  C   UNL     1       0.036  -2.095   1.184  0.00  0.00    +0.039 A 
ATOM     28  C   UNL     1       0.023  -0.699   1.194  0.00  0.00    +0.016 A 
ATOM     29  C   UNL     1       0.029  -2.807  -2.533  0.00  0.00    +0.044 C 
ENDBRANCH  17  27
ENDBRANCH  16  20
ENDBRANCH   1  16
TORSDOF 5
