REMARK  Name = ZINC20923133
REMARK  8 active torsions:
REMARK  status: ('A' for Active; 'I' for Inactive)
REMARK    1  A    between atoms: C_4  and  N_7
REMARK    2  A    between atoms: C_8  and  C_27
REMARK    3  A    between atoms: C_11  and  S_12
REMARK    4  A    between atoms: S_12  and  C_13
REMARK    5  A    between atoms: C_13  and  C_14
REMARK    6  A    between atoms: N_16  and  N_17
REMARK    7  A    between atoms: C_18  and  C_20
REMARK    8  A    between atoms: C_27  and  N_28
REMARK                            x       y       z     vdW  Elec       q    Type
REMARK                         _______ _______ _______ _____ _____    ______ ____
ROOT
ATOM      1  N   UNL     1       8.896   1.614  -0.080  0.00  0.00    -0.273 N 
ATOM      2  C   UNL     1       9.591   0.433  -0.087  0.00  0.00    +0.160 A 
ATOM      3  N   UNL     1       8.714  -0.531  -0.084  0.00  0.00    -0.131 NA
ATOM      4  N   UNL     1       7.524  -0.047  -0.070  0.00  0.00    -0.122 NA
ATOM      5  C   UNL     1       7.574   1.265  -0.064  0.00  0.00    +0.197 A 
ENDROOT
BRANCH   1   9
ATOM      6  C   UNL     1      10.483   5.470  -0.095  0.00  0.00    +0.000 A 
ATOM      7  C   UNL     1       9.766   5.023   1.000  0.00  0.00    +0.002 A 
ATOM      8  C   UNL     1       9.239   3.746   1.008  0.00  0.00    +0.026 A 
ATOM      9  C   UNL     1       9.430   2.911  -0.085  0.00  0.00    +0.050 A 
ATOM     10  C   UNL     1      10.155   3.361  -1.180  0.00  0.00    +0.026 A 
ATOM     11  C   UNL     1      10.675   4.640  -1.185  0.00  0.00    +0.002 A 
ENDBRANCH   1   9
BRANCH   5  12
ATOM     12  S   UNL     1       6.199   2.366  -0.044  0.00  0.00    -0.076 S 
BRANCH  12  13
ATOM     13  C   UNL     1       4.839   1.171  -0.038  0.00  0.00    +0.174 C 
BRANCH  13  14
ATOM     14  C   UNL     1       3.524   1.907  -0.021  0.00  0.00    +0.239 C 
ATOM     15  O   UNL     1       3.508   3.120  -0.015  0.00  0.00    -0.273 OA
ATOM     16  N   UNL     1       2.366   1.217  -0.014  0.00  0.00    -0.233 N 
ATOM     17  H   UNL     1       2.381   0.117  -0.020  0.00  0.00    +0.173 HD
BRANCH  16  18
ATOM     18  N   UNL     1       1.143   1.901   0.001  0.00  0.00    -0.230 N 
ATOM     19  C   UNL     1      -0.014   1.212   0.009  0.00  0.00    +0.260 C 
ATOM     20  O   UNL     1       0.002  -0.004   0.002  0.00  0.00    -0.269 OA
ATOM     21  H   UNL     1       1.129   3.001   0.007  0.00  0.00    +0.173 HD
BRANCH  19  22
ATOM     22  C   UNL     1      -1.304   1.933   0.019  0.00  0.00    +0.038 A 
ATOM     23  C   UNL     1      -1.325   3.329   0.032  0.00  0.00    +0.016 A 
ATOM     24  C   UNL     1      -2.531   3.997   0.036  0.00  0.00    +0.039 A 
ATOM     25  C   UNL     1      -3.721   3.285   0.038  0.00  0.00    +0.123 A 
ATOM     26  C   UNL     1      -3.705   1.898   0.030  0.00  0.00    +0.039 A 
ATOM     27  C   UNL     1      -2.505   1.220   0.021  0.00  0.00    +0.016 A 
ATOM     28  F   UNL     1      -4.900   3.944   0.048  0.00  0.00    -0.205 F 
ENDBRANCH  19  22
ENDBRANCH  16  18
ENDBRANCH  13  14
ENDBRANCH  12  13
ENDBRANCH   5  12
BRANCH   2  29
ATOM     29  C   UNL     1      11.089   0.279  -0.102  0.00  0.00    +0.222 C 
BRANCH  29  30
ATOM     30  N   UNL     1      11.562   0.236  -1.488  0.00  0.00    -0.237 N 
ATOM     31  C   UNL     1      11.719  -0.884  -2.270  0.00  0.00    +0.089 A 
ATOM     32  C   UNL     1      11.512  -2.244  -2.063  0.00  0.00    +0.029 A 
ATOM     33  C   UNL     1      11.770  -3.131  -3.070  0.00  0.00    +0.002 A 
ATOM     34  C   UNL     1      12.237  -2.688  -4.300  0.00  0.00    +0.002 A 
ATOM     35  C   UNL     1      12.441  -1.359  -4.531  0.00  0.00    +0.032 A 
ATOM     36  C   UNL     1      12.189  -0.428  -3.514  0.00  0.00    +0.113 A 
ATOM     37  N   UNL     1      12.305   0.913  -3.441  0.00  0.00    -0.129 NA
ATOM     38  N   UNL     1      11.949   1.329  -2.277  0.00  0.00    -0.064 NA
ENDBRANCH  29  30
ENDBRANCH   2  29
TORSDOF 8
