REMARK  Name = ZINC27558891
REMARK  10 active torsions:
REMARK  status: ('A' for Active; 'I' for Inactive)
REMARK    1  A    between atoms: C_1  and  O_2
REMARK    2  A    between atoms: O_2  and  C_3
REMARK    3  A    between atoms: C_6  and  C_9
REMARK    4  A    between atoms: C_12  and  C_31
REMARK    5  A    between atoms: C_15  and  C_17
REMARK    6  A    between atoms: C_17  and  N_18
REMARK    7  A    between atoms: N_21  and  C_24
REMARK    8  A    between atoms: C_24  and  C_25
REMARK    9  A    between atoms: N_27  and  C_28
REMARK   10  A    between atoms: C_28  and  C_29
REMARK                            x       y       z     vdW  Elec       q    Type
REMARK                         _______ _______ _______ _____ _____    ______ ____
ROOT
ATOM      1  C   UNL     1      -0.593  -8.506   3.593  0.00  0.00    +0.137 C 
ATOM      2  C   UNL     1      -0.591 -10.033   3.382  0.00  0.00    +0.087 C 
ATOM      3  C   UNL     1       0.145 -10.219   2.074  0.00  0.00    +0.069 C 
ATOM      4  N   UNL     1       0.495  -9.069   1.610  0.00  0.00    -0.181 NA
ATOM      5  N   UNL     1       0.123  -7.994   2.415  0.00  0.00    -0.184 N 
ATOM      6  C   UNL     1       0.374  -6.696   2.153  0.00  0.00    +0.249 C 
ATOM      7  O   UNL     1      -0.002  -5.838   2.924  0.00  0.00    -0.272 OA
ENDROOT
BRANCH   1  11
ATOM      8  C   UNL     1      -4.593  -7.006   3.692  0.00  0.00    +0.120 A 
ATOM      9  C   UNL     1      -3.870  -7.133   4.868  0.00  0.00    +0.046 A 
ATOM     10  C   UNL     1      -2.577  -7.619   4.834  0.00  0.00    +0.009 A 
ATOM     11  C   UNL     1      -2.004  -7.978   3.628  0.00  0.00    -0.024 A 
ATOM     12  C   UNL     1      -2.721  -7.847   2.453  0.00  0.00    +0.009 A 
ATOM     13  C   UNL     1      -4.016  -7.367   2.483  0.00  0.00    +0.046 A 
BRANCH   8  15
ATOM     14  C   UNL     1      -6.550  -6.425   2.473  0.00  0.00    +0.277 C 
ATOM     15  O   UNL     1      -5.865  -6.529   3.723  0.00  0.00    -0.495 OA
ENDBRANCH   8  15
ENDBRANCH   1  11
BRANCH   3  16
ATOM     16  C   UNL     1       0.415 -11.516   1.426  0.00  0.00    -0.002 A 
ATOM     17  C   UNL     1      -0.016 -12.702   2.024  0.00  0.00    +0.010 A 
ATOM     18  C   UNL     1       0.236 -13.911   1.409  0.00  0.00    +0.001 A 
ATOM     19  C   UNL     1       0.922 -13.951   0.209  0.00  0.00    +0.000 A 
ATOM     20  C   UNL     1       1.356 -12.780  -0.387  0.00  0.00    +0.001 A 
ATOM     21  C   UNL     1       1.107 -11.563   0.213  0.00  0.00    +0.010 A 
ENDBRANCH   3  16
BRANCH   6  22
ATOM     22  C   UNL     1       1.122  -6.310   0.903  0.00  0.00    +0.182 C 
BRANCH  22  23
ATOM     23  N   UNL     1       1.398  -4.867   0.923  0.00  0.00    -0.298 NA
ATOM     24  C   UNL     1       2.334  -4.524   2.002  0.00  0.00    +0.066 C 
ATOM     25  C   UNL     1       2.533  -3.007   2.039  0.00  0.00    -0.063 C 
ATOM     26  N   UNL     1       3.043  -2.550   0.739  0.00  0.00    +0.387 N 
ATOM     27  C   UNL     1       2.106  -2.893  -0.340  0.00  0.00    -0.063 C 
ATOM     28  C   UNL     1       1.907  -4.410  -0.378  0.00  0.00    +0.066 C 
ATOM     29  H   UNL     1       3.991  -3.072   0.544  0.00  0.00    -0.081 HD
BRANCH  26  30
ATOM     30  C   UNL     1       3.318  -1.108   0.759  0.00  0.00    +0.019 C 
BRANCH  30  31
ATOM     31  C   UNL     1       4.062  -0.721  -0.493  0.00  0.00    +0.197 C 
ATOM     32  O   UNL     1       4.336  -1.565  -1.321  0.00  0.00    -0.278 OA
ATOM     33  N   UNL     1       4.423   0.562  -0.694  0.00  0.00    -0.313 N 
ATOM     34  H   UNL     1       4.171   1.327   0.054  0.00  0.00    +0.149 HD
BRANCH  33  35
ATOM     35  C   UNL     1       5.152   0.936  -1.908  0.00  0.00    +0.131 C 
BRANCH  35  36
ATOM     36  C   UNL     1       5.434   2.417  -1.889  0.00  0.00    -0.016 C 
ATOM     37  C   UNL     1       6.662   2.852  -2.021  0.00  0.00    +0.005 C 
ENDBRANCH  35  36
ENDBRANCH  33  35
ENDBRANCH  30  31
ENDBRANCH  26  30
ENDBRANCH  22  23
ENDBRANCH   6  22
TORSDOF 9
