REMARK  Name = ZINC09419703
REMARK  5 active torsions:
REMARK  status: ('A' for Active; 'I' for Inactive)
REMARK    1  A    between atoms: C_1  and  C_2
REMARK    2  A    between atoms: C_2  and  C_3
REMARK    3  A    between atoms: C_3  and  C_4
REMARK    4  A    between atoms: C_4  and  C_5
REMARK    5  A    between atoms: C_9  and  C_13
REMARK                            x       y       z     vdW  Elec       q    Type
REMARK                         _______ _______ _______ _____ _____    ______ ____
ROOT
ATOM      1  C   UNL     1      -7.389  -1.394   4.301  0.00  0.00    +0.218 C 
ATOM      2  O   UNL     1      -8.572  -1.525   4.069  0.00  0.00    -0.275 OA
ATOM      3  N   UNL     1      -6.591  -0.777   3.406  0.00  0.00    -0.266 N 
ATOM      4  C   UNL     1      -7.127  -0.290   2.215  0.00  0.00    +0.197 A 
ATOM      5  C   UNL     1      -6.381   0.399   1.157  0.00  0.00    +0.156 A 
ATOM      6  N   UNL     1      -7.215   0.701   0.197  0.00  0.00    -0.047 NA
ATOM      7  O   UNL     1      -8.500   0.243   0.580  0.00  0.00    -0.240 OA
ATOM      8  N   UNL     1      -8.377  -0.364   1.854  0.00  0.00    -0.033 NA
ATOM      9  H   UNL     1      -5.645  -0.672   3.591  0.00  0.00    +0.156 HD
ENDROOT
BRANCH   5  10
ATOM     10  C   UNL     1      -4.927   0.697   1.170  0.00  0.00    +0.007 A 
ATOM     11  C   UNL     1      -4.288   1.021   2.365  0.00  0.00    +0.010 A 
ATOM     12  C   UNL     1      -2.939   1.297   2.362  0.00  0.00    +0.004 A 
ATOM     13  C   UNL     1      -2.208   1.256   1.180  0.00  0.00    -0.044 A 
ATOM     14  C   UNL     1      -2.834   0.932  -0.003  0.00  0.00    -0.044 A 
ATOM     15  C   UNL     1      -4.193   0.654  -0.011  0.00  0.00    +0.014 A 
ATOM     16  C   UNL     1      -2.099   0.862  -1.317  0.00  0.00    +0.035 C 
ATOM     17  C   UNL     1      -0.765   1.599  -1.226  0.00  0.00    +0.005 C 
ATOM     18  C   UNL     1      -0.013   1.086   0.008  0.00  0.00    +0.005 C 
ATOM     19  C   UNL     1      -0.738   1.584   1.256  0.00  0.00    +0.035 C 
ENDBRANCH   5  10
BRANCH   1  20
ATOM     20  C   UNL     1      -6.810  -1.921   5.588  0.00  0.00    +0.096 C 
BRANCH  20  21
ATOM     21  C   UNL     1      -7.919  -2.571   6.418  0.00  0.00    +0.009 C 
BRANCH  21  23
ATOM     22  C   UNL     1      -8.440  -3.756   8.555  0.00  0.00    +0.004 C 
ATOM     23  C   UNL     1      -7.331  -3.106   7.725  0.00  0.00    -0.003 C 
ENDBRANCH  21  23
ENDBRANCH  20  21
ENDBRANCH   1  20
TORSDOF 4
