REMARK  Name = ZINC26865082
REMARK  10 active torsions:
REMARK  status: ('A' for Active; 'I' for Inactive)
REMARK    1  A    between atoms: C_1  and  C_2
REMARK    2  A    between atoms: C_7  and  C_9
REMARK    3  A    between atoms: C_7  and  C_10
REMARK    4  A    between atoms: N_13  and  C_17
REMARK    5  A    between atoms: C_17  and  C_18
REMARK    6  A    between atoms: N_20  and  C_21
REMARK    7  A    between atoms: C_21  and  C_22
REMARK    8  A    between atoms: N_24  and  C_25
REMARK    9  A    between atoms: C_25  and  C_26
REMARK   10  A    between atoms: C_25  and  C_27
REMARK                            x       y       z     vdW  Elec       q    Type
REMARK                         _______ _______ _______ _____ _____    ______ ____
ROOT
ATOM      1  C   UNL     1      -0.019   1.528   0.010  0.00  0.00    +0.007 C 
ATOM      2  C   UNL     1       0.002  -0.004   0.002  0.00  0.00    -0.011 C 
ATOM      3  C   UNL     1      -1.435  -0.528   0.021  0.00  0.00    +0.038 C 
ATOM      4  C   UNL     1      -1.428  -2.050  -0.036  0.00  0.00    +0.113 C 
ATOM      5  C   UNL     1      -0.576  -2.676   1.050  0.00  0.00    +0.041 C 
ATOM      6  C   UNL     1       0.781  -2.031   1.272  0.00  0.00    -0.032 C 
ATOM      7  C   UNL     1       0.719  -0.508   1.253  0.00  0.00    +0.009 C 
ATOM      8  C   UNL     1       1.794  -2.527   0.236  0.00  0.00    +0.011 C 
ATOM      9  C   UNL     1       1.294  -2.463   2.663  0.00  0.00    +0.011 C 
ATOM     10  C   UNL     1      -1.044  -2.534  -1.413  0.00  0.00    +0.247 C 
ATOM     11  O   UNL     1      -0.057  -2.253  -2.059  0.00  0.00    -0.273 OA
ATOM     12  N   UNL     1      -2.050  -3.343  -1.811  0.00  0.00    -0.215 N 
ATOM     13  C   UNL     1      -3.063  -3.330  -0.939  0.00  0.00    +0.310 C 
ATOM     14  O   UNL     1      -4.089  -3.967  -1.084  0.00  0.00    -0.252 OA
ATOM     15  N   UNL     1      -2.817  -2.537   0.118  0.00  0.00    -0.285 N 
ATOM     16  H   UNL     1      -3.419  -2.317   0.843  0.00  0.00    +0.151 HD
ENDROOT
BRANCH  12  17
ATOM     17  C   UNL     1      -2.030  -4.133  -3.044  0.00  0.00    +0.213 C 
BRANCH  17  18
ATOM     18  C   UNL     1      -1.431  -5.488  -2.763  0.00  0.00    +0.231 C 
ATOM     19  O   UNL     1      -1.058  -5.765  -1.643  0.00  0.00    -0.274 OA
ATOM     20  N   UNL     1      -1.311  -6.391  -3.756  0.00  0.00    -0.305 N 
ATOM     21  H   UNL     1      -1.609  -6.169  -4.652  0.00  0.00    +0.149 HD
BRANCH  20  22
ATOM     22  C   UNL     1      -0.729  -7.707  -3.483  0.00  0.00    +0.200 C 
BRANCH  22  23
ATOM     23  C   UNL     1      -0.709  -8.520  -4.751  0.00  0.00    +0.230 C 
ATOM     24  O   UNL     1      -1.138  -8.047  -5.782  0.00  0.00    -0.274 OA
ATOM     25  N   UNL     1      -0.213  -9.774  -4.740  0.00  0.00    -0.312 N 
ATOM     26  H   UNL     1       0.130 -10.152  -3.916  0.00  0.00    +0.149 HD
BRANCH  25  27
ATOM     27  C   UNL     1      -0.194 -10.565  -5.973  0.00  0.00    +0.067 C 
ATOM     28  C   UNL     1       1.067 -10.231  -6.773  0.00  0.00    +0.027 C 
ATOM     29  C   UNL     1      -0.197 -12.054  -5.624  0.00  0.00    +0.027 C 
ENDBRANCH  25  27
ENDBRANCH  22  23
ENDBRANCH  20  22
ENDBRANCH  17  18
ENDBRANCH  12  17
TORSDOF 5
