REMARK  Name = ZINC09493513
REMARK  14 active torsions:
REMARK  status: ('A' for Active; 'I' for Inactive)
REMARK    1  A    between atoms: C_1  and  C_2
REMARK    2  A    between atoms: C_2  and  O_3
REMARK    3  A    between atoms: O_3  and  C_4
REMARK    4  A    between atoms: C_4  and  C_6
REMARK    5  A    between atoms: C_7  and  C_15
REMARK    6  A    between atoms: C_12  and  C_14
REMARK    7  A    between atoms: C_15  and  O_16
REMARK    8  A    between atoms: O_16  and  C_17
REMARK    9  A    between atoms: C_17  and  C_19
REMARK   10  A    between atoms: C_20  and  C_21
REMARK   11  A    between atoms: C_22  and  C_35
REMARK   12  A    between atoms: N_24  and  C_27
REMARK   13  A    between atoms: C_25  and  C_26
REMARK   14  A    between atoms: C_27  and  C_28
REMARK                            x       y       z     vdW  Elec       q    Type
REMARK                         _______ _______ _______ _____ _____    ______ ____
ROOT
ATOM      1  C   UNL     1      -5.489   1.619  -5.080  0.00  0.00    +0.332 C 
ATOM      2  O   UNL     1      -5.531   0.616  -5.767  0.00  0.00    -0.246 OA
ENDROOT
BRANCH   1   3
ATOM      3  C   UNL     1      -4.546   1.719  -4.029  0.00  0.00    +0.092 C 
ATOM      4  C   UNL     1      -3.693   0.699  -3.788  0.00  0.00    +0.018 C 
BRANCH   4   5
ATOM      5  C   UNL     1      -2.715   0.802  -2.696  0.00  0.00    +0.018 A 
ATOM      6  C   UNL     1      -1.831   1.881  -2.459  0.00  0.00    +0.067 A 
ATOM      7  N   UNL     1      -1.124   1.599  -1.400  0.00  0.00    -0.175 NA
ATOM      8  N   UNL     1      -1.514   0.346  -0.913  0.00  0.00    -0.263 N 
ATOM      9  C   UNL     1      -2.481  -0.139  -1.710  0.00  0.00    +0.044 A 
ATOM     10  C   UNL     1      -3.184  -1.463  -1.555  0.00  0.00    +0.066 C 
ATOM     11  C   UNL     1      -1.724   3.136  -3.287  0.00  0.00    +0.068 C 
BRANCH   8  12
ATOM     12  C   UNL     1      -0.957  -0.326   0.263  0.00  0.00    +0.180 C 
BRANCH  12  13
ATOM     13  C   UNL     1      -1.746   0.066   1.486  0.00  0.00    -0.008 A 
ATOM     14  C   UNL     1      -2.712  -0.785   1.988  0.00  0.00    +0.007 A 
ATOM     15  C   UNL     1      -3.435  -0.426   3.109  0.00  0.00    +0.000 A 
ATOM     16  C   UNL     1      -3.193   0.786   3.730  0.00  0.00    +0.001 A 
ATOM     17  C   UNL     1      -2.227   1.637   3.230  0.00  0.00    +0.020 A 
ATOM     18  C   UNL     1      -1.498   1.276   2.110  0.00  0.00    +0.046 A 
ATOM     19 CL   UNL     1      -0.280   2.342   1.485  0.00  0.00    -0.083 Cl
ENDBRANCH  12  13
ENDBRANCH   8  12
ENDBRANCH   4   5
ENDBRANCH   1   3
BRANCH   1  20
ATOM     20  O   UNL     1      -6.341   2.638  -5.321  0.00  0.00    -0.456 OA
BRANCH  20  21
ATOM     21  C   UNL     1      -7.266   2.469  -6.398  0.00  0.00    +0.283 C 
BRANCH  21  23
ATOM     22  C   UNL     1      -8.044   4.467  -7.623  0.00  0.00    +0.077 C 
ATOM     23  C   UNL     1      -8.130   3.699  -6.515  0.00  0.00    +0.061 C 
ATOM     24  N   UNL     1      -8.990   4.015  -5.503  0.00  0.00    -0.269 N 
ATOM     25  C   UNL     1      -9.790   5.088  -5.516  0.00  0.00    +0.304 C 
ATOM     26  O   UNL     1     -10.519   5.290  -4.565  0.00  0.00    -0.252 OA
ATOM     27  N   UNL     1      -9.818   5.949  -6.553  0.00  0.00    -0.292 N 
ATOM     28  C   UNL     1      -8.930   5.694  -7.700  0.00  0.00    +0.110 C 
ATOM     29  C   UNL     1      -9.801   5.568  -8.952  0.00  0.00    +0.033 C 
ATOM     30  H   UNL     1      -9.019   3.431  -4.728  0.00  0.00    +0.156 HD
ATOM     31  H   UNL     1     -10.409   6.718  -6.544  0.00  0.00    +0.151 HD
BRANCH  22  32
ATOM     32  C   UNL     1      -7.158   4.137  -8.675  0.00  0.00    +0.339 C 
ATOM     33  O   UNL     1      -6.097   4.724  -8.783  0.00  0.00    -0.245 OA
BRANCH  32  34
ATOM     34  O   UNL     1      -7.489   3.173  -9.558  0.00  0.00    -0.462 OA
BRANCH  34  36
ATOM     35  C   UNL     1      -7.091   1.779 -11.492  0.00  0.00    +0.048 C 
ATOM     36  C   UNL     1      -6.546   2.892 -10.595  0.00  0.00    +0.229 C 
ENDBRANCH  34  36
ENDBRANCH  32  34
ENDBRANCH  22  32
ENDBRANCH  21  23
ENDBRANCH  20  21
ENDBRANCH   1  20
TORSDOF 10
