REMARK  Name = ZINC25182059
REMARK  11 active torsions:
REMARK  status: ('A' for Active; 'I' for Inactive)
REMARK    1  A    between atoms: C_1  and  C_2
REMARK    2  A    between atoms: C_2  and  C_24
REMARK    3  A    between atoms: N_5  and  C_9
REMARK    4  A    between atoms: C_9  and  C_10
REMARK    5  A    between atoms: N_12  and  C_13
REMARK    6  A    between atoms: C_13  and  C_14
REMARK    7  A    between atoms: C_14  and  C_15
REMARK    8  A    between atoms: C_15  and  O_16
REMARK    9  A    between atoms: O_16  and  C_17
REMARK   10  A    between atoms: C_17  and  C_18
REMARK   11  A    between atoms: C_27  and  N_30
REMARK                            x       y       z     vdW  Elec       q    Type
REMARK                         _______ _______ _______ _____ _____    ______ ____
ROOT
ATOM      1  C   UNL     1       1.254  -1.147  -9.024  0.00  0.00    +0.047 C 
ATOM      2  C   UNL     1       0.332   0.069  -9.139  0.00  0.00    +0.135 C 
ATOM      3  C   UNL     1      -0.612   0.135  -7.955  0.00  0.00    +0.251 C 
ATOM      4  O   UNL     1      -1.443  -0.687  -7.634  0.00  0.00    -0.272 OA
ATOM      5  N   UNL     1      -0.335   1.299  -7.334  0.00  0.00    -0.215 N 
ATOM      6  C   UNL     1       0.639   1.971  -7.956  0.00  0.00    +0.310 C 
ATOM      7  O   UNL     1       1.060   3.049  -7.585  0.00  0.00    -0.252 OA
ATOM      8  N   UNL     1       1.104   1.319  -9.037  0.00  0.00    -0.281 N 
ATOM      9  H   UNL     1       1.885   1.546  -9.778  0.00  0.00    +0.152 HD
ENDROOT
BRANCH   2  10
ATOM     10  C   UNL     1      -0.440   0.026 -10.432  0.00  0.00    -0.015 A 
ATOM     11  C   UNL     1      -1.692  -0.558 -10.470  0.00  0.00    +0.008 A 
ATOM     12  C   UNL     1      -2.403  -0.593 -11.655  0.00  0.00    +0.033 A 
ATOM     13  C   UNL     1      -1.858  -0.052 -12.805  0.00  0.00    +0.126 A 
ATOM     14  C   UNL     1      -0.604   0.528 -12.768  0.00  0.00    +0.033 A 
ATOM     15  C   UNL     1       0.105   0.567 -11.582  0.00  0.00    +0.008 A 
BRANCH  13  16
ATOM     16  N   UNL     1      -2.617  -0.094 -14.075  0.00  0.00    +0.056 N 
ATOM     17  O   UNL     1      -2.136   0.383 -15.087  0.00  0.00    -0.126 OA
ATOM     18  O   UNL     1      -3.722  -0.605 -14.107  0.00  0.00    -0.126 OA
ENDBRANCH  13  16
ENDBRANCH   2  10
BRANCH   5  19
ATOM     19  C   UNL     1      -1.021   1.771  -6.128  0.00  0.00    +0.213 C 
BRANCH  19  20
ATOM     20  C   UNL     1      -0.292   1.272  -4.907  0.00  0.00    +0.231 C 
ATOM     21  O   UNL     1       0.702   0.589  -5.032  0.00  0.00    -0.274 OA
ATOM     22  N   UNL     1      -0.745   1.585  -3.677  0.00  0.00    -0.314 N 
ATOM     23  H   UNL     1      -1.647   2.204  -3.564  0.00  0.00    +0.149 HD
BRANCH  22  24
ATOM     24  C   UNL     1      -0.037   1.099  -2.490  0.00  0.00    +0.106 C 
BRANCH  24  25
ATOM     25  C   UNL     1      -0.753   1.593  -1.232  0.00  0.00    +0.047 C 
BRANCH  25  26
ATOM     26  C   UNL     1      -0.013   1.086   0.008  0.00  0.00    +0.162 C 
BRANCH  26  27
ATOM     27  O   UNL     1      -0.682   1.547   1.184  0.00  0.00    -0.375 OA
BRANCH  27  28
ATOM     28  C   UNL     1      -0.068   1.127   2.404  0.00  0.00    +0.195 C 
BRANCH  28  29
ATOM     29  C   UNL     1      -0.852   1.666   3.572  0.00  0.00    -0.022 A 
ATOM     30  C   UNL     1      -0.530   2.898   4.111  0.00  0.00    +0.006 A 
ATOM     31  C   UNL     1      -1.252   3.396   5.179  0.00  0.00    +0.000 A 
ATOM     32  C   UNL     1      -2.290   2.657   5.716  0.00  0.00    +0.000 A 
ATOM     33  C   UNL     1      -2.608   1.422   5.181  0.00  0.00    +0.000 A 
ATOM     34  C   UNL     1      -1.889   0.927   4.109  0.00  0.00    +0.006 A 
ENDBRANCH  28  29
ENDBRANCH  27  28
ENDBRANCH  26  27
ENDBRANCH  25  26
ENDBRANCH  24  25
ENDBRANCH  22  24
ENDBRANCH  19  20
ENDBRANCH   5  19
TORSDOF 10
