REMARK  Name = ZINC60132827
REMARK  3 active torsions:
REMARK  status: ('A' for Active; 'I' for Inactive)
REMARK    1  A    between atoms: C_10  and  C_11
REMARK    2  A    between atoms: C_14  and  O_20
REMARK    3  A    between atoms: C_15  and  N_17
REMARK                            x       y       z     vdW  Elec       q    Type
REMARK                         _______ _______ _______ _____ _____    ______ ____
ROOT
ATOM      1  C   UNL     1       0.021   1.287  -0.787  0.00  0.00    +0.002 A 
ATOM      2  C   UNL     1       1.208   1.985  -0.865  0.00  0.00    +0.012 A 
ATOM      3  C   UNL     1       2.415   1.348  -0.557  0.00  0.00    +0.027 A 
ATOM      4  C   UNL     1       2.402   0.008  -0.173  0.00  0.00    -0.014 A 
ATOM      5  C   UNL     1       1.209  -0.681  -0.099  0.00  0.00    +0.045 A 
ATOM      6  C   UNL     1       0.018  -0.043  -0.405  0.00  0.00    +0.020 A 
ATOM      7 CL   UNL     1       1.200  -2.350   0.379  0.00  0.00    -0.083 Cl
ATOM      8  C   UNL     1       3.826  -0.412   0.095  0.00  0.00    +0.076 C 
ATOM      9  C   UNL     1       4.681   0.806  -0.166  0.00  0.00    +0.005 C 
ATOM     10  C   UNL     1       6.026   0.886  -0.050  0.00  0.00    +0.015 C 
ATOM     11  C   UNL     1       3.805   1.849  -0.557  0.00  0.00    +0.190 C 
ATOM     12  O   UNL     1       4.146   2.982  -0.848  0.00  0.00    -0.287 OA
ENDROOT
BRANCH  10  13
ATOM     13  C   UNL     1       6.697   2.188  -0.160  0.00  0.00    -0.022 A 
ATOM     14  C   UNL     1       6.141   3.318   0.453  0.00  0.00    +0.011 A 
ATOM     15  C   UNL     1       6.774   4.536   0.346  0.00  0.00    +0.048 A 
ATOM     16  C   UNL     1       7.963   4.645  -0.368  0.00  0.00    +0.147 A 
ATOM     17  C   UNL     1       8.518   3.526  -0.977  0.00  0.00    +0.168 A 
ATOM     18  C   UNL     1       7.897   2.302  -0.872  0.00  0.00    +0.044 A 
BRANCH  17  19
ATOM     19  N   UNL     1       9.783   3.649  -1.736  0.00  0.00    +0.060 N 
ATOM     20  O   UNL     1      10.268   2.677  -2.266  0.00  0.00    -0.126 OA
ATOM     21  O   UNL     1      10.332   4.723  -1.825  0.00  0.00    -0.126 OA
ENDBRANCH  17  19
BRANCH  16  22
ATOM     22  O   UNL     1       8.582   5.848  -0.470  0.00  0.00    -0.504 OA
ATOM     23  H   UNL     1       9.219   6.024   0.236  0.00  0.00    +0.292 HD
ENDBRANCH  16  22
ENDBRANCH  10  13
TORSDOF 3
