REMARK  Name = ZINC13048350
REMARK  11 active torsions:
REMARK  status: ('A' for Active; 'I' for Inactive)
REMARK    1  A    between atoms: C_1  and  C_2
REMARK    2  A    between atoms: C_2  and  C_4
REMARK    3  A    between atoms: C_2  and  S_15
REMARK    4  A    between atoms: N_6  and  C_7
REMARK    5  A    between atoms: S_15  and  C_16
REMARK    6  A    between atoms: C_20  and  C_32
REMARK    7  A    between atoms: N_26  and  C_27
REMARK    8  A    between atoms: C_27  and  C_28
REMARK    9  A    between atoms: C_28  and  C_29
REMARK   10  A    between atoms: C_29  and  O_30
REMARK   11  A    between atoms: O_30  and  C_31
REMARK                            x       y       z     vdW  Elec       q    Type
REMARK                         _______ _______ _______ _____ _____    ______ ____
ROOT
ATOM      1  C   UNL     1      -1.201   3.384   0.021  0.00  0.00    +0.173 A 
ATOM      2  N   UNL     1      -1.185   2.074   0.010  0.00  0.00    -0.223 NA
ATOM      3  C   UNL     1      -0.022   1.381  -0.018  0.00  0.00    +0.080 A 
ATOM      4  C   UNL     1      -0.007  -0.017  -0.035  0.00  0.00    +0.043 A 
ATOM      5  C   UNL     1       1.210  -0.686  -0.058  0.00  0.00    +0.065 A 
ATOM      6  C   UNL     1       2.414   0.029  -0.066  0.00  0.00    +0.016 A 
ATOM      7  C   UNL     1       2.412   1.394  -0.050  0.00  0.00    +0.016 A 
ATOM      8  C   UNL     1       1.202   2.087  -0.026  0.00  0.00    +0.065 A 
ATOM      9  C   UNL     1       1.153   3.558  -0.009  0.00  0.00    +0.262 A 
ATOM     10  O   UNL     1       2.172   4.222  -0.014  0.00  0.00    -0.267 OA
ATOM     11  N   UNL     1      -0.066   4.144   0.015  0.00  0.00    -0.287 N 
ENDROOT
BRANCH   5  12
ATOM     12  C   UNL     1       1.234  -2.166  -0.075  0.00  0.00    +0.387 C 
ATOM     13  O   UNL     1       0.193  -2.790  -0.069  0.00  0.00    -0.241 OA
ATOM     14  O   UNL     1       2.411  -2.820  -0.098  0.00  0.00    -0.241 OA
ENDBRANCH   5  12
BRANCH   1  15
ATOM     15  S   UNL     1      -2.760   4.205   0.051  0.00  0.00    -0.075 S 
BRANCH  15  17
ATOM     16  C   UNL     1      -3.716   2.012  -1.268  0.00  0.00    +0.029 C 
ATOM     17  C   UNL     1      -3.868   2.773   0.050  0.00  0.00    +0.137 C 
BRANCH  17  18
ATOM     18  C   UNL     1      -5.293   3.241   0.198  0.00  0.00    +0.230 C 
ATOM     19  O   UNL     1      -5.603   4.361  -0.149  0.00  0.00    -0.274 OA
ATOM     20  N   UNL     1      -6.223   2.415   0.718  0.00  0.00    -0.284 N 
ATOM     21  H   UNL     1      -5.991   1.498   0.934  0.00  0.00    +0.155 HD
BRANCH  20  22
ATOM     22  C   UNL     1      -7.524   2.880   0.946  0.00  0.00    +0.036 A 
ATOM     23  C   UNL     1      -8.246   2.418   2.038  0.00  0.00    +0.026 A 
ATOM     24  C   UNL     1      -9.527   2.882   2.265  0.00  0.00    +0.043 A 
ATOM     25  C   UNL     1     -10.097   3.798   1.398  0.00  0.00    +0.159 A 
ATOM     26  C   UNL     1      -9.381   4.258   0.303  0.00  0.00    +0.160 A 
ATOM     27  C   UNL     1      -8.095   3.800   0.076  0.00  0.00    +0.064 A 
ATOM     28  F   UNL     1      -9.938   5.152  -0.542  0.00  0.00    -0.202 F 
ATOM     29  F   UNL     1     -11.352   4.246   1.619  0.00  0.00    -0.202 F 
ENDBRANCH  20  22
ENDBRANCH  17  18
ENDBRANCH  15  17
ENDBRANCH   1  15
BRANCH  11  30
ATOM     30  C   UNL     1      -0.169   5.605   0.033  0.00  0.00    +0.129 C 
BRANCH  30  31
ATOM     31  C   UNL     1      -0.225   6.130  -1.403  0.00  0.00    +0.050 C 
BRANCH  31  32
ATOM     32  C   UNL     1      -0.332   7.657  -1.384  0.00  0.00    +0.161 C 
BRANCH  32  33
ATOM     33  O   UNL     1      -0.384   8.147  -2.725  0.00  0.00    -0.383 OA
ATOM     34  C   UNL     1      -0.486   9.570  -2.820  0.00  0.00    +0.193 C 
ENDBRANCH  32  33
ENDBRANCH  31  32
ENDBRANCH  30  31
ENDBRANCH  11  30
TORSDOF 9
