REMARK  Name = ZINC23338822
REMARK  5 active torsions:
REMARK  status: ('A' for Active; 'I' for Inactive)
REMARK    1  A    between atoms: C_6  and  C_7
REMARK    2  A    between atoms: C_10  and  C_12
REMARK    3  A    between atoms: C_13  and  C_14
REMARK    4  A    between atoms: N_16  and  C_17
REMARK    5  A    between atoms: C_17  and  C_18
REMARK                            x       y       z     vdW  Elec       q    Type
REMARK                         _______ _______ _______ _____ _____    ______ ____
ROOT
ATOM      1  C   UNL     1       1.744   3.153   0.002  0.00  0.00    +0.051 C 
ATOM      2  C   UNL     1       3.074   3.428  -0.009  0.00  0.00    +0.071 C 
ENDROOT
BRANCH   1   6
ATOM      3  C   UNL     1       1.324  -0.388  -0.013  0.00  0.00    +0.136 A 
ATOM      4  C   UNL     1       0.002  -0.004   0.002  0.00  0.00    +0.050 A 
ATOM      5  C   UNL     1      -0.017   1.393   0.010  0.00  0.00    +0.050 A 
ATOM      6  C   UNL     1       1.301   1.811  -0.001  0.00  0.00    +0.129 A 
ATOM      7  O   UNL     1       2.091   0.717  -0.014  0.00  0.00    -0.455 OA
BRANCH   3  13
ATOM      8  C   UNL     1       3.190  -2.037  -0.039  0.00  0.00    +0.013 A 
ATOM      9  C   UNL     1       3.644  -3.339  -0.051  0.00  0.00    +0.022 A 
ATOM     10  C   UNL     1       2.744  -4.390  -0.048  0.00  0.00    +0.059 A 
ATOM     11  C   UNL     1       1.380  -4.142  -0.034  0.00  0.00    +0.060 A 
ATOM     12  C   UNL     1       0.912  -2.844  -0.016  0.00  0.00    +0.033 A 
ATOM     13  C   UNL     1       1.817  -1.779  -0.025  0.00  0.00    +0.019 A 
ATOM     14 CL   UNL     1       0.258  -5.467  -0.030  0.00  0.00    -0.082 Cl
ATOM     15 CL   UNL     1       3.325  -6.026  -0.063  0.00  0.00    -0.082 Cl
ENDBRANCH   3  13
ENDBRANCH   1   6
BRANCH   2  16
ATOM     16  C   UNL     1       3.518   4.771  -0.007  0.00  0.00    +0.237 C 
ATOM     17  O   UNL     1       2.708   5.681   0.005  0.00  0.00    -0.271 OA
ATOM     18  N   UNL     1       4.838   5.045  -0.018  0.00  0.00    -0.306 N 
ATOM     19  H   UNL     1       5.570   4.224  -0.029  0.00  0.00    +0.149 HD
BRANCH  18  20
ATOM     20  C   UNL     1       5.298   6.436  -0.015  0.00  0.00    +0.160 C 
BRANCH  20  21
ATOM     21  C   UNL     1       6.804   6.467  -0.029  0.00  0.00    +0.065 A 
ATOM     22  C   UNL     1       7.466   6.979  -1.104  0.00  0.00    +0.095 A 
ATOM     23  C   UNL     1       8.876   6.998  -1.083  0.00  0.00    +0.252 A 
ATOM     24  O   UNL     1       9.507   7.452  -2.022  0.00  0.00    -0.268 OA
ATOM     25  N   UNL     1       9.512   6.497  -0.002  0.00  0.00    -0.313 N 
ATOM     26  H   UNL     1      10.611   6.496   0.038  0.00  0.00    +0.170 HD
ATOM     27  C   UNL     1       8.799   5.999   1.027  0.00  0.00    +0.199 A 
ATOM     28  N   UNL     1       7.492   5.987   1.010  0.00  0.00    -0.240 NA
ENDBRANCH  20  21
ENDBRANCH  18  20
ENDBRANCH   2  16
TORSDOF 5
