REMARK  Name = ZINC13636202
REMARK  5 active torsions:
REMARK  status: ('A' for Active; 'I' for Inactive)
REMARK    1  A    between atoms: C_1  and  C_2
REMARK    2  A    between atoms: C_9  and  C_11
REMARK    3  A    between atoms: C_11  and  S_12
REMARK    4  A    between atoms: S_12  and  C_13
REMARK    5  A    between atoms: C_20  and  C_25
REMARK                            x       y       z     vdW  Elec       q    Type
REMARK                         _______ _______ _______ _____ _____    ______ ____
ROOT
ATOM      1  C   UNL     1      -0.013   1.086   0.008  0.00  0.00    +0.066 C 
ATOM      2  C   UNL     1      -0.718   1.572   1.248  0.00  0.00    +0.054 A 
ATOM      3  C   UNL     1      -0.004   1.813   2.429  0.00  0.00    +0.060 A 
ATOM      4  C   UNL     1      -0.694   2.265   3.559  0.00  0.00    +0.057 A 
ATOM      5  N   UNL     1      -2.001   2.444   3.470  0.00  0.00    -0.218 NA
ATOM      6  C   UNL     1      -2.644   2.205   2.336  0.00  0.00    +0.222 A 
ATOM      7  N   UNL     1      -2.022   1.784   1.243  0.00  0.00    -0.219 NA
ATOM      8  N   UNL     1      -4.013   2.408   2.288  0.00  0.00    -0.254 N 
ATOM      9  C   UNL     1      -4.690   2.172   1.147  0.00  0.00    +0.230 C 
ATOM     10  O   UNL     1      -4.101   1.782   0.162  0.00  0.00    -0.274 OA
ATOM     11  C   UNL     1       0.014   2.548   4.853  0.00  0.00    +0.060 C 
ATOM     12  C   UNL     1       1.338   1.792   4.933  0.00  0.00    -0.001 C 
ATOM     13  C   UNL     1       2.189   2.118   3.699  0.00  0.00    +0.083 C 
ATOM     14  C   UNL     1       1.448   1.593   2.485  0.00  0.00    +0.167 C 
ATOM     15  O   UNL     1       2.032   1.014   1.594  0.00  0.00    -0.292 OA
ATOM     16  C   UNL     1       2.091   2.215   6.197  0.00  0.00    +0.008 C 
ATOM     17  H   UNL     1      -4.485   2.719   3.076  0.00  0.00    +0.158 HD
ENDROOT
BRANCH   9  18
ATOM     18  C   UNL     1      -6.180   2.392   1.095  0.00  0.00    +0.172 C 
BRANCH  18  19
ATOM     19  S   UNL     1      -6.794   1.990  -0.564  0.00  0.00    -0.088 S 
BRANCH  19  20
ATOM     20  C   UNL     1      -8.527   2.295  -0.463  0.00  0.00    +0.160 A 
ATOM     21  N   UNL     1      -9.244   2.711   0.564  0.00  0.00    -0.133 NA
ATOM     22  N   UNL     1     -10.601   2.889   0.423  0.00  0.00    -0.125 NA
ATOM     23  C   UNL     1     -11.180   2.633  -0.734  0.00  0.00    +0.180 A 
ATOM     24  S   UNL     1      -9.783   2.116  -1.720  0.00  0.00    -0.025 S 
ATOM     25  N   UNL     1     -12.519   2.737  -1.091  0.00  0.00    -0.336 N 
ATOM     26  H   UNL     1     -12.800   2.511  -1.991  0.00  0.00    +0.144 HD
ATOM     27  H   UNL     1     -13.172   3.037  -0.440  0.00  0.00    +0.144 HD
ENDBRANCH  19  20
ENDBRANCH  18  19
ENDBRANCH   9  18
TORSDOF 3
