REMARK  Name = ZINC19190280
REMARK  12 active torsions:
REMARK  status: ('A' for Active; 'I' for Inactive)
REMARK    1  A    between atoms: C_1  and  C_2
REMARK    2  A    between atoms: C_2  and  O_3
REMARK    3  A    between atoms: O_3  and  C_4
REMARK    4  A    between atoms: C_4  and  C_6
REMARK    5  A    between atoms: C_7  and  C_19
REMARK    6  A    between atoms: C_12  and  C_14
REMARK    7  A    between atoms: C_19  and  O_20
REMARK    8  A    between atoms: O_20  and  C_21
REMARK    9  A    between atoms: C_21  and  C_23
REMARK   10  A    between atoms: C_23  and  C_24
REMARK   11  A    between atoms: C_24  and  C_25
REMARK   12  A    between atoms: C_25  and  C_27
REMARK                            x       y       z     vdW  Elec       q    Type
REMARK                         _______ _______ _______ _____ _____    ______ ____
ROOT
ATOM      1  C   UNL     1       4.466  -5.289   1.036  0.00  0.00    +0.084 C 
ATOM      2  C   UNL     1       3.936  -4.823  -0.115  0.00  0.00    +0.061 C 
ATOM      3  N   UNL     1       4.698  -4.692  -1.240  0.00  0.00    -0.269 N 
ATOM      4  C   UNL     1       6.001  -4.997  -1.294  0.00  0.00    +0.305 C 
ATOM      5  O   UNL     1       6.598  -4.842  -2.341  0.00  0.00    -0.252 OA
ATOM      6  N   UNL     1       6.670  -5.474  -0.226  0.00  0.00    -0.285 N 
ATOM      7  C   UNL     1       5.936  -5.657   1.037  0.00  0.00    +0.179 C 
ATOM      8  H   UNL     1       4.246  -4.319  -2.171  0.00  0.00    +0.156 HD
ATOM      9  H   UNL     1       7.740  -5.725  -0.282  0.00  0.00    +0.151 HD
ENDROOT
BRANCH   7  10
ATOM     10  C   UNL     1       6.621  -4.832   2.096  0.00  0.00    +0.130 A 
ATOM     11  C   UNL     1       6.950  -5.253   3.330  0.00  0.00    +0.047 A 
ATOM     12  C   UNL     1       7.569  -4.163   3.983  0.00  0.00    +0.041 A 
ATOM     13  C   UNL     1       7.581  -3.141   3.109  0.00  0.00    +0.195 A 
ATOM     14  O   UNL     1       7.010  -3.554   1.966  0.00  0.00    -0.466 OA
ENDBRANCH   7  10
BRANCH   1  15
ATOM     15  C   UNL     1       3.676  -5.430   2.201  0.00  0.00    +0.339 C 
ATOM     16  O   UNL     1       3.260  -6.526   2.525  0.00  0.00    -0.245 OA
BRANCH  15  17
ATOM     17  O   UNL     1       3.385  -4.348   2.953  0.00  0.00    -0.462 OA
BRANCH  17  19
ATOM     18  C   UNL     1       2.360  -3.231   4.835  0.00  0.00    +0.048 C 
ATOM     19  C   UNL     1       2.583  -4.563   4.116  0.00  0.00    +0.229 C 
ENDBRANCH  17  19
ENDBRANCH  15  17
ENDBRANCH   1  15
BRANCH   2  20
ATOM     20  C   UNL     1       2.477  -4.446  -0.160  0.00  0.00    +0.283 C 
BRANCH  20  21
ATOM     21  O   UNL     1       2.353  -3.018  -0.393  0.00  0.00    -0.459 OA
BRANCH  21  22
ATOM     22  C   UNL     1       1.110  -2.517  -0.461  0.00  0.00    +0.308 C 
ATOM     23  O   UNL     1       0.157  -3.248  -0.329  0.00  0.00    -0.251 OA
BRANCH  22  24
ATOM     24  C   UNL     1       0.903  -1.044  -0.701  0.00  0.00    +0.128 C 
BRANCH  24  25
ATOM     25  C   UNL     1      -0.596  -0.738  -0.733  0.00  0.00    +0.091 C 
BRANCH  25  26
ATOM     26  C   UNL     1      -0.803   0.736  -0.973  0.00  0.00    +0.164 C 
ATOM     27  O   UNL     1       0.154   1.468  -1.105  0.00  0.00    -0.292 OA
BRANCH  26  28
ATOM     28  C   UNL     1      -2.166   1.284  -1.053  0.00  0.00    +0.018 A 
ATOM     29  C   UNL     1      -3.273   0.440  -0.913  0.00  0.00    +0.011 A 
ATOM     30  C   UNL     1      -4.545   0.964  -0.984  0.00  0.00    +0.004 A 
ATOM     31  C   UNL     1      -4.735   2.320  -1.205  0.00  0.00    -0.044 A 
ATOM     32  C   UNL     1      -3.644   3.160  -1.350  0.00  0.00    -0.044 A 
ATOM     33  C   UNL     1      -2.363   2.649  -1.276  0.00  0.00    +0.015 A 
ATOM     34  C   UNL     1      -4.119   4.580  -1.579  0.00  0.00    +0.036 C 
ATOM     35  C   UNL     1      -5.600   4.448  -1.994  0.00  0.00    +0.009 C 
ATOM     36  C   UNL     1      -6.015   3.120  -1.327  0.00  0.00    +0.036 C 
ENDBRANCH  26  28
ENDBRANCH  25  26
ENDBRANCH  24  25
ENDBRANCH  22  24
ENDBRANCH  21  22
ENDBRANCH  20  21
ENDBRANCH   2  20
TORSDOF 11
