REMARK  Name = ZINC24029372
REMARK  7 active torsions:
REMARK  status: ('A' for Active; 'I' for Inactive)
REMARK    1  A    between atoms: C_1  and  C_2
REMARK    2  A    between atoms: C_4  and  N_24
REMARK    3  A    between atoms: C_6  and  C_7
REMARK    4  A    between atoms: N_9  and  C_10
REMARK    5  A    between atoms: C_14  and  N_16
REMARK    6  A    between atoms: C_17  and  C_19
REMARK    7  A    between atoms: C_25  and  C_27
REMARK                            x       y       z     vdW  Elec       q    Type
REMARK                         _______ _______ _______ _____ _____    ______ ____
ROOT
ATOM      1  C   UNL     1      -9.678   2.211   0.298  0.00  0.00    +0.255 C 
ATOM      2  O   UNL     1      -9.843   1.007   0.390  0.00  0.00    -0.269 OA
ATOM      3  N   UNL     1      -8.439   2.709   0.120  0.00  0.00    -0.281 N 
ATOM      4  H   UNL     1      -8.298   3.789  -0.038  0.00  0.00    +0.155 HD
ENDROOT
BRANCH   1  10
ATOM      5  C   UNL     1     -12.599   1.352   0.687  0.00  0.00    +0.045 C 
ATOM      6  C   UNL     1     -12.133   2.779   0.554  0.00  0.00    -0.029 A 
ATOM      7  C   UNL     1     -13.015   3.825   0.602  0.00  0.00    +0.035 A 
ATOM      8  C   UNL     1     -12.530   5.109   0.468  0.00  0.00    +0.073 A 
ATOM      9  S   UNL     1     -10.824   4.867   0.278  0.00  0.00    -0.069 S 
ATOM     10  C   UNL     1     -10.790   3.087   0.380  0.00  0.00    +0.079 A 
BRANCH   8  11
ATOM     11  N   UNL     1     -13.237   6.303   0.481  0.00  0.00    -0.273 N 
ATOM     12  C   UNL     1     -12.585   7.473   0.334  0.00  0.00    +0.284 C 
ATOM     13  O   UNL     1     -11.377   7.483   0.189  0.00  0.00    -0.266 OA
ATOM     14  H   UNL     1     -14.329   6.295   0.612  0.00  0.00    +0.156 HD
BRANCH  12  15
ATOM     15  C   UNL     1     -13.331   8.735   0.347  0.00  0.00    +0.189 A 
ATOM     16  C   UNL     1     -12.798   9.985   0.209  0.00  0.00    +0.054 A 
ATOM     17  C   UNL     1     -13.867  10.891   0.283  0.00  0.00    +0.042 A 
ATOM     18  C   UNL     1     -14.992  10.164   0.460  0.00  0.00    +0.196 A 
ATOM     19  O   UNL     1     -14.666   8.865   0.493  0.00  0.00    -0.458 OA
ENDBRANCH  12  15
ENDBRANCH   8  11
ENDBRANCH   1  10
BRANCH   3  20
ATOM     20  C   UNL     1      -7.332   1.855   0.136  0.00  0.00    +0.035 A 
ATOM     21  C   UNL     1      -7.438   0.570  -0.382  0.00  0.00    +0.023 A 
ATOM     22  C   UNL     1      -6.345  -0.275  -0.367  0.00  0.00    +0.004 A 
ATOM     23  C   UNL     1      -5.142   0.156   0.158  0.00  0.00    +0.023 A 
ATOM     24  C   UNL     1      -5.031   1.437   0.683  0.00  0.00    +0.035 A 
ATOM     25  C   UNL     1      -6.127   2.288   0.670  0.00  0.00    +0.046 A 
BRANCH  24  26
ATOM     26  N   UNL     1      -3.815   1.871   1.220  0.00  0.00    -0.281 N 
ATOM     27  C   UNL     1      -3.804   2.699   2.283  0.00  0.00    +0.255 C 
ATOM     28  O   UNL     1      -4.851   3.136   2.724  0.00  0.00    -0.269 OA
ATOM     29  H   UNL     1      -2.866   1.536   0.774  0.00  0.00    +0.155 HD
BRANCH  27  30
ATOM     30  C   UNL     1      -2.533   3.073   2.908  0.00  0.00    +0.074 A 
ATOM     31  C   UNL     1      -2.304   3.901   3.996  0.00  0.00    +0.021 A 
ATOM     32  C   UNL     1      -0.999   4.079   4.383  0.00  0.00    +0.008 A 
ATOM     33  C   UNL     1      -0.011   3.452   3.692  0.00  0.00    +0.046 A 
ATOM     34  S   UNL     1      -0.875   2.583   2.466  0.00  0.00    -0.092 S 
ENDBRANCH  27  30
ENDBRANCH  24  26
ENDBRANCH   3  20
TORSDOF 6
