REMARK  Name = ZINC39909864
REMARK  3 active torsions:
REMARK  status: ('A' for Active; 'I' for Inactive)
REMARK    1  A    between atoms: C_6  and  C_10
REMARK    2  A    between atoms: N_14  and  N_18
REMARK    3  A    between atoms: C_19  and  C_21
REMARK                            x       y       z     vdW  Elec       q    Type
REMARK                         _______ _______ _______ _____ _____    ______ ____
ROOT
ATOM      1  C   UNL     1       3.534  -2.776  -1.283  0.00  0.00    +0.039 C 
ATOM      2  C   UNL     1       4.295  -3.872  -1.181  0.00  0.00    +0.078 C 
ATOM      3  C   UNL     1       4.798  -4.566   0.031  0.00  0.00    +0.275 C 
ATOM      4  O   UNL     1       4.542  -4.167   1.151  0.00  0.00    -0.267 OA
ATOM      5  N   UNL     1       5.538  -5.643  -0.172  0.00  0.00    -0.169 N 
ATOM      6  C   UNL     1       5.819  -6.082  -1.416  0.00  0.00    +0.138 C 
ATOM      7  S   UNL     1       6.751  -7.442  -1.876  0.00  0.00    -0.026 S 
ATOM      8  S   UNL     1       4.979  -4.908  -2.467  0.00  0.00    -0.060 S 
ENDROOT
BRANCH   1  14
ATOM      9  C   UNL     1      -0.016   1.344   0.009  0.00  0.00    +0.002 A 
ATOM     10  C   UNL     1       1.158   2.118   0.002  0.00  0.00    +0.002 A 
ATOM     11  C   UNL     1       2.389   1.570  -0.013  0.00  0.00    +0.027 A 
ATOM     12  C   UNL     1       2.533   0.108  -0.022  0.00  0.00    +0.060 A 
ATOM     13  N   UNL     1       3.569  -0.680  -0.036  0.00  0.00    -0.360 N 
ATOM     14  C   UNL     1       3.071  -2.062  -0.039  0.00  0.00    +0.200 C 
ATOM     15  N   UNL     1       1.606  -1.974  -0.024  0.00  0.00    -0.360 N 
ATOM     16  C   UNL     1       1.290  -0.712  -0.014  0.00  0.00    +0.060 A 
ATOM     17  C   UNL     1       0.002  -0.004   0.002  0.00  0.00    +0.027 A 
ATOM     18  H   UNL     1       4.499  -0.405  -0.045  0.00  0.00    +0.162 HD
ATOM     19  H   UNL     1       0.987  -2.721  -0.022  0.00  0.00    +0.162 HD
ENDBRANCH   1  14
BRANCH   5  20
ATOM     20  N   UNL     1       6.043  -6.343   0.930  0.00  0.00    -0.222 N 
ATOM     21  C   UNL     1       5.492  -7.519   1.292  0.00  0.00    +0.261 C 
ATOM     22  O   UNL     1       4.557  -7.971   0.661  0.00  0.00    -0.269 OA
ATOM     23  H   UNL     1       6.790  -5.983   1.434  0.00  0.00    +0.174 HD
BRANCH  21  24
ATOM     24  C   UNL     1       6.025  -8.258   2.455  0.00  0.00    +0.038 A 
ATOM     25  C   UNL     1       7.096  -7.739   3.186  0.00  0.00    +0.014 A 
ATOM     26  C   UNL     1       7.588  -8.433   4.271  0.00  0.00    +0.021 A 
ATOM     27  C   UNL     1       7.023  -9.643   4.636  0.00  0.00    +0.041 A 
ATOM     28  C   UNL     1       5.961 -10.164   3.916  0.00  0.00    +0.021 A 
ATOM     29  C   UNL     1       5.456  -9.476   2.832  0.00  0.00    +0.014 A 
ATOM     30 CL   UNL     1       7.649 -10.512   6.003  0.00  0.00    -0.084 Cl
ENDBRANCH  21  24
ENDBRANCH   5  20
TORSDOF 3
