REMARK  Name = ZINC16480861
REMARK  4 active torsions:
REMARK  status: ('A' for Active; 'I' for Inactive)
REMARK    1  A    between atoms: C_4  and  C_7
REMARK    2  A    between atoms: C_7  and  S_8
REMARK    3  A    between atoms: S_8  and  C_9
REMARK    4  A    between atoms: C_14  and  N_19
REMARK                            x       y       z     vdW  Elec       q    Type
REMARK                         _______ _______ _______ _____ _____    ______ ____
ROOT
ATOM      1  C   UNL     1       5.786  -1.866   1.477  0.00  0.00    +0.168 A 
ATOM      2  N   UNL     1       6.569  -2.310   2.505  0.00  0.00    -0.333 N 
ATOM      3  H   UNL     1       6.386  -2.211   3.453  0.00  0.00    +0.168 HD
ATOM      4  C   UNL     1       7.674  -2.927   1.942  0.00  0.00    +0.069 A 
ATOM      5  C   UNL     1       8.794  -3.556   2.465  0.00  0.00    +0.060 A 
ATOM      6  C   UNL     1       9.744  -4.085   1.615  0.00  0.00    +0.128 A 
ATOM      7  C   UNL     1       9.587  -3.991   0.240  0.00  0.00    +0.035 A 
ATOM      8  C   UNL     1       8.482  -3.369  -0.296  0.00  0.00    +0.032 A 
ATOM      9  C   UNL     1       7.510  -2.829   0.550  0.00  0.00    +0.090 A 
ATOM     10  N   UNL     1       6.339  -2.177   0.330  0.00  0.00    -0.222 NA
ENDROOT
BRANCH   6  11
ATOM     11  N   UNL     1      10.938  -4.756   2.175  0.00  0.00    +0.056 N 
ATOM     12  O   UNL     1      11.079  -4.840   3.372  0.00  0.00    -0.126 OA
ATOM     13  O   UNL     1      11.773  -5.221   1.434  0.00  0.00    -0.126 OA
ENDBRANCH   6  11
BRANCH   1  14
ATOM     14  S   UNL     1       4.257  -1.011   1.666  0.00  0.00    -0.083 S 
BRANCH  14  15
ATOM     15  C   UNL     1       3.711  -0.707  -0.038  0.00  0.00    +0.112 C 
BRANCH  15  19
ATOM     16  C   UNL     1      -0.017   1.378   0.010  0.00  0.00    +0.000 A 
ATOM     17  C   UNL     1       1.171   2.086   0.002  0.00  0.00    +0.000 A 
ATOM     18  C   UNL     1       2.377   1.411  -0.013  0.00  0.00    +0.004 A 
ATOM     19  C   UNL     1       2.396   0.029  -0.020  0.00  0.00    -0.037 A 
ATOM     20  C   UNL     1       1.208  -0.679  -0.012  0.00  0.00    +0.004 A 
ATOM     21  C   UNL     1       0.002  -0.004   0.002  0.00  0.00    +0.000 A 
ENDBRANCH  15  19
ENDBRANCH  14  15
ENDBRANCH   1  14
TORSDOF 4
