REMARK  Name = ZINC64374288
REMARK  7 active torsions:
REMARK  status: ('A' for Active; 'I' for Inactive)
REMARK    1  A    between atoms: C_1  and  C_2
REMARK    2  A    between atoms: C_8  and  C_10
REMARK    3  A    between atoms: C_13  and  N_16
REMARK    4  A    between atoms: C_17  and  C_19
REMARK    5  A    between atoms: C_20  and  C_21
REMARK    6  A    between atoms: C_22  and  C_28
REMARK    7  A    between atoms: N_24  and  C_27
REMARK                            x       y       z     vdW  Elec       q    Type
REMARK                         _______ _______ _______ _____ _____    ______ ____
ROOT
ATOM      1  C   UNL     1       2.525  -2.650  -0.009  0.00  0.00    +0.017 A 
ATOM      2  C   UNL     1       2.605  -4.036   0.158  0.00  0.00    +0.013 A 
ATOM      3  C   UNL     1       3.832  -4.659   0.143  0.00  0.00    +0.024 A 
ATOM      4  C   UNL     1       4.992  -3.912  -0.039  0.00  0.00    +0.034 A 
ATOM      5  C   UNL     1       4.916  -2.533  -0.205  0.00  0.00    +0.024 A 
ATOM      6  C   UNL     1       3.692  -1.903  -0.196  0.00  0.00    +0.013 A 
ENDROOT
BRANCH   1  14
ATOM      7  C   UNL     1      -0.046   1.468  -0.341  0.00  0.00    +0.066 C 
ATOM      8  C   UNL     1      -0.014  -0.027  -0.150  0.00  0.00    +0.046 A 
ATOM      9  C   UNL     1      -1.178  -0.715   0.030  0.00  0.00    +0.093 A 
ATOM     10  C   UNL     1      -1.123  -2.111   0.206  0.00  0.00    +0.252 A 
ATOM     11  O   UNL     1      -2.145  -2.758   0.369  0.00  0.00    -0.268 OA
ATOM     12  N   UNL     1       0.082  -2.720   0.191  0.00  0.00    -0.307 N 
ATOM     13  H   UNL     1       0.144  -3.680   0.310  0.00  0.00    +0.170 HD
ATOM     14  C   UNL     1       1.212  -1.978   0.007  0.00  0.00    +0.141 A 
ATOM     15  N   UNL     1       1.150  -0.673  -0.163  0.00  0.00    -0.234 NA
ENDBRANCH   1  14
BRANCH   4  16
ATOM     16  N   UNL     1       6.233  -4.547  -0.054  0.00  0.00    -0.282 N 
ATOM     17  C   UNL     1       6.347  -5.791  -0.560  0.00  0.00    +0.241 C 
ATOM     18  O   UNL     1       5.389  -6.323  -1.090  0.00  0.00    -0.270 OA
ATOM     19  H   UNL     1       7.014  -4.093   0.299  0.00  0.00    +0.155 HD
BRANCH  17  20
ATOM     20  C   UNL     1       7.582  -6.479  -0.474  0.00  0.00    +0.068 C 
ATOM     21  C   UNL     1       7.697  -7.727  -0.981  0.00  0.00    +0.018 C 
BRANCH  21  22
ATOM     22  C   UNL     1       8.977  -8.441  -0.893  0.00  0.00    +0.034 A 
ATOM     23  C   UNL     1       9.174  -9.760  -0.421  0.00  0.00    +0.069 A 
ATOM     24  N   UNL     1      10.447 -10.032  -0.499  0.00  0.00    -0.175 NA
ATOM     25  N   UNL     1      11.120  -8.920  -1.016  0.00  0.00    -0.255 N 
ATOM     26  C   UNL     1      10.220  -7.951  -1.260  0.00  0.00    +0.134 A 
ATOM     27 CL   UNL     1      10.554  -6.378  -1.913  0.00  0.00    -0.062 Cl
ATOM     28  C   UNL     1      12.562  -8.829  -1.256  0.00  0.00    +0.174 C 
ATOM     29  C   UNL     1       8.099 -10.689   0.084  0.00  0.00    +0.068 C 
ENDBRANCH  21  22
ENDBRANCH  17  20
ENDBRANCH   4  16
TORSDOF 4
