REMARK  Name = ZINC32805955
REMARK  9 active torsions:
REMARK  status: ('A' for Active; 'I' for Inactive)
REMARK    1  A    between atoms: C_1  and  C_2
REMARK    2  A    between atoms: C_2  and  O_3
REMARK    3  A    between atoms: O_3  and  C_4
REMARK    4  A    between atoms: C_4  and  C_6
REMARK    5  A    between atoms: C_7  and  C_19
REMARK    6  A    between atoms: C_12  and  C_14
REMARK    7  A    between atoms: C_19  and  S_20
REMARK    8  A    between atoms: S_20  and  C_21
REMARK    9  A    between atoms: N_25  and  C_26
REMARK                            x       y       z     vdW  Elec       q    Type
REMARK                         _______ _______ _______ _____ _____    ______ ____
ROOT
ATOM      1  C   UNL     1      -0.694   1.692   3.586  0.00  0.00    +0.079 C 
ATOM      2  C   UNL     1      -0.317   1.171   4.774  0.00  0.00    +0.034 C 
ATOM      3  N   UNL     1      -0.975   1.496   5.926  0.00  0.00    -0.272 N 
ATOM      4  C   UNL     1      -2.026   2.324   5.973  0.00  0.00    +0.304 C 
ATOM      5  O   UNL     1      -2.550   2.549   7.046  0.00  0.00    -0.252 OA
ATOM      6  N   UNL     1      -2.522   2.917   4.869  0.00  0.00    -0.288 N 
ATOM      7  C   UNL     1      -1.878   2.637   3.574  0.00  0.00    +0.150 C 
ATOM      8  H   UNL     1      -0.647   1.069   6.885  0.00  0.00    +0.156 HD
ATOM      9  H   UNL     1      -3.385   3.596   4.918  0.00  0.00    +0.151 HD
ENDROOT
BRANCH   7  10
ATOM     10  C   UNL     1      -2.922   2.062   2.651  0.00  0.00    +0.015 A 
ATOM     11  C   UNL     1      -3.203   2.395   1.368  0.00  0.00    +0.013 A 
ATOM     12  C   UNL     1      -4.217   1.725   0.708  0.00  0.00    +0.008 A 
ATOM     13  C   UNL     1      -4.899   0.755   1.365  0.00  0.00    +0.045 A 
ATOM     14  S   UNL     1      -4.105   0.762   2.963  0.00  0.00    -0.099 S 
ENDBRANCH   7  10
BRANCH   1  15
ATOM     15  C   UNL     1      -0.011   1.360   2.393  0.00  0.00    +0.339 C 
ATOM     16  O   UNL     1       0.802   2.134   1.922  0.00  0.00    -0.245 OA
BRANCH  15  17
ATOM     17  O   UNL     1      -0.261   0.186   1.776  0.00  0.00    -0.462 OA
BRANCH  17  19
ATOM     18  C   UNL     1       0.052  -1.449   0.024  0.00  0.00    +0.048 C 
ATOM     19  C   UNL     1       0.466  -0.083   0.575  0.00  0.00    +0.229 C 
ENDBRANCH  17  19
ENDBRANCH  15  17
ENDBRANCH   1  15
BRANCH   2  20
ATOM     20  C   UNL     1       0.852   0.222   4.830  0.00  0.00    +0.128 C 
BRANCH  20  21
ATOM     21  S   UNL     1       2.293   1.079   5.511  0.00  0.00    -0.079 S 
BRANCH  21  22
ATOM     22  C   UNL     1       3.476  -0.226   5.463  0.00  0.00    +0.210 A 
ATOM     23  N   UNL     1       3.270  -1.452   5.033  0.00  0.00    -0.101 NA
ATOM     24  N   UNL     1       4.343  -2.151   5.136  0.00  0.00    -0.022 NA
ATOM     25  N   UNL     1       5.296  -1.438   5.631  0.00  0.00    -0.043 NA
ATOM     26  N   UNL     1       4.769  -0.155   5.858  0.00  0.00    -0.217 N 
BRANCH  26  27
ATOM     27  C   UNL     1       5.469   1.010   6.406  0.00  0.00    +0.112 C 
ATOM     28  C   UNL     1       6.693   1.351   5.532  0.00  0.00    +0.027 C 
ATOM     29  C   UNL     1       7.771   1.803   6.549  0.00  0.00    +0.002 C 
ATOM     30  C   UNL     1       7.540   0.844   7.743  0.00  0.00    +0.002 C 
ATOM     31  C   UNL     1       6.007   0.688   7.811  0.00  0.00    +0.027 C 
ENDBRANCH  26  27
ENDBRANCH  21  22
ENDBRANCH  20  21
ENDBRANCH   2  20
TORSDOF 8
