REMARK  Name = ZINC08645919
REMARK  6 active torsions:
REMARK  status: ('A' for Active; 'I' for Inactive)
REMARK    1  A    between atoms: C_1  and  C_2
REMARK    2  A    between atoms: C_2  and  C_21
REMARK    3  A    between atoms: N_5  and  C_9
REMARK    4  A    between atoms: C_9  and  C_10
REMARK    5  A    between atoms: C_10  and  C_12
REMARK    6  A    between atoms: C_24  and  N_27
REMARK                            x       y       z     vdW  Elec       q    Type
REMARK                         _______ _______ _______ _____ _____    ______ ____
ROOT
ATOM      1  C   UNL     1       5.447   0.149  -1.162  0.00  0.00    +0.047 C 
ATOM      2  C   UNL     1       4.088  -0.356  -0.673  0.00  0.00    +0.135 C 
ATOM      3  C   UNL     1       2.978   0.565  -1.138  0.00  0.00    +0.251 C 
ATOM      4  O   UNL     1       2.668   0.818  -2.283  0.00  0.00    -0.272 OA
ATOM      5  N   UNL     1       2.407   1.043  -0.015  0.00  0.00    -0.216 N 
ATOM      6  C   UNL     1       2.999   0.561   1.083  0.00  0.00    +0.310 C 
ATOM      7  O   UNL     1       2.662   0.851   2.215  0.00  0.00    -0.252 OA
ATOM      8  N   UNL     1       4.006  -0.283   0.796  0.00  0.00    -0.281 N 
ATOM      9  H   UNL     1       4.570  -0.751   1.432  0.00  0.00    +0.152 HD
ENDROOT
BRANCH   2  10
ATOM     10  C   UNL     1       3.843  -1.765  -1.149  0.00  0.00    -0.015 A 
ATOM     11  C   UNL     1       3.157  -1.987  -2.328  0.00  0.00    +0.008 A 
ATOM     12  C   UNL     1       2.936  -3.279  -2.767  0.00  0.00    +0.033 A 
ATOM     13  C   UNL     1       3.392  -4.350  -2.021  0.00  0.00    +0.126 A 
ATOM     14  C   UNL     1       4.073  -4.128  -0.839  0.00  0.00    +0.033 A 
ATOM     15  C   UNL     1       4.299  -2.836  -0.403  0.00  0.00    +0.008 A 
BRANCH  13  16
ATOM     16  N   UNL     1       3.150  -5.733  -2.487  0.00  0.00    +0.056 N 
ATOM     17  O   UNL     1       3.551  -6.677  -1.830  0.00  0.00    -0.126 OA
ATOM     18  O   UNL     1       2.549  -5.929  -3.529  0.00  0.00    -0.126 OA
ENDBRANCH  13  16
ENDBRANCH   2  10
BRANCH   5  19
ATOM     19  C   UNL     1       1.280   1.980   0.001  0.00  0.00    +0.197 C 
BRANCH  19  20
ATOM     20  C   UNL     1      -0.014   1.208   0.009  0.00  0.00    +0.181 C 
ATOM     21  O   UNL     1       0.002  -0.004   0.002  0.00  0.00    -0.290 OA
BRANCH  20  22
ATOM     22  C   UNL     1      -1.299   1.927   0.019  0.00  0.00    +0.019 A 
ATOM     23  C   UNL     1      -1.323   3.325   0.032  0.00  0.00    +0.012 A 
ATOM     24  C   UNL     1      -2.530   3.988   0.035  0.00  0.00    +0.004 A 
ATOM     25  C   UNL     1      -3.722   3.278   0.037  0.00  0.00    -0.044 A 
ATOM     26  C   UNL     1      -3.706   1.894   0.029  0.00  0.00    -0.044 A 
ATOM     27  C   UNL     1      -2.502   1.216   0.021  0.00  0.00    +0.015 A 
ATOM     28  C   UNL     1      -5.125   1.366   0.033  0.00  0.00    +0.036 C 
ATOM     29  C   UNL     1      -5.997   2.556   0.485  0.00  0.00    +0.009 C 
ATOM     30  C   UNL     1      -5.154   3.772   0.046  0.00  0.00    +0.036 C 
ENDBRANCH  20  22
ENDBRANCH  19  20
ENDBRANCH   5  19
TORSDOF 5
