REMARK  Name = ZINC48070105
REMARK  6 active torsions:
REMARK  status: ('A' for Active; 'I' for Inactive)
REMARK    1  A    between atoms: C_1  and  C_2
REMARK    2  A    between atoms: C_5  and  C_7
REMARK    3  A    between atoms: C_10  and  C_12
REMARK    4  A    between atoms: C_12  and  N_13
REMARK    5  A    between atoms: N_13  and  C_14
REMARK    6  A    between atoms: N_19  and  C_20
REMARK                            x       y       z     vdW  Elec       q    Type
REMARK                         _______ _______ _______ _____ _____    ______ ____
ROOT
ATOM      1  N   UNL     1       5.029   2.460   3.690  0.00  0.00    -0.275 N 
ATOM      2  C   UNL     1       5.527   1.991   4.851  0.00  0.00    +0.307 C 
ATOM      3  O   UNL     1       5.011   2.306   5.906  0.00  0.00    -0.252 OA
ATOM      4  N   UNL     1       6.597   1.171   4.843  0.00  0.00    -0.268 N 
ATOM      5  H   UNL     1       7.032   0.950   4.005  0.00  0.00    +0.156 HD
ENDROOT
BRANCH   4   6
ATOM      6  C   UNL     1       7.082   0.639   6.046  0.00  0.00    +0.051 A 
ATOM      7  C   UNL     1       6.317   0.713   7.209  0.00  0.00    +0.028 A 
ATOM      8  C   UNL     1       6.834   0.175   8.373  0.00  0.00    +0.043 A 
ATOM      9  C   UNL     1       8.091  -0.419   8.346  0.00  0.00    +0.099 A 
ATOM     10  N   UNL     1       8.790  -0.471   7.223  0.00  0.00    -0.348 N 
ATOM     11  C   UNL     1       8.325   0.028   6.093  0.00  0.00    +0.107 A 
ATOM     12  N   UNL     1       8.621  -0.964   9.512  0.00  0.00    -0.312 N 
ATOM     13  C   UNL     1       9.963  -1.567   9.525  0.00  0.00    +0.134 C 
ATOM     14  C   UNL     1      10.754  -0.963  10.691  0.00  0.00    +0.178 C 
ATOM     15  O   UNL     1       9.990  -1.089  11.893  0.00  0.00    -0.377 OA
ATOM     16  C   UNL     1       8.750  -0.379  11.874  0.00  0.00    +0.178 C 
ATOM     17  C   UNL     1       7.858  -0.948  10.770  0.00  0.00    +0.134 C 
ATOM     18  H   UNL     1       9.665  -0.890   7.230  0.00  0.00    +0.167 HD
ENDBRANCH   4   6
BRANCH   1  19
ATOM     19  C   UNL     1       5.547   1.958   2.415  0.00  0.00    +0.078 C 
ATOM     20  C   UNL     1       4.950   2.540   1.132  0.00  0.00    +0.024 C 
ATOM     21  C   UNL     1       4.607   1.111   1.555  0.00  0.00    +0.024 C 
ENDBRANCH   1  19
BRANCH   1  22
ATOM     22  C   UNL     1       3.971   3.473   3.703  0.00  0.00    +0.183 C 
BRANCH  22  26
ATOM     23  C   UNL     1       0.767   1.860   3.015  0.00  0.00    +0.109 A 
ATOM     24  C   UNL     1       0.736   1.834   4.359  0.00  0.00    +0.045 A 
ATOM     25  C   UNL     1       1.933   2.435   4.810  0.00  0.00    +0.046 A 
ATOM     26  C   UNL     1       2.626   2.793   3.713  0.00  0.00    +0.123 A 
ATOM     27  O   UNL     1       1.917   2.437   2.629  0.00  0.00    -0.463 OA
BRANCH  23  31
ATOM     28  C   UNL     1      -0.485   3.768   1.173  0.00  0.00    +0.008 C 
ATOM     29  C   UNL     1      -0.962   2.315   1.133  0.00  0.00    -0.003 C 
ATOM     30  C   UNL     1       0.016   1.265   0.601  0.00  0.00    +0.015 C 
ATOM     31  C   UNL     1      -0.303   1.328   2.097  0.00  0.00    +0.058 C 
ENDBRANCH  23  31
ENDBRANCH  22  26
ENDBRANCH   1  22
TORSDOF 5
