REMARK  Name = ZINC22278475
REMARK  15 active torsions:
REMARK  status: ('A' for Active; 'I' for Inactive)
REMARK    1  A    between atoms: C_1  and  C_2
REMARK    2  A    between atoms: C_2  and  C_3
REMARK    3  A    between atoms: C_3  and  C_4
REMARK    4  A    between atoms: C_4  and  N_5
REMARK    5  A    between atoms: C_9  and  S_25
REMARK    6  A    between atoms: C_13  and  S_14
REMARK    7  A    between atoms: S_14  and  C_15
REMARK    8  A    between atoms: C_15  and  C_16
REMARK    9  A    between atoms: N_18  and  C_19
REMARK   10  A    between atoms: C_21  and  C_24
REMARK   11  A    between atoms: S_25  and  N_28
REMARK   12  A    between atoms: N_28  and  C_29
REMARK   13  A    between atoms: N_28  and  C_31
REMARK   14  A    between atoms: C_29  and  C_30
REMARK   15  A    between atoms: C_31  and  C_32
REMARK                            x       y       z     vdW  Elec       q    Type
REMARK                         _______ _______ _______ _____ _____    ______ ____
ROOT
ATOM      1  N   UNL     1       1.263   1.788  -0.000  0.00  0.00    -0.319 N 
ATOM      2  C   UNL     1       2.113   0.694  -0.014  0.00  0.00    +0.070 A 
ATOM      3  C   UNL     1       3.492   0.548  -0.029  0.00  0.00    +0.030 A 
ATOM      4  C   UNL     1       4.049  -0.714  -0.042  0.00  0.00    +0.030 A 
ATOM      5  C   UNL     1       3.239  -1.840  -0.041  0.00  0.00    +0.108 A 
ATOM      6  C   UNL     1       1.868  -1.714  -0.025  0.00  0.00    +0.058 A 
ATOM      7  C   UNL     1       1.288  -0.443  -0.013  0.00  0.00    +0.092 A 
ATOM      8  N   UNL     1       0.002  -0.004   0.002  0.00  0.00    -0.222 NA
ATOM      9  C   UNL     1      -0.016   1.306   0.009  0.00  0.00    +0.170 A 
ENDROOT
BRANCH   5  10
ATOM     10  S   UNL     1       3.970  -3.443  -0.057  0.00  0.00    +0.061 S 
ATOM     11  O   UNL     1       3.000  -4.326  -0.604  0.00  0.00    -0.153 OA
ATOM     12  O   UNL     1       5.266  -3.293  -0.620  0.00  0.00    -0.153 OA
BRANCH  10  13
ATOM     13  N   UNL     1       4.188  -3.898   1.520  0.00  0.00    -0.177 NA
BRANCH  13  14
ATOM     14  C   UNL     1       3.130  -4.625   2.226  0.00  0.00    +0.106 C 
ATOM     15  C   UNL     1       3.399  -6.129   2.137  0.00  0.00    +0.022 C 
ENDBRANCH  13  14
BRANCH  13  16
ATOM     16  C   UNL     1       5.439  -3.573   2.210  0.00  0.00    +0.106 C 
ATOM     17  C   UNL     1       5.267  -2.269   2.992  0.00  0.00    +0.022 C 
ENDBRANCH  13  16
ENDBRANCH  10  13
ENDBRANCH   5  10
BRANCH   1  18
ATOM     18  C   UNL     1       1.661   3.197   0.003  0.00  0.00    +0.124 C 
BRANCH  18  19
ATOM     19  C   UNL     1       1.814   3.681   1.446  0.00  0.00    +0.021 C 
BRANCH  19  21
ATOM     20  C   UNL     1       2.382   5.637   2.894  0.00  0.00    +0.004 C 
ATOM     21  C   UNL     1       2.229   5.153   1.450  0.00  0.00    -0.002 C 
ENDBRANCH  19  21
ENDBRANCH  18  19
ENDBRANCH   1  18
BRANCH   9  22
ATOM     22  S   UNL     1      -1.471   2.299   0.022  0.00  0.00    -0.078 S 
BRANCH  22  23
ATOM     23  C   UNL     1      -2.735   1.004   0.022  0.00  0.00    +0.173 C 
BRANCH  23  24
ATOM     24  C   UNL     1      -4.103   1.637   0.032  0.00  0.00    +0.230 C 
ATOM     25  O   UNL     1      -4.212   2.844   0.039  0.00  0.00    -0.274 OA
ATOM     26  N   UNL     1      -5.205   0.860   0.034  0.00  0.00    -0.254 N 
ATOM     27  H   UNL     1      -5.106  -0.235   0.028  0.00  0.00    +0.158 HD
BRANCH  26  28
ATOM     28  C   UNL     1      -6.464   1.443   0.043  0.00  0.00    +0.224 A 
ATOM     29  C   UNL     1      -7.666   0.796   0.046  0.00  0.00    +0.092 A 
ATOM     30  C   UNL     1      -8.613   1.840   0.057  0.00  0.00    +0.082 A 
ATOM     31  N   UNL     1      -7.937   2.954   0.059  0.00  0.00    -0.081 NA
ATOM     32  O   UNL     1      -6.744   2.756   0.057  0.00  0.00    -0.339 OA
ATOM     33  C   UNL     1     -10.113   1.696   0.064  0.00  0.00    +0.069 C 
ENDBRANCH  26  28
ENDBRANCH  23  24
ENDBRANCH  22  23
ENDBRANCH   9  22
TORSDOF 11
