REMARK  Name = ZINC39667872
REMARK  14 active torsions:
REMARK  status: ('A' for Active; 'I' for Inactive)
REMARK    1  A    between atoms: C_1  and  C_2
REMARK    2  A    between atoms: C_4  and  S_14
REMARK    3  A    between atoms: C_8  and  C_9
REMARK    4  A    between atoms: C_9  and  C_10
REMARK    5  A    between atoms: C_10  and  C_11
REMARK    6  A    between atoms: C_11  and  O_13
REMARK    7  A    between atoms: S_14  and  C_15
REMARK    8  A    between atoms: C_15  and  C_16
REMARK    9  A    between atoms: N_18  and  C_19
REMARK   10  A    between atoms: C_21  and  C_28
REMARK   11  A    between atoms: C_23  and  C_27
REMARK   12  A    between atoms: C_24  and  C_26
REMARK   13  A    between atoms: C_28  and  O_30
REMARK   14  A    between atoms: O_30  and  C_31
REMARK                            x       y       z     vdW  Elec       q    Type
REMARK                         _______ _______ _______ _____ _____    ______ ____
ROOT
ATOM      1  S   UNL     1       0.027  -2.800  -2.754  0.00  0.00    -0.078 S 
ENDROOT
BRANCH   1   5
ATOM      2  C   UNL     1      -0.018   1.503   0.010  0.00  0.00    +0.066 C 
ATOM      3  C   UNL     1       0.002  -0.004   0.002  0.00  0.00    +0.049 A 
ATOM      4  N   UNL     1       0.006  -0.662  -1.155  0.00  0.00    -0.228 NA
ATOM      5  C   UNL     1       0.024  -1.980  -1.194  0.00  0.00    +0.170 A 
ATOM      6  N   UNL     1       0.040  -2.719  -0.050  0.00  0.00    -0.302 N 
ATOM      7  C   UNL     1       0.037  -2.097   1.149  0.00  0.00    +0.256 A 
ATOM      8  O   UNL     1       0.051  -2.743   2.184  0.00  0.00    -0.267 OA
ATOM      9  C   UNL     1       0.023  -0.692   1.181  0.00  0.00    +0.038 A 
ATOM     10  H   UNL     1       0.053  -3.687  -0.096  0.00  0.00    +0.171 HD
BRANCH   9  11
ATOM     11  C   UNL     1       0.025   0.044   2.497  0.00  0.00    +0.053 C 
BRANCH  11  12
ATOM     12  C   UNL     1      -1.409   0.164   3.017  0.00  0.00    +0.125 C 
BRANCH  12  13
ATOM     13  C   UNL     1      -1.406   0.899   4.332  0.00  0.00    +0.305 C 
ATOM     14  O   UNL     1      -0.365   1.288   4.805  0.00  0.00    -0.251 OA
BRANCH  13  15
ATOM     15  O   UNL     1      -2.562   1.122   4.978  0.00  0.00    -0.481 OA
ATOM     16  H   UNL     1      -2.459   1.601   5.812  0.00  0.00    +0.295 HD
ENDBRANCH  13  15
ENDBRANCH  12  13
ENDBRANCH  11  12
ENDBRANCH   9  11
ENDBRANCH   1   5
BRANCH   1  17
ATOM     17  C   UNL     1       0.002  -1.446  -3.961  0.00  0.00    +0.173 C 
BRANCH  17  18
ATOM     18  C   UNL     1       0.003  -2.017  -5.356  0.00  0.00    +0.224 C 
ATOM     19  O   UNL     1       0.018  -3.218  -5.520  0.00  0.00    -0.275 OA
ATOM     20  N   UNL     1      -0.015  -1.192  -6.422  0.00  0.00    -0.301 N 
ATOM     21  H   UNL     1      -0.027  -0.230  -6.291  0.00  0.00    +0.150 HD
BRANCH  20  22
ATOM     22  C   UNL     1      -0.014  -1.746  -7.778  0.00  0.00    +0.153 C 
ATOM     23  C   UNL     1      -1.125  -1.110  -8.653  0.00  0.00    +0.155 C 
ATOM     24  C   UNL     1      -1.754  -2.136  -9.540  0.00  0.00    -0.047 C 
ATOM     25  C   UNL     1      -1.610  -3.418  -9.264  0.00  0.00    -0.016 C 
ATOM     26  S   UNL     1      -0.602  -3.492  -7.794  0.00  0.00    -0.106 S 
ATOM     27  C   UNL     1      -2.180  -4.581 -10.034  0.00  0.00    +0.051 C 
ATOM     28  C   UNL     1      -2.549  -1.707 -10.746  0.00  0.00    +0.041 C 
BRANCH  23  29
ATOM     29  C   UNL     1      -2.183  -0.515  -7.759  0.00  0.00    +0.317 C 
ATOM     30  O   UNL     1      -2.068  -0.588  -6.558  0.00  0.00    -0.250 OA
BRANCH  29  31
ATOM     31  O   UNL     1      -3.251   0.094  -8.296  0.00  0.00    -0.467 OA
ATOM     32  C   UNL     1      -4.213   0.635  -7.388  0.00  0.00    +0.280 C 
ENDBRANCH  29  31
ENDBRANCH  23  29
ENDBRANCH  20  22
ENDBRANCH  17  18
ENDBRANCH   1  17
TORSDOF 10
