REMARK  Name = ZINC00587213
REMARK  8 active torsions:
REMARK  status: ('A' for Active; 'I' for Inactive)
REMARK    1  A    between atoms: C_1  and  C_2
REMARK    2  A    between atoms: C_4  and  C_23
REMARK    3  A    between atoms: C_6  and  O_8
REMARK    4  A    between atoms: O_8  and  C_9
REMARK    5  A    between atoms: C_9  and  C_10
REMARK    6  A    between atoms: N_12  and  C_13
REMARK    7  A    between atoms: C_17  and  N_20
REMARK    8  A    between atoms: C_18  and  C_19
REMARK                            x       y       z     vdW  Elec       q    Type
REMARK                         _______ _______ _______ _____ _____    ______ ____
ROOT
ATOM      1  C   UNL     1      -0.994   2.405  -1.145  0.00  0.00    +0.255 C 
ATOM      2  O   UNL     1      -2.043   3.007  -1.231  0.00  0.00    -0.272 OA
ATOM      3  N   UNL     1      -0.421   1.889  -2.250  0.00  0.00    -0.282 N 
ATOM      4  H   UNL     1       0.454   1.474  -2.194  0.00  0.00    +0.155 HD
ENDROOT
BRANCH   3   5
ATOM      5  C   UNL     1      -1.087   1.954  -3.479  0.00  0.00    +0.039 A 
ATOM      6  C   UNL     1      -2.461   2.153  -3.516  0.00  0.00    +0.024 A 
ATOM      7  C   UNL     1      -3.116   2.216  -4.730  0.00  0.00    +0.004 A 
ATOM      8  C   UNL     1      -2.405   2.081  -5.908  0.00  0.00    +0.033 A 
ATOM      9  C   UNL     1      -1.038   1.882  -5.875  0.00  0.00    +0.131 A 
ATOM     10  C   UNL     1      -0.376   1.823  -4.664  0.00  0.00    +0.001 A 
ATOM     11  C   UNL     1       1.116   1.613  -4.629  0.00  0.00    +0.048 C 
BRANCH   9  12
ATOM     12  N   UNL     1      -0.281   1.738  -7.139  0.00  0.00    +0.057 N 
ATOM     13  O   UNL     1      -0.836   1.929  -8.206  0.00  0.00    -0.126 OA
ATOM     14  O   UNL     1       0.897   1.427  -7.112  0.00  0.00    -0.126 OA
ENDBRANCH   9  12
ENDBRANCH   3   5
BRANCH   1  15
ATOM     15  C   UNL     1      -0.330   2.235   0.197  0.00  0.00    +0.324 C 
BRANCH  15  16
ATOM     16  O   UNL     1      -1.125   2.865   1.205  0.00  0.00    -0.483 OA
BRANCH  16  22
ATOM     17  C   UNL     1       2.289   1.378   4.361  0.00  0.00    +0.044 C 
ATOM     18  C   UNL     1       0.994   2.087   4.059  0.00  0.00    -0.047 A 
ATOM     19  C   UNL     1       0.273   2.676   5.081  0.00  0.00    +0.007 A 
ATOM     20  C   UNL     1      -0.915   3.328   4.807  0.00  0.00    -0.047 A 
ATOM     21  C   UNL     1      -1.385   3.393   3.510  0.00  0.00    +0.049 A 
ATOM     22  C   UNL     1      -0.664   2.802   2.482  0.00  0.00    +0.122 A 
ATOM     23  C   UNL     1       0.525   2.144   2.760  0.00  0.00    +0.049 A 
ATOM     24  C   UNL     1      -1.697   3.969   5.924  0.00  0.00    +0.044 C 
ENDBRANCH  16  22
ENDBRANCH  15  16
ENDBRANCH   1  15
TORSDOF 5
