REMARK  Name = ZINC08992170
REMARK  8 active torsions:
REMARK  status: ('A' for Active; 'I' for Inactive)
REMARK    1  A    between atoms: C_1  and  N_51
REMARK    2  A    between atoms: C_2  and  N_51
REMARK    3  A    between atoms: C_3  and  C_4
REMARK    4  A    between atoms: C_3  and  N_51
REMARK    5  A    between atoms: C_4  and  C_5
REMARK    6  A    between atoms: C_5  and  N_6
REMARK    7  A    between atoms: C_12  and  C_21
REMARK    8  A    between atoms: C_13  and  C_15
REMARK                            x       y       z     vdW  Elec       q    Type
REMARK                         _______ _______ _______ _____ _____    ______ ____
ROOT
ATOM      1  N   UNL     1       0.415  -1.947   0.164  0.00  0.00    -0.318 N 
ATOM      2  C   UNL     1      -0.588  -1.035   0.256  0.00  0.00    +0.204 A 
ATOM      3  N   UNL     1      -0.391   0.248   0.184  0.00  0.00    -0.202 NA
ATOM      4  C   UNL     1       0.829   0.784   0.011  0.00  0.00    +0.233 A 
ATOM      5  C   UNL     1       1.931  -0.065  -0.096  0.00  0.00    +0.088 A 
ATOM      6  C   UNL     1       1.717  -1.512  -0.015  0.00  0.00    +0.119 A 
ATOM      7  C   UNL     1       3.099   0.800  -0.274  0.00  0.00    +0.041 A 
ATOM      8  C   UNL     1       2.607   2.090  -0.259  0.00  0.00    +0.146 A 
ATOM      9  O   UNL     1       1.270   2.049  -0.090  0.00  0.00    -0.436 OA
ATOM     10  H   UNL     1       2.649  -3.330  -0.066  0.00  0.00    +0.157 HD
ATOM     11  N   UNL     1       2.773  -2.319  -0.119  0.00  0.00    -0.384 N 
ATOM     12  H   UNL     1       3.711  -1.923  -0.251  0.00  0.00    +0.157 HD
ENDROOT
BRANCH   8  13
ATOM     13  C   UNL     1       3.413   3.316  -0.405  0.00  0.00    +0.018 A 
ATOM     14  C   UNL     1       4.585   3.478   0.340  0.00  0.00    +0.011 A 
ATOM     15  C   UNL     1       5.337   4.624   0.194  0.00  0.00    +0.001 A 
ATOM     16  C   UNL     1       4.929   5.617  -0.680  0.00  0.00    +0.000 A 
ATOM     17  C   UNL     1       3.768   5.466  -1.416  0.00  0.00    +0.001 A 
ATOM     18  C   UNL     1       3.008   4.323  -1.285  0.00  0.00    +0.011 A 
ENDBRANCH   8  13
BRANCH   7  19
ATOM     19  C   UNL     1       4.510   0.380  -0.436  0.00  0.00    -0.014 A 
ATOM     20  C   UNL     1       5.182  -0.236   0.620  0.00  0.00    +0.008 A 
ATOM     21  C   UNL     1       6.495  -0.631   0.460  0.00  0.00    +0.001 A 
ATOM     22  C   UNL     1       7.147  -0.406  -0.739  0.00  0.00    +0.000 A 
ATOM     23  C   UNL     1       6.487   0.210  -1.787  0.00  0.00    +0.001 A 
ATOM     24  C   UNL     1       5.173   0.604  -1.642  0.00  0.00    +0.008 A 
ENDBRANCH   7  19
BRANCH   1  25
ATOM     25  C   UNL     1       0.121  -3.379   0.254  0.00  0.00    +0.123 C 
BRANCH  25  26
ATOM     26  C   UNL     1       0.319  -3.851   1.696  0.00  0.00    +0.003 C 
BRANCH  26  27
ATOM     27  C   UNL     1       0.012  -5.347   1.790  0.00  0.00    -0.078 C 
BRANCH  27  30
ATOM     28  C   UNL     1      -0.785  -5.183   4.071  0.00  0.00    -0.097 C 
ATOM     29  C   UNL     1       0.150  -7.265   3.262  0.00  0.00    -0.097 C 
ATOM     30  N   UNL     1       0.229  -5.791   3.183  0.00  0.00    +0.376 N 
ATOM     31  H   UNL     1       1.162  -5.491   3.488  0.00  0.00    -0.083 HD
ENDBRANCH  27  30
ENDBRANCH  26  27
ENDBRANCH  25  26
ENDBRANCH   1  25
TORSDOF 6
