REMARK  Name = ZINC08306647
REMARK  7 active torsions:
REMARK  status: ('A' for Active; 'I' for Inactive)
REMARK    1  A    between atoms: C_1  and  C_2
REMARK    2  A    between atoms: C_7  and  N_8
REMARK    3  A    between atoms: N_10  and  C_29
REMARK    4  A    between atoms: C_13  and  C_16
REMARK    5  A    between atoms: C_16  and  C_17
REMARK    6  A    between atoms: N_19  and  C_20
REMARK    7  A    between atoms: C_25  and  N_26
REMARK                            x       y       z     vdW  Elec       q    Type
REMARK                         _______ _______ _______ _____ _____    ______ ____
ROOT
ATOM      1  N   UNL     1      -0.522   1.479   0.069  0.00  0.00    -0.226 NA
ATOM      2  C   UNL     1       0.533   2.259   0.038  0.00  0.00    +0.164 C 
ATOM      3  N   UNL     1       1.859   1.895  -0.068  0.00  0.00    -0.253 N 
ATOM      4  C   UNL     1       2.837   2.784  -0.089  0.00  0.00    +0.235 C 
ATOM      5  O   UNL     1       4.002   2.458  -0.183  0.00  0.00    -0.274 OA
ATOM      6  C   UNL     1       2.411   4.239   0.011  0.00  0.00    +0.149 C 
ATOM      7  S   UNL     1       0.588   4.043   0.115  0.00  0.00    -0.077 S 
ATOM      8  C   UNL     1       2.195   0.472  -0.161  0.00  0.00    +0.140 C 
ENDROOT
BRANCH   1  15
ATOM      9  C   UNL     1      -0.539   0.042  -2.382  0.00  0.00    +0.046 C 
ATOM     10  C   UNL     1      -0.367  -0.637  -1.048  0.00  0.00    -0.025 A 
ATOM     11  C   UNL     1      -0.204  -2.005  -0.983  0.00  0.00    +0.005 A 
ATOM     12  C   UNL     1      -0.052  -2.630   0.242  0.00  0.00    +0.000 A 
ATOM     13  C   UNL     1      -0.056  -1.887   1.409  0.00  0.00    +0.002 A 
ATOM     14  C   UNL     1      -0.212  -0.518   1.359  0.00  0.00    +0.028 A 
ATOM     15  C   UNL     1      -0.366   0.119   0.126  0.00  0.00    +0.069 A 
ENDBRANCH   1  15
BRANCH   6  16
ATOM     16  C   UNL     1       2.976   4.896   1.272  0.00  0.00    +0.120 C 
BRANCH  16  17
ATOM     17  C   UNL     1       2.634   6.364   1.271  0.00  0.00    +0.219 C 
ATOM     18  O   UNL     1       2.000   6.838   0.351  0.00  0.00    -0.275 OA
ATOM     19  N   UNL     1       3.031   7.150   2.291  0.00  0.00    -0.284 N 
ATOM     20  H   UNL     1       3.483   6.760   3.055  0.00  0.00    +0.155 HD
BRANCH  19  21
ATOM     21  C   UNL     1       2.792   8.528   2.247  0.00  0.00    +0.064 A 
ATOM     22  C   UNL     1       1.629   9.014   1.663  0.00  0.00    +0.025 A 
ATOM     23  C   UNL     1       1.394  10.374   1.625  0.00  0.00    +0.002 A 
ATOM     24  C   UNL     1       2.319  11.253   2.159  0.00  0.00    +0.002 A 
ATOM     25  C   UNL     1       3.480  10.772   2.736  0.00  0.00    +0.034 A 
ATOM     26  C   UNL     1       3.719   9.412   2.781  0.00  0.00    +0.147 A 
BRANCH  26  27
ATOM     27  N   UNL     1       4.963   8.899   3.398  0.00  0.00    +0.058 N 
ATOM     28  O   UNL     1       5.727   9.665   3.957  0.00  0.00    -0.126 OA
ATOM     29  O   UNL     1       5.222   7.710   3.348  0.00  0.00    -0.126 OA
ENDBRANCH  26  27
ENDBRANCH  19  21
ENDBRANCH  16  17
ENDBRANCH   6  16
TORSDOF 5
