REMARK  Name = ZINC30995153
REMARK  5 active torsions:
REMARK  status: ('A' for Active; 'I' for Inactive)
REMARK    1  A    between atoms: C_9  and  C_12
REMARK    2  A    between atoms: C_12  and  N_13
REMARK    3  A    between atoms: N_16  and  C_17
REMARK    4  A    between atoms: C_17  and  C_18
REMARK    5  A    between atoms: N_20  and  C_21
REMARK                            x       y       z     vdW  Elec       q    Type
REMARK                         _______ _______ _______ _____ _____    ______ ____
ROOT
ATOM      1  N   UNL     1       2.323   0.995   0.024  0.00  0.00    -0.296 N 
ATOM      2  C   UNL     1       1.147   1.653   0.034  0.00  0.00    +0.300 C 
ATOM      3  O   UNL     1       1.131   2.869   0.046  0.00  0.00    -0.253 OA
ATOM      4  N   UNL     1      -0.011   0.964   0.031  0.00  0.00    -0.291 N 
ATOM      5  H   UNL     1       2.338  -0.105   0.013  0.00  0.00    +0.150 HD
ATOM      6  H   UNL     1       0.003  -0.136   0.025  0.00  0.00    +0.151 HD
ENDROOT
BRANCH   1   7
ATOM      7  C   UNL     1       3.582   1.744   0.028  0.00  0.00    +0.153 C 
BRANCH   7  16
ATOM      8  C   UNL     1       8.083  -2.262   2.091  0.00  0.00    +0.004 A 
ATOM      9  C   UNL     1       6.863  -2.599   2.646  0.00  0.00    +0.004 A 
ATOM     10  C   UNL     1       5.733  -1.866   2.336  0.00  0.00    +0.049 A 
ATOM     11  C   UNL     1       5.822  -0.788   1.467  0.00  0.00    +0.163 A 
ATOM     12  C   UNL     1       7.048  -0.450   0.907  0.00  0.00    +0.162 A 
ATOM     13  C   UNL     1       8.178  -1.190   1.224  0.00  0.00    +0.049 A 
ATOM     14  O   UNL     1       7.156   0.600   0.049  0.00  0.00    -0.485 OA
ATOM     15  C   UNL     1       6.080   1.544   0.048  0.00  0.00    +0.275 C 
ATOM     16  C   UNL     1       4.758   0.765   0.014  0.00  0.00    +0.228 C 
ATOM     17  O   UNL     1       4.701  -0.073   1.174  0.00  0.00    -0.480 OA
ENDBRANCH   7  16
ENDBRANCH   1   7
BRANCH   4  18
ATOM     18  C   UNL     1      -1.289   1.680   0.035  0.00  0.00    +0.202 C 
BRANCH  18  19
ATOM     19  C   UNL     1      -2.422   0.686   0.024  0.00  0.00    +0.234 C 
ATOM     20  O   UNL     1      -2.184  -0.504   0.012  0.00  0.00    -0.274 OA
ATOM     21  N   UNL     1      -3.698   1.118   0.026  0.00  0.00    -0.283 N 
ATOM     22  H   UNL     1      -3.915   2.193   0.110  0.00  0.00    +0.155 HD
BRANCH  21  23
ATOM     23  C   UNL     1      -4.749   0.199  -0.080  0.00  0.00    +0.053 A 
ATOM     24  C   UNL     1      -4.637  -1.056   0.504  0.00  0.00    +0.044 A 
ATOM     25  C   UNL     1      -5.678  -1.959   0.402  0.00  0.00    +0.043 A 
ATOM     26  C   UNL     1      -6.827  -1.618  -0.291  0.00  0.00    +0.021 A 
ATOM     27  C   UNL     1      -6.939  -0.371  -0.877  0.00  0.00    +0.023 A 
ATOM     28  C   UNL     1      -5.904   0.539  -0.774  0.00  0.00    +0.062 A 
ATOM     29 CL   UNL     1      -6.045   2.104  -1.512  0.00  0.00    -0.082 Cl
ATOM     30 CL   UNL     1      -5.542  -3.526   1.137  0.00  0.00    -0.083 Cl
ENDBRANCH  21  23
ENDBRANCH  18  19
ENDBRANCH   4  18
TORSDOF 5
