REMARK  Name = ZINC08768389
REMARK  15 active torsions:
REMARK  status: ('A' for Active; 'I' for Inactive)
REMARK    1  A    between atoms: C_1  and  C_2
REMARK    2  A    between atoms: C_3  and  C_31
REMARK    3  A    between atoms: C_4  and  C_21
REMARK    4  A    between atoms: C_6  and  C_10
REMARK    5  A    between atoms: C_7  and  N_9
REMARK    6  A    between atoms: C_10  and  O_12
REMARK    7  A    between atoms: O_12  and  C_13
REMARK    8  A    between atoms: C_13  and  C_14
REMARK    9  A    between atoms: C_14  and  O_15
REMARK   10  A    between atoms: O_15  and  C_16
REMARK   11  A    between atoms: C_16  and  C_18
REMARK   12  A    between atoms: C_18  and  C_20
REMARK   13  A    between atoms: C_24  and  C_27
REMARK   14  A    between atoms: C_27  and  O_29
REMARK   15  A    between atoms: O_29  and  C_30
REMARK                            x       y       z     vdW  Elec       q    Type
REMARK                         _______ _______ _______ _____ _____    ______ ____
ROOT
ATOM      1  C   UNL     1      -4.704   0.625   0.585  0.00  0.00    +0.087 C 
ATOM      2  C   UNL     1      -3.517   1.506   0.293  0.00  0.00    +0.118 C 
ATOM      3  C   UNL     1      -3.654   2.832   0.393  0.00  0.00    +0.079 C 
ATOM      4  C   UNL     1      -2.502   3.758   0.114  0.00  0.00    +0.105 C 
ATOM      5  C   UNL     1      -1.210   2.988   0.133  0.00  0.00    +0.106 C 
ATOM      6  C   UNL     1      -1.207   1.632   0.041  0.00  0.00    +0.195 C 
ATOM      7  O   UNL     1      -2.352   0.935  -0.058  0.00  0.00    -0.445 OA
ENDROOT
BRANCH   4   8
ATOM      8  C   UNL     1      -2.690   4.396  -1.239  0.00  0.00    -0.034 A 
ATOM      9  C   UNL     1      -2.762   3.603  -2.370  0.00  0.00    +0.005 A 
ATOM     10  C   UNL     1      -2.940   4.180  -3.611  0.00  0.00    +0.015 A 
ATOM     11  C   UNL     1      -3.036   5.569  -3.724  0.00  0.00    +0.059 A 
ATOM     12  C   UNL     1      -2.957   6.363  -2.578  0.00  0.00    +0.015 A 
ATOM     13  C   UNL     1      -2.785   5.773  -1.343  0.00  0.00    +0.005 A 
BRANCH  11  14
ATOM     14  C   UNL     1      -3.220   6.194  -5.049  0.00  0.00    +0.339 C 
ATOM     15  O   UNL     1      -3.303   7.402  -5.144  0.00  0.00    -0.245 OA
BRANCH  14  16
ATOM     16  O   UNL     1      -3.296   5.425  -6.152  0.00  0.00    -0.464 OA
ATOM     17  C   UNL     1      -3.477   6.107  -7.421  0.00  0.00    +0.280 C 
ENDBRANCH  14  16
ENDBRANCH  11  14
ENDBRANCH   4   8
BRANCH   6  18
ATOM     18  N   UNL     1      -0.013   0.962   0.056  0.00  0.00    -0.329 N 
ATOM     19  H   UNL     1       0.098   0.158  -0.474  0.00  0.00    +0.145 HD
ATOM     20  H   UNL     1       0.722   1.294   0.594  0.00  0.00    +0.145 HD
ENDBRANCH   6  18
BRANCH   5  21
ATOM     21  C   UNL     1       0.007   3.678   0.241  0.00  0.00    +0.341 C 
ATOM     22  O   UNL     1       1.061   3.075   0.140  0.00  0.00    -0.245 OA
BRANCH  21  23
ATOM     23  O   UNL     1       0.011   5.011   0.459  0.00  0.00    -0.458 OA
BRANCH  23  24
ATOM     24  C   UNL     1       1.285   5.649   0.558  0.00  0.00    +0.273 C 
BRANCH  24  25
ATOM     25  C   UNL     1       1.089   7.146   0.803  0.00  0.00    +0.273 C 
BRANCH  25  26
ATOM     26  O   UNL     1       0.457   7.347   2.095  0.00  0.00    -0.458 OA
BRANCH  26  27
ATOM     27  C   UNL     1       0.211   8.620   2.465  0.00  0.00    +0.334 C 
ATOM     28  O   UNL     1       0.517   9.537   1.728  0.00  0.00    -0.245 OA
BRANCH  27  29
ATOM     29  C   UNL     1      -0.426   8.898   3.760  0.00  0.00    +0.026 C 
ATOM     30  C   UNL     1      -0.668  10.155   4.125  0.00  0.00    +0.019 C 
ATOM     31  C   UNL     1      -0.805   7.761   4.673  0.00  0.00    +0.050 C 
ENDBRANCH  27  29
ENDBRANCH  26  27
ENDBRANCH  25  26
ENDBRANCH  24  25
ENDBRANCH  23  24
ENDBRANCH  21  23
ENDBRANCH   5  21
BRANCH   3  32
ATOM     32  C   UNL     1      -4.921   3.381   0.773  0.00  0.00    +0.099 C 
ATOM     33  N   UNL     1      -5.926   3.817   1.074  0.00  0.00    -0.191 NA
ENDBRANCH   3  32
TORSDOF 12
