REMARK  Name = ZINC06787158
REMARK  7 active torsions:
REMARK  status: ('A' for Active; 'I' for Inactive)
REMARK    1  A    between atoms: C_1  and  C_2
REMARK    2  A    between atoms: C_5  and  N_8
REMARK    3  A    between atoms: C_11  and  C_14
REMARK    4  A    between atoms: C_14  and  S_15
REMARK    5  A    between atoms: S_15  and  C_16
REMARK    6  A    between atoms: C_19  and  C_24
REMARK    7  A    between atoms: N_22  and  N_23
REMARK                            x       y       z     vdW  Elec       q    Type
REMARK                         _______ _______ _______ _____ _____    ______ ____
ROOT
ATOM      1  N   UNL     1      -5.268   8.705   2.330  0.00  0.00    -0.294 N 
ATOM      2  C   UNL     1      -4.648   8.123   1.234  0.00  0.00    +0.163 A 
ATOM      3  N   UNL     1      -3.796   7.116   1.202  0.00  0.00    -0.229 NA
ATOM      4  C   UNL     1      -3.295   6.682   0.061  0.00  0.00    +0.061 A 
ATOM      5  C   UNL     1      -3.670   7.299  -1.085  0.00  0.00    +0.072 A 
ATOM      6  S   UNL     1      -4.793   8.534  -0.447  0.00  0.00    -0.060 S 
ATOM      7  H   UNL     1      -5.024   8.430   3.228  0.00  0.00    +0.154 HD
ENDROOT
BRANCH   1  12
ATOM      8  C   UNL     1      -9.225  12.694   1.562  0.00  0.00    +0.044 C 
ATOM      9  C   UNL     1      -8.174  11.634   1.766  0.00  0.00    -0.050 A 
ATOM     10  C   UNL     1      -8.047  10.603   0.853  0.00  0.00    +0.005 A 
ATOM     11  C   UNL     1      -7.085   9.630   1.037  0.00  0.00    +0.023 A 
ATOM     12  C   UNL     1      -6.243   9.688   2.141  0.00  0.00    +0.033 A 
ATOM     13  C   UNL     1      -6.376  10.722   3.059  0.00  0.00    +0.023 A 
ATOM     14  C   UNL     1      -7.337  11.695   2.866  0.00  0.00    +0.005 A 
ENDBRANCH   1  12
BRANCH   4  15
ATOM     15  C   UNL     1      -2.322   5.532   0.034  0.00  0.00    +0.133 C 
BRANCH  15  16
ATOM     16  S   UNL     1      -3.233   3.976  -0.132  0.00  0.00    -0.078 S 
BRANCH  16  17
ATOM     17  C   UNL     1      -1.890   2.835  -0.137  0.00  0.00    +0.210 A 
ATOM     18  N   UNL     1      -0.649   3.280  -0.031  0.00  0.00    -0.122 NA
ATOM     19  N   UNL     1       0.361   2.486  -0.030  0.00  0.00    -0.146 NA
ATOM     20  C   UNL     1       0.211   1.186  -0.132  0.00  0.00    +0.126 A 
ATOM     21  C   UNL     1      -1.087   0.645  -0.248  0.00  0.00    +0.293 A 
ATOM     22  O   UNL     1      -1.259  -0.558  -0.345  0.00  0.00    -0.264 OA
ATOM     23  N   UNL     1      -2.137   1.499  -0.253  0.00  0.00    -0.206 N 
ATOM     24  C   UNL     1       1.415   0.279  -0.128  0.00  0.00    +0.073 C 
BRANCH  23  25
ATOM     25  N   UNL     1      -3.416   1.033  -0.368  0.00  0.00    -0.293 N 
ATOM     26  H   UNL     1      -3.428   0.027  -0.441  0.00  0.00    +0.163 HD
ATOM     27  H   UNL     1      -3.986   1.347   0.403  0.00  0.00    +0.163 HD
ENDBRANCH  23  25
ENDBRANCH  16  17
ENDBRANCH  15  16
ENDBRANCH   4  15
TORSDOF 5
