REMARK  Name = ZINC58435778
REMARK  7 active torsions:
REMARK  status: ('A' for Active; 'I' for Inactive)
REMARK    1  A    between atoms: C_1  and  N_2
REMARK    2  A    between atoms: N_2  and  C_3
REMARK    3  A    between atoms: N_6  and  C_7
REMARK    4  A    between atoms: C_12  and  N_13
REMARK    5  A    between atoms: C_14  and  C_16
REMARK    6  A    between atoms: C_17  and  C_18
REMARK    7  A    between atoms: C_21  and  C_23
REMARK                            x       y       z     vdW  Elec       q    Type
REMARK                         _______ _______ _______ _____ _____    ______ ____
ROOT
ATOM      1  N   UNL     1      -0.097  -4.893  -1.340  0.00  0.00    -0.280 N 
ATOM      2  C   UNL     1      -0.062  -6.239  -1.397  0.00  0.00    +0.241 C 
ATOM      3  O   UNL     1      -0.157  -6.806  -2.471  0.00  0.00    -0.270 OA
ATOM      4  H   UNL     1      -0.103  -4.444  -0.480  0.00  0.00    +0.155 HD
ENDROOT
BRANCH   1  10
ATOM      5  C   UNL     1      -0.670  -2.860  -2.522  0.00  0.00    +0.056 A 
ATOM      6  C   UNL     1      -0.688  -2.120  -3.695  0.00  0.00    +0.025 A 
ATOM      7  C   UNL     1      -0.172  -2.656  -4.859  0.00  0.00    +0.002 A 
ATOM      8  C   UNL     1       0.364  -3.931  -4.860  0.00  0.00    +0.002 A 
ATOM      9  C   UNL     1       0.386  -4.676  -3.696  0.00  0.00    +0.025 A 
ATOM     10  C   UNL     1      -0.124  -4.143  -2.521  0.00  0.00    +0.055 A 
BRANCH   5  16
ATOM     11  C   UNL     1      -1.917   0.996   0.079  0.00  0.00    +0.133 C 
ATOM     12  N   UNL     1      -1.855  -0.458  -0.095  0.00  0.00    -0.291 N 
ATOM     13  C   UNL     1      -2.449  -1.342   0.910  0.00  0.00    +0.133 C 
ATOM     14  C   UNL     1      -1.251  -0.981  -1.181  0.00  0.00    +0.306 C 
ATOM     15  O   UNL     1      -0.757  -0.247  -2.015  0.00  0.00    -0.252 OA
ATOM     16  N   UNL     1      -1.193  -2.318  -1.341  0.00  0.00    -0.268 N 
ATOM     17  H   UNL     1      -1.514  -2.905  -0.639  0.00  0.00    +0.156 HD
ENDBRANCH   5  16
ENDBRANCH   1  10
BRANCH   2  18
ATOM     18  C   UNL     1       0.084  -6.994  -0.210  0.00  0.00    +0.071 C 
ATOM     19  C   UNL     1       0.119  -8.351  -0.268  0.00  0.00    +0.051 C 
BRANCH  19  20
ATOM     20  C   UNL     1       0.266  -9.105   0.919  0.00  0.00    +0.129 A 
ATOM     21  C   UNL     1       0.322 -10.483   1.000  0.00  0.00    +0.050 A 
ATOM     22  C   UNL     1       0.470 -10.802   2.353  0.00  0.00    +0.050 A 
ATOM     23  C   UNL     1       0.499  -9.613   3.045  0.00  0.00    +0.138 A 
ATOM     24  O   UNL     1       0.381  -8.602   2.166  0.00  0.00    -0.455 OA
BRANCH  23  25
ATOM     25  C   UNL     1       0.641  -9.471   4.507  0.00  0.00    +0.052 A 
ATOM     26  C   UNL     1      -0.173 -10.211   5.367  0.00  0.00    +0.014 A 
ATOM     27  C   UNL     1      -0.035 -10.073   6.732  0.00  0.00    +0.001 A 
ATOM     28  C   UNL     1       0.909  -9.204   7.253  0.00  0.00    +0.003 A 
ATOM     29  C   UNL     1       1.720  -8.466   6.409  0.00  0.00    +0.039 A 
ATOM     30  C   UNL     1       1.597  -8.598   5.039  0.00  0.00    +0.134 A 
ATOM     31  F   UNL     1       2.394  -7.882   4.215  0.00  0.00    -0.205 F 
ENDBRANCH  23  25
ENDBRANCH  19  20
ENDBRANCH   2  18
TORSDOF 5
