REMARK  Name = ZINC23302131
REMARK  8 active torsions:
REMARK  status: ('A' for Active; 'I' for Inactive)
REMARK    1  A    between atoms: C_1  and  C_2
REMARK    2  A    between atoms: C_3  and  N_11
REMARK    3  A    between atoms: C_7  and  N_8
REMARK    4  A    between atoms: C_12  and  C_14
REMARK    5  A    between atoms: C_14  and  C_16
REMARK    6  A    between atoms: C_14  and  S_17
REMARK    7  A    between atoms: S_17  and  C_18
REMARK    8  A    between atoms: N_22  and  C_23
REMARK                            x       y       z     vdW  Elec       q    Type
REMARK                         _______ _______ _______ _____ _____    ______ ____
ROOT
ATOM      1  C   UNL     1      -2.892  -1.846   2.081  0.00  0.00    +0.137 C 
ATOM      2  C   UNL     1      -3.365  -2.555   0.810  0.00  0.00    +0.029 C 
ENDROOT
BRANCH   1   4
ATOM      3  N   UNL     1      -4.304  -2.777   3.886  0.00  0.00    -0.284 N 
ATOM      4  C   UNL     1      -4.035  -1.748   3.057  0.00  0.00    +0.230 C 
ATOM      5  O   UNL     1      -4.714  -0.744   3.097  0.00  0.00    -0.274 OA
ATOM      6  H   UNL     1      -3.750  -3.722   3.787  0.00  0.00    +0.155 HD
BRANCH   3   9
ATOM      7  C   UNL     1      -5.582  -5.134   4.840  0.00  0.00    +0.048 C 
ATOM      8  C   UNL     1      -5.936  -3.767   5.366  0.00  0.00    +0.001 A 
ATOM      9  C   UNL     1      -5.288  -2.642   4.872  0.00  0.00    +0.039 A 
ATOM     10  C   UNL     1      -5.621  -1.384   5.355  0.00  0.00    +0.024 A 
ATOM     11  C   UNL     1      -6.592  -1.254   6.329  0.00  0.00    +0.004 A 
ATOM     12  C   UNL     1      -7.232  -2.376   6.822  0.00  0.00    +0.033 A 
ATOM     13  C   UNL     1      -6.903  -3.631   6.343  0.00  0.00    +0.131 A 
BRANCH  13  14
ATOM     14  N   UNL     1      -7.591  -4.829   6.874  0.00  0.00    +0.057 N 
ATOM     15  O   UNL     1      -8.768  -4.770   7.180  0.00  0.00    -0.126 OA
ATOM     16  O   UNL     1      -6.979  -5.875   7.005  0.00  0.00    -0.126 OA
ENDBRANCH  13  14
ENDBRANCH   3   9
ENDBRANCH   1   4
BRANCH   1  17
ATOM     17  S   UNL     1      -2.311  -0.184   1.664  0.00  0.00    -0.072 S 
BRANCH  17  18
ATOM     18  C   UNL     1      -0.919  -0.588   0.661  0.00  0.00    +0.215 A 
ATOM     19  N   UNL     1      -0.501  -1.798   0.355  0.00  0.00    -0.101 NA
ATOM     20  N   UNL     1       0.544  -1.738  -0.388  0.00  0.00    -0.022 NA
ATOM     21  N   UNL     1       0.865  -0.510  -0.615  0.00  0.00    -0.038 NA
ATOM     22  N   UNL     1      -0.079   0.288   0.056  0.00  0.00    -0.187 N 
BRANCH  22  23
ATOM     23  C   UNL     1      -0.135   1.689   0.097  0.00  0.00    +0.070 A 
ATOM     24  C   UNL     1      -1.363   2.335   0.120  0.00  0.00    +0.029 A 
ATOM     25  C   UNL     1      -1.416   3.714   0.165  0.00  0.00    +0.022 A 
ATOM     26  C   UNL     1      -0.245   4.453   0.176  0.00  0.00    +0.041 A 
ATOM     27  C   UNL     1       0.980   3.811   0.148  0.00  0.00    +0.022 A 
ATOM     28  C   UNL     1       1.038   2.432   0.108  0.00  0.00    +0.029 A 
ATOM     29 CL   UNL     1      -0.315   6.187   0.225  0.00  0.00    -0.084 Cl
ENDBRANCH  22  23
ENDBRANCH  17  18
ENDBRANCH   1  17
TORSDOF 6
