REMARK  Name = ZINC35700701
REMARK  15 active torsions:
REMARK  status: ('A' for Active; 'I' for Inactive)
REMARK    1  A    between atoms: C_1  and  N_2
REMARK    2  A    between atoms: N_2  and  C_3
REMARK    3  A    between atoms: N_2  and  C_4
REMARK    4  A    between atoms: C_4  and  C_5
REMARK    5  A    between atoms: C_5  and  N_6
REMARK    6  A    between atoms: N_6  and  C_7
REMARK    7  A    between atoms: C_7  and  C_8
REMARK    8  A    between atoms: C_8  and  N_10
REMARK    9  A    between atoms: C_13  and  C_24
REMARK   10  A    between atoms: N_15  and  C_16
REMARK   11  A    between atoms: C_19  and  O_22
REMARK   12  A    between atoms: O_22  and  C_23
REMARK   13  A    between atoms: C_27  and  O_30
REMARK   14  A    between atoms: O_30  and  C_31
REMARK   15  A    between atoms: C_32  and  C_34
REMARK                            x       y       z     vdW  Elec       q    Type
REMARK                         _______ _______ _______ _____ _____    ______ ____
ROOT
ATOM      1  N   UNL     1      -4.409  -4.357  -2.832  0.00  0.00    -0.145 NA
ATOM      2  C   UNL     1      -4.363  -5.587  -3.344  0.00  0.00    +0.205 A 
ATOM      3  N   UNL     1      -3.585  -6.607  -2.900  0.00  0.00    -0.326 N 
ATOM      4  C   UNL     1      -3.835  -7.714  -3.701  0.00  0.00    +0.066 A 
ATOM      5  C   UNL     1      -4.754  -7.361  -4.617  0.00  0.00    +0.120 A 
ATOM      6  N   UNL     1      -5.092  -6.041  -4.397  0.00  0.00    -0.287 N 
ATOM      7  H   UNL     1      -2.964  -6.570  -2.155  0.00  0.00    +0.169 HD
ENDROOT
BRANCH   6   8
ATOM      8  C   UNL     1      -6.023  -5.296  -5.135  0.00  0.00    +0.049 A 
ATOM      9  C   UNL     1      -6.263  -3.967  -4.812  0.00  0.00    +0.030 A 
ATOM     10  C   UNL     1      -7.180  -3.235  -5.539  0.00  0.00    +0.047 A 
ATOM     11  C   UNL     1      -7.862  -3.826  -6.593  0.00  0.00    +0.120 A 
ATOM     12  C   UNL     1      -7.623  -5.154  -6.916  0.00  0.00    +0.047 A 
ATOM     13  C   UNL     1      -6.702  -5.886  -6.194  0.00  0.00    +0.030 A 
BRANCH  11  14
ATOM     14  O   UNL     1      -8.765  -3.104  -7.308  0.00  0.00    -0.495 OA
ATOM     15  C   UNL     1      -9.431  -3.776  -8.379  0.00  0.00    +0.277 C 
ENDBRANCH  11  14
ENDBRANCH   6   8
BRANCH   4  16
ATOM     16  C   UNL     1      -3.202  -9.045  -3.571  0.00  0.00    +0.000 A 
ATOM     17  C   UNL     1      -3.543 -10.071  -4.453  0.00  0.00    +0.013 A 
ATOM     18  C   UNL     1      -2.950 -11.310  -4.329  0.00  0.00    +0.046 A 
ATOM     19  C   UNL     1      -2.015 -11.537  -3.328  0.00  0.00    +0.120 A 
ATOM     20  C   UNL     1      -1.673 -10.519  -2.448  0.00  0.00    +0.046 A 
ATOM     21  C   UNL     1      -2.258  -9.275  -2.570  0.00  0.00    +0.013 A 
BRANCH  19  22
ATOM     22  O   UNL     1      -1.434 -12.760  -3.208  0.00  0.00    -0.495 OA
ATOM     23  C   UNL     1      -0.481 -12.925  -2.156  0.00  0.00    +0.277 C 
ENDBRANCH  19  22
ENDBRANCH   4  16
BRANCH   1  24
ATOM     24  C   UNL     1      -3.641  -4.040  -1.796  0.00  0.00    +0.256 C 
ATOM     25  O   UNL     1      -2.896  -4.872  -1.314  0.00  0.00    -0.272 OA
BRANCH  24  26
ATOM     26  C   UNL     1      -3.693  -2.649  -1.217  0.00  0.00    +0.206 C 
BRANCH  26  27
ATOM     27  N   UNL     1      -2.760  -2.554  -0.092  0.00  0.00    -0.288 N 
ATOM     28  C   UNL     1      -3.145  -2.949   1.138  0.00  0.00    +0.282 C 
ATOM     29  O   UNL     1      -2.409  -2.776   2.091  0.00  0.00    -0.267 OA
BRANCH  28  30
ATOM     30  C   UNL     1      -4.452  -3.587   1.327  0.00  0.00    +0.189 A 
ATOM     31  C   UNL     1      -4.927  -4.111   2.495  0.00  0.00    +0.054 A 
ATOM     32  C   UNL     1      -6.209  -4.613   2.220  0.00  0.00    +0.042 A 
ATOM     33  C   UNL     1      -6.457  -4.377   0.913  0.00  0.00    +0.196 A 
ATOM     34  O   UNL     1      -5.398  -3.754   0.380  0.00  0.00    -0.458 OA
ENDBRANCH  28  30
BRANCH  27  35
ATOM     35  C   UNL     1      -1.409  -2.029  -0.302  0.00  0.00    +0.090 C 
BRANCH  35  36
ATOM     36  C   UNL     1      -1.436  -0.502  -0.219  0.00  0.00    -0.060 C 
BRANCH  36  38
ATOM     37  C   UNL     1      -0.126   1.492  -0.469  0.00  0.00    -0.097 C 
ATOM     38  N   UNL     1      -0.081   0.025  -0.430  0.00  0.00    +0.377 N 
ATOM     39  C   UNL     1       0.790  -0.410   0.670  0.00  0.00    -0.097 C 
ATOM     40  H   UNL     1       0.283  -0.324  -1.304  0.00  0.00    -0.083 HD
ENDBRANCH  36  38
ENDBRANCH  35  36
ENDBRANCH  27  35
ENDBRANCH  26  27
ENDBRANCH  24  26
ENDBRANCH   1  24
TORSDOF 11
