REMARK  Name = ZINC21537150
REMARK  8 active torsions:
REMARK  status: ('A' for Active; 'I' for Inactive)
REMARK    1  A    between atoms: C_1  and  C_2
REMARK    2  A    between atoms: C_2  and  N_3
REMARK    3  A    between atoms: N_3  and  C_4
REMARK    4  A    between atoms: C_8  and  C_10
REMARK    5  A    between atoms: C_11  and  C_13
REMARK    6  A    between atoms: C_13  and  S_14
REMARK    7  A    between atoms: S_14  and  C_15
REMARK    8  A    between atoms: C_17  and  C_26
REMARK                            x       y       z     vdW  Elec       q    Type
REMARK                         _______ _______ _______ _____ _____    ______ ____
ROOT
ATOM      1  C   UNL     1      -3.969  -0.908  -3.669  0.00  0.00    +0.192 A 
ATOM      2  N   UNL     1      -4.409  -0.160  -2.670  0.00  0.00    -0.202 NA
ATOM      3  C   UNL     1      -5.694   0.198  -2.598  0.00  0.00    +0.165 A 
ATOM      4  N   UNL     1      -6.565  -0.183  -3.523  0.00  0.00    -0.208 NA
ATOM      5  C   UNL     1      -6.164  -0.938  -4.550  0.00  0.00    +0.162 A 
ATOM      6  N   UNL     1      -4.839  -1.312  -4.640  0.00  0.00    -0.210 N 
ATOM      7  N   UNL     1      -4.688  -2.083  -5.797  0.00  0.00    -0.256 N 
ATOM      8  H   UNL     1      -3.860  -2.482  -6.108  0.00  0.00    +0.191 HD
ATOM      9  C   UNL     1      -5.886  -2.178  -6.406  0.00  0.00    +0.267 A 
ATOM     10  O   UNL     1      -6.113  -2.781  -7.442  0.00  0.00    -0.266 OA
ATOM     11  C   UNL     1      -6.825  -1.480  -5.646  0.00  0.00    +0.119 A 
ENDROOT
BRANCH   3  12
ATOM     12  C   UNL     1      -6.154   1.035  -1.466  0.00  0.00    +0.019 A 
ATOM     13  C   UNL     1      -7.493   1.413  -1.373  0.00  0.00    +0.011 A 
ATOM     14  C   UNL     1      -7.915   2.192  -0.316  0.00  0.00    +0.001 A 
ATOM     15  C   UNL     1      -7.013   2.599   0.651  0.00  0.00    +0.000 A 
ATOM     16  C   UNL     1      -5.684   2.227   0.565  0.00  0.00    +0.001 A 
ATOM     17  C   UNL     1      -5.250   1.443  -0.485  0.00  0.00    +0.011 A 
ENDBRANCH   3  12
BRANCH   1  18
ATOM     18  S   UNL     1      -2.271  -1.372  -3.750  0.00  0.00    -0.077 S 
BRANCH  18  19
ATOM     19  C   UNL     1      -1.538  -0.614  -2.274  0.00  0.00    +0.173 C 
BRANCH  19  21
ATOM     20  N   UNL     1       0.688  -0.476  -1.203  0.00  0.00    -0.271 N 
ATOM     21  C   UNL     1      -0.067  -0.938  -2.220  0.00  0.00    +0.230 C 
ATOM     22  O   UNL     1       0.437  -1.613  -3.092  0.00  0.00    -0.274 OA
BRANCH  20  23
ATOM     23  C   UNL     1       2.071  -0.691  -1.205  0.00  0.00    +0.037 A 
ATOM     24  C   UNL     1       2.872  -0.056  -2.146  0.00  0.00    +0.023 A 
ATOM     25  C   UNL     1       4.236  -0.269  -2.145  0.00  0.00    +0.002 A 
ATOM     26  C   UNL     1       4.805  -1.115  -1.210  0.00  0.00    +0.003 A 
ATOM     27  C   UNL     1       4.010  -1.748  -0.273  0.00  0.00    -0.049 A 
ATOM     28  C   UNL     1       2.645  -1.534  -0.264  0.00  0.00    +0.027 A 
ATOM     29  C   UNL     1       4.634  -2.669   0.744  0.00  0.00    +0.044 C 
ENDBRANCH  20  23
BRANCH  20  31
ATOM     30  C   UNL     1       0.034   1.745  -0.416  0.00  0.00    +0.025 C 
ATOM     31  C   UNL     1       0.061   0.249  -0.096  0.00  0.00    +0.110 C 
ENDBRANCH  20  31
ENDBRANCH  19  21
ENDBRANCH  18  19
ENDBRANCH   1  18
TORSDOF 6
