REMARK  Name = ZINC36151026
REMARK  14 active torsions:
REMARK  status: ('A' for Active; 'I' for Inactive)
REMARK    1  A    between atoms: C_1  and  C_2
REMARK    2  A    between atoms: C_2  and  C_3
REMARK    3  A    between atoms: C_3  and  N_4
REMARK    4  A    between atoms: N_4  and  C_5
REMARK    5  A    between atoms: N_4  and  C_23
REMARK    6  A    between atoms: C_5  and  C_6
REMARK    7  A    between atoms: C_7  and  C_17
REMARK    8  A    between atoms: C_10  and  N_11
REMARK    9  A    between atoms: C_23  and  C_24
REMARK   10  A    between atoms: C_24  and  C_26
REMARK   11  A    between atoms: C_24  and  O_34
REMARK   12  A    between atoms: C_26  and  O_27
REMARK   13  A    between atoms: O_27  and  C_28
REMARK   14  A    between atoms: C_28  and  C_29
REMARK                            x       y       z     vdW  Elec       q    Type
REMARK                         _______ _______ _______ _____ _____    ______ ____
ROOT
ATOM      1  C   UNL     1      -1.899  -2.298  -0.803  0.00  0.00    -0.035 C 
ENDROOT
BRANCH   1   2
ATOM      2  C   UNL     1      -2.268  -1.948  -2.222  0.00  0.00    +0.025 A 
ATOM      3  C   UNL     1      -2.910  -0.765  -2.644  0.00  0.00    +0.117 A 
ATOM      4  N   UNL     1      -3.059  -0.828  -3.947  0.00  0.00    -0.076 NA
ATOM      5  O   UNL     1      -2.515  -2.058  -4.391  0.00  0.00    -0.339 OA
ATOM      6  C   UNL     1      -2.038  -2.713  -3.319  0.00  0.00    +0.222 A 
BRANCH   6   7
ATOM      7  N   UNL     1      -1.422  -3.951  -3.331  0.00  0.00    -0.295 N 
ATOM      8  C   UNL     1      -2.214  -5.191  -3.287  0.00  0.00    +0.136 C 
ATOM      9  C   UNL     1      -1.740  -6.107  -4.421  0.00  0.00    +0.179 C 
ATOM     10  O   UNL     1      -0.321  -6.257  -4.344  0.00  0.00    -0.377 OA
ATOM     11  C   UNL     1       0.407  -5.039  -4.518  0.00  0.00    +0.179 C 
ATOM     12  C   UNL     1       0.043  -4.068  -3.395  0.00  0.00    +0.136 C 
ENDBRANCH   6   7
BRANCH   3  13
ATOM     13  C   UNL     1      -3.340   0.355  -1.769  0.00  0.00    +0.004 A 
ATOM     14  C   UNL     1      -3.973   0.091  -0.557  0.00  0.00    +0.010 A 
ATOM     15  C   UNL     1      -4.371   1.136   0.253  0.00  0.00    +0.001 A 
ATOM     16  C   UNL     1      -4.141   2.443  -0.137  0.00  0.00    +0.000 A 
ATOM     17  C   UNL     1      -3.513   2.710  -1.340  0.00  0.00    +0.001 A 
ATOM     18  C   UNL     1      -3.106   1.673  -2.155  0.00  0.00    +0.010 A 
ENDBRANCH   3  13
ENDBRANCH   1   2
BRANCH   1  19
ATOM     19  N   UNL     1      -0.492  -1.950  -0.564  0.00  0.00    +0.384 N 
ATOM     20  H   UNL     1       0.092  -2.434  -1.229  0.00  0.00    -0.081 HD
BRANCH  19  21
ATOM     21  C   UNL     1      -0.313  -0.500  -0.720  0.00  0.00    -0.079 C 
BRANCH  21  23
ATOM     22  C   UNL     1       1.374   1.333  -0.908  0.00  0.00    +0.002 C 
ATOM     23  C   UNL     1       1.174  -0.155  -0.615  0.00  0.00    -0.022 C 
ENDBRANCH  21  23
ENDBRANCH  19  21
BRANCH  19  24
ATOM     24  C   UNL     1      -0.115  -2.346   0.799  0.00  0.00    -0.044 C 
BRANCH  24  25
ATOM     25  C   UNL     1      -0.135  -3.872   0.911  0.00  0.00    +0.124 C 
BRANCH  25  26
ATOM     26  O   UNL     1      -1.482  -4.339   0.817  0.00  0.00    -0.391 OA
ATOM     27  H   UNL     1      -2.067  -3.994   1.506  0.00  0.00    +0.210 HD
ENDBRANCH  25  26
BRANCH  25  28
ATOM     28  C   UNL     1       0.457  -4.293   2.258  0.00  0.00    +0.189 C 
BRANCH  28  29
ATOM     29  O   UNL     1       0.546  -5.718   2.315  0.00  0.00    -0.370 OA
BRANCH  29  30
ATOM     30  C   UNL     1       1.089  -6.218   3.538  0.00  0.00    +0.234 C 
BRANCH  30  31
ATOM     31  C   UNL     1       1.137  -7.723   3.489  0.00  0.00    +0.130 A 
ATOM     32  C   UNL     1       2.167  -8.464   3.041  0.00  0.00    +0.047 A 
ATOM     33  C   UNL     1       1.785  -9.819   3.174  0.00  0.00    +0.041 A 
ATOM     34  C   UNL     1       0.545  -9.825   3.696  0.00  0.00    +0.195 A 
ATOM     35  O   UNL     1       0.160  -8.553   3.889  0.00  0.00    -0.465 OA
ENDBRANCH  30  31
ENDBRANCH  29  30
ENDBRANCH  28  29
ENDBRANCH  25  28
ENDBRANCH  24  25
ENDBRANCH  19  24
ENDBRANCH   1  19
TORSDOF 13
