REMARK  Name = ZINC11035653
REMARK  4 active torsions:
REMARK  status: ('A' for Active; 'I' for Inactive)
REMARK    1  A    between atoms: C_10  and  C_16
REMARK    2  A    between atoms: C_19  and  O_22
REMARK    3  A    between atoms: O_22  and  C_23
REMARK    4  A    between atoms: C_23  and  C_24
REMARK                            x       y       z     vdW  Elec       q    Type
REMARK                         _______ _______ _______ _____ _____    ______ ____
ROOT
ATOM      1  C   UNL     1      -0.017   1.373   0.010  0.00  0.00    +0.002 A 
ATOM      2  C   UNL     1       1.170   2.091   0.002  0.00  0.00    +0.002 A 
ATOM      3  C   UNL     1       2.384   1.436  -0.013  0.00  0.00    +0.028 A 
ATOM      4  C   UNL     1       2.425   0.050  -0.020  0.00  0.00    +0.072 A 
ATOM      5  C   UNL     1       1.223  -0.684  -0.013  0.00  0.00    +0.091 A 
ATOM      6  C   UNL     1       0.002  -0.004   0.002  0.00  0.00    +0.030 A 
ATOM      7  N   UNL     1       1.550  -2.004  -0.024  0.00  0.00    -0.210 NA
ATOM      8  C   UNL     1       2.851  -2.134  -0.051  0.00  0.00    +0.236 A 
ATOM      9  N   UNL     1       3.434  -0.882  -0.032  0.00  0.00    -0.285 N 
ATOM     10  C   UNL     1       4.891  -0.703  -0.022  0.00  0.00    +0.209 C 
ATOM     11  N   UNL     1       5.471  -1.935  -0.587  0.00  0.00    -0.293 N 
ATOM     12  C   UNL     1       4.898  -3.148  -0.311  0.00  0.00    +0.183 C 
ATOM     13  N   UNL     1       3.602  -3.261  -0.076  0.00  0.00    -0.183 NA
ATOM     14  N   UNL     1       5.684  -4.267  -0.277  0.00  0.00    -0.331 N 
ATOM     15  H   UNL     1       6.256  -1.887  -1.153  0.00  0.00    +0.151 HD
ATOM     16  H   UNL     1       5.289  -5.131  -0.083  0.00  0.00    +0.145 HD
ATOM     17  H   UNL     1       6.636  -4.196  -0.448  0.00  0.00    +0.145 HD
ENDROOT
BRANCH  10  18
ATOM     18  C   UNL     1       5.376  -0.505   1.391  0.00  0.00    -0.007 A 
ATOM     19  C   UNL     1       5.484  -1.589   2.242  0.00  0.00    +0.011 A 
ATOM     20  C   UNL     1       5.934  -1.411   3.536  0.00  0.00    +0.046 A 
ATOM     21  C   UNL     1       6.267  -0.142   3.985  0.00  0.00    +0.121 A 
ATOM     22  C   UNL     1       6.153   0.946   3.131  0.00  0.00    +0.046 A 
ATOM     23  C   UNL     1       5.707   0.761   1.836  0.00  0.00    +0.011 A 
BRANCH  21  24
ATOM     24  O   UNL     1       6.706   0.037   5.259  0.00  0.00    -0.489 OA
BRANCH  24  25
ATOM     25  C   UNL     1       6.799  -1.128   6.082  0.00  0.00    +0.260 C 
BRANCH  25  26
ATOM     26  C   UNL     1       7.306  -0.732   7.470  0.00  0.00    +0.156 C 
ATOM     27  C   UNL     1       7.363  -1.973   8.396  0.00  0.00    +0.037 C 
ATOM     28  C   UNL     1       8.442  -1.528   9.420  0.00  0.00    +0.031 C 
ATOM     29  C   UNL     1       9.394  -0.683   8.546  0.00  0.00    +0.160 C 
ATOM     30  O   UNL     1       8.661  -0.261   7.390  0.00  0.00    -0.373 OA
ENDBRANCH  25  26
ENDBRANCH  24  25
ENDBRANCH  21  24
ENDBRANCH  10  18
TORSDOF 4
