REMARK  Name = ZINC39231755
REMARK  8 active torsions:
REMARK  status: ('A' for Active; 'I' for Inactive)
REMARK    1  A    between atoms: C_1  and  C_2
REMARK    2  A    between atoms: C_4  and  S_16
REMARK    3  A    between atoms: C_7  and  C_8
REMARK    4  A    between atoms: C_8  and  C_9
REMARK    5  A    between atoms: C_12  and  O_15
REMARK    6  A    between atoms: S_16  and  C_17
REMARK    7  A    between atoms: C_17  and  C_18
REMARK    8  A    between atoms: C_26  and  N_30
REMARK                            x       y       z     vdW  Elec       q    Type
REMARK                         _______ _______ _______ _____ _____    ______ ____
ROOT
ATOM      1  C   UNL     1       2.882  -1.982  -0.534  0.00  0.00    +0.169 C 
ENDROOT
BRANCH   1   2
ATOM      2  C   UNL     1       4.200  -2.568  -0.970  0.00  0.00    +0.229 C 
ATOM      3  O   UNL     1       4.221  -3.554  -1.676  0.00  0.00    -0.275 OA
ATOM      4  N   UNL     1       5.355  -1.998  -0.574  0.00  0.00    -0.264 N 
ATOM      5  C   UNL     1       6.567  -2.537  -0.974  0.00  0.00    +0.165 A 
ATOM      6  N   UNL     1       6.791  -3.584  -1.734  0.00  0.00    -0.225 NA
ATOM      7  C   UNL     1       8.037  -4.000  -2.046  0.00  0.00    +0.080 A 
ATOM      8  C   UNL     1       8.414  -5.103  -2.848  0.00  0.00    +0.031 A 
ATOM      9  C   UNL     1       9.736  -5.391  -3.066  0.00  0.00    +0.035 A 
ATOM     10  C   UNL     1      10.747  -4.617  -2.514  0.00  0.00    +0.127 A 
ATOM     11  C   UNL     1      10.415  -3.531  -1.725  0.00  0.00    +0.050 A 
ATOM     12  C   UNL     1       9.093  -3.236  -1.501  0.00  0.00    +0.043 A 
ATOM     13  S   UNL     1       8.222  -1.980  -0.594  0.00  0.00    -0.052 S 
ATOM     14  H   UNL     1       5.338  -1.210  -0.009  0.00  0.00    +0.157 HD
BRANCH  10  15
ATOM     15  N   UNL     1      12.167  -4.952  -2.766  0.00  0.00    +0.056 N 
ATOM     16  O   UNL     1      12.450  -5.903  -3.456  0.00  0.00    -0.126 OA
ATOM     17  O   UNL     1      13.043  -4.274  -2.281  0.00  0.00    -0.126 OA
ENDBRANCH  10  15
ENDBRANCH   1   2
BRANCH   1  18
ATOM     18  S   UNL     1       1.524  -2.967  -1.224  0.00  0.00    -0.102 S 
BRANCH  18  22
ATOM     19  C   UNL     1      -0.018   1.503   0.010  0.00  0.00    +0.067 C 
ATOM     20  C   UNL     1       0.002  -0.004   0.002  0.00  0.00    +0.057 C 
ATOM     21  N   UNL     1       0.008  -0.741  -1.058  0.00  0.00    -0.250 NA
ATOM     22  C   UNL     1       0.029  -2.140  -0.615  0.00  0.00    +0.280 C 
ATOM     23  N   UNL     1       0.034  -2.100   0.853  0.00  0.00    -0.250 NA
ATOM     24  C   UNL     1       0.025  -0.857   1.201  0.00  0.00    +0.064 C 
BRANCH  24  25
ATOM     25  C   UNL     1       0.033  -0.354   2.622  0.00  0.00    +0.092 C 
BRANCH  25  26
ATOM     26  C   UNL     1       0.057  -1.526   3.569  0.00  0.00    -0.041 A 
ATOM     27  C   UNL     1      -1.129  -2.082   4.010  0.00  0.00    +0.007 A 
ATOM     28  C   UNL     1      -1.110  -3.156   4.879  0.00  0.00    +0.045 A 
ATOM     29  C   UNL     1       0.102  -3.677   5.308  0.00  0.00    +0.117 A 
ATOM     30  C   UNL     1       1.292  -3.118   4.864  0.00  0.00    +0.045 A 
ATOM     31  C   UNL     1       1.266  -2.047   3.991  0.00  0.00    +0.007 A 
BRANCH  29  32
ATOM     32  O   UNL     1       0.125  -4.733   6.163  0.00  0.00    -0.507 OA
ATOM     33  H   UNL     1       0.135  -5.595   5.724  0.00  0.00    +0.292 HD
ENDBRANCH  29  32
ENDBRANCH  25  26
ENDBRANCH  24  25
ENDBRANCH  18  22
ENDBRANCH   1  18
TORSDOF 7
