REMARK  Name = ZINC09121765
REMARK  14 active torsions:
REMARK  status: ('A' for Active; 'I' for Inactive)
REMARK    1  A    between atoms: C_1  and  C_2
REMARK    2  A    between atoms: C_2  and  O_3
REMARK    3  A    between atoms: O_3  and  C_4
REMARK    4  A    between atoms: C_7  and  N_13
REMARK    5  A    between atoms: C_9  and  O_10
REMARK    6  A    between atoms: O_10  and  C_11
REMARK    7  A    between atoms: C_11  and  C_12
REMARK    8  A    between atoms: C_15  and  C_20
REMARK    9  A    between atoms: C_20  and  N_21
REMARK   10  A    between atoms: C_22  and  C_24
REMARK   11  A    between atoms: C_24  and  O_25
REMARK   12  A    between atoms: O_25  and  C_26
REMARK   13  A    between atoms: C_33  and  C_35
REMARK   14  A    between atoms: C_33  and  C_36
REMARK                            x       y       z     vdW  Elec       q    Type
REMARK                         _______ _______ _______ _____ _____    ______ ____
ROOT
ATOM      1  N   UNL     1      -1.341 -10.547   1.593  0.00  0.00    -0.234 N 
ATOM      2  C   UNL     1      -1.925  -9.482   2.423  0.00  0.00    +0.163 C 
ATOM      3  C   UNL     1      -0.785  -8.454   2.557  0.00  0.00    +0.213 C 
ATOM      4  O   UNL     1       0.313  -9.039   1.799  0.00  0.00    -0.444 OA
ATOM      5  C   UNL     1      -0.079 -10.215   1.287  0.00  0.00    +0.408 C 
ATOM      6  O   UNL     1       0.645 -10.916   0.608  0.00  0.00    -0.226 OA
ENDROOT
BRANCH   1  10
ATOM      7  C   UNL     1      -3.298 -14.032   0.393  0.00  0.00    +0.162 A 
ATOM      8  C   UNL     1      -3.958 -13.100   1.177  0.00  0.00    +0.051 A 
ATOM      9  C   UNL     1      -3.310 -11.946   1.575  0.00  0.00    +0.027 A 
ATOM     10  C   UNL     1      -1.996 -11.718   1.189  0.00  0.00    +0.043 A 
ATOM     11  C   UNL     1      -1.334 -12.646   0.398  0.00  0.00    +0.073 A 
ATOM     12  C   UNL     1      -1.981 -13.806   0.004  0.00  0.00    +0.164 A 
BRANCH   7  13
ATOM     13  O   UNL     1      -3.938 -15.168   0.002  0.00  0.00    -0.489 OA
BRANCH  13  15
ATOM     14  C   UNL     1      -5.837 -16.659  -0.097  0.00  0.00    +0.048 C 
ATOM     15  C   UNL     1      -5.289 -15.334   0.436  0.00  0.00    +0.226 C 
ENDBRANCH  13  15
ENDBRANCH   7  13
BRANCH  12  16
ATOM     16  O   UNL     1      -1.332 -14.720  -0.766  0.00  0.00    -0.489 OA
BRANCH  16  17
ATOM     17  C   UNL     1       0.018 -14.422  -1.127  0.00  0.00    +0.226 C 
ATOM     18  C   UNL     1       0.578 -15.557  -1.986  0.00  0.00    +0.048 C 
ENDBRANCH  16  17
ENDBRANCH  12  16
ENDBRANCH   1  10
BRANCH   3  19
ATOM     19  C   UNL     1      -1.200  -7.112   1.951  0.00  0.00    +0.150 C 
BRANCH  19  20
ATOM     20  N   UNL     1      -0.085  -6.167   2.050  0.00  0.00    -0.309 N 
ATOM     21  C   UNL     1      -0.221  -4.912   1.577  0.00  0.00    +0.251 C 
ATOM     22  O   UNL     1      -1.267  -4.565   1.071  0.00  0.00    -0.272 OA
ATOM     23  H   UNL     1       0.752  -6.444   2.455  0.00  0.00    +0.149 HD
BRANCH  21  24
ATOM     24  C   UNL     1       0.926  -3.939   1.679  0.00  0.00    +0.324 C 
BRANCH  24  25
ATOM     25  O   UNL     1       0.539  -2.686   1.113  0.00  0.00    -0.479 OA
BRANCH  25  26
ATOM     26  C   UNL     1       1.466  -1.691   1.125  0.00  0.00    +0.163 A 
ATOM     27  C   UNL     1       2.717  -1.920   1.668  0.00  0.00    +0.049 A 
ATOM     28  C   UNL     1       3.665  -0.914   1.684  0.00  0.00    +0.004 A 
ATOM     29  C   UNL     1       3.359   0.329   1.157  0.00  0.00    +0.007 A 
ATOM     30  C   UNL     1       2.112   0.562   0.618  0.00  0.00    +0.002 A 
ATOM     31  C   UNL     1       1.152  -0.440   0.587  0.00  0.00    +0.166 A 
ATOM     32  O   UNL     1       0.002  -0.004   0.002  0.00  0.00    -0.482 OA
ATOM     33  C   UNL     1      -0.017   1.433   0.010  0.00  0.00    +0.109 C 
ATOM     34  C   UNL     1       1.486   1.796  -0.003  0.00  0.00    +0.086 C 
ATOM     35  C   UNL     1      -0.715   1.973  -1.240  0.00  0.00    +0.056 C 
ATOM     36  C   UNL     1      -0.691   1.960   1.279  0.00  0.00    +0.056 C 
ENDBRANCH  25  26
ENDBRANCH  24  25
ENDBRANCH  21  24
ENDBRANCH  19  20
ENDBRANCH   3  19
TORSDOF 10
