REMARK  Name = ZINC39596454
REMARK  8 active torsions:
REMARK  status: ('A' for Active; 'I' for Inactive)
REMARK    1  A    between atoms: C_1  and  C_2
REMARK    2  A    between atoms: C_2  and  C_4
REMARK    3  A    between atoms: C_2  and  O_33
REMARK    4  A    between atoms: C_4  and  N_5
REMARK    5  A    between atoms: C_6  and  C_8
REMARK    6  A    between atoms: C_19  and  C_21
REMARK    7  A    between atoms: C_24  and  C_26
REMARK    8  A    between atoms: O_33  and  C_34
REMARK                            x       y       z     vdW  Elec       q    Type
REMARK                         _______ _______ _______ _____ _____    ______ ____
ROOT
ATOM      1  C   UNL     1       1.548  -4.330   2.665  0.00  0.00    +0.100 C 
ATOM      2  C   UNL     1       2.530  -4.928   1.633  0.00  0.00    +0.121 C 
ATOM      3  N   UNL     1       3.813  -5.049   2.364  0.00  0.00    -0.294 N 
ATOM      4  C   UNL     1       3.423  -5.496   3.723  0.00  0.00    +0.115 C 
ATOM      5  C   UNL     1       2.135  -4.708   4.035  0.00  0.00    -0.004 C 
ATOM      6  C   UNL     1       1.153  -5.584   4.807  0.00  0.00    -0.010 C 
ATOM      7  C   UNL     1       1.734  -5.899   6.188  0.00  0.00    -0.082 C 
ATOM      8  N   UNL     1       1.980  -4.647   6.915  0.00  0.00    +0.379 N 
ATOM      9  C   UNL     1       2.995  -3.852   6.213  0.00  0.00    -0.082 C 
ATOM     10  C   UNL     1       2.467  -3.451   4.832  0.00  0.00    -0.010 C 
ATOM     11  C   UNL     1       5.055  -4.808   1.899  0.00  0.00    +0.282 C 
ATOM     12  O   UNL     1       6.018  -4.954   2.630  0.00  0.00    -0.267 OA
ATOM     13  H   UNL     1       1.122  -4.120   6.972  0.00  0.00    -0.086 HD
ATOM     14  H   UNL     1       2.305  -4.859   7.846  0.00  0.00    -0.086 HD
ENDROOT
BRANCH  11  15
ATOM     15  C   UNL     1       5.246  -4.368   0.515  0.00  0.00    +0.190 A 
ATOM     16  C   UNL     1       6.455  -4.093  -0.087  0.00  0.00    +0.055 A 
ATOM     17  C   UNL     1       6.173  -3.711  -1.402  0.00  0.00    +0.050 A 
ATOM     18  C   UNL     1       4.817  -3.765  -1.554  0.00  0.00    +0.136 A 
ATOM     19  O   UNL     1       4.270  -4.168  -0.395  0.00  0.00    -0.450 OA
BRANCH  18  20
ATOM     20  C   UNL     1       4.075  -3.441  -2.789  0.00  0.00    +0.017 A 
ATOM     21  C   UNL     1       4.765  -3.043  -3.937  0.00  0.00    +0.014 A 
ATOM     22  C   UNL     1       4.068  -2.742  -5.087  0.00  0.00    +0.039 A 
ATOM     23  C   UNL     1       2.685  -2.834  -5.107  0.00  0.00    +0.123 A 
ATOM     24  C   UNL     1       1.995  -3.228  -3.971  0.00  0.00    +0.039 A 
ATOM     25  C   UNL     1       2.682  -3.537  -2.816  0.00  0.00    +0.014 A 
ATOM     26  F   UNL     1       2.006  -2.538  -6.237  0.00  0.00    -0.205 F 
ENDBRANCH  18  20
ENDBRANCH  11  15
BRANCH   1  28
ATOM     27  N   UNL     1       0.352  -2.172   2.847  0.00  0.00    -0.312 N 
ATOM     28  C   UNL     1       1.481  -2.832   2.518  0.00  0.00    +0.218 C 
ATOM     29  O   UNL     1       2.443  -2.219   2.104  0.00  0.00    -0.275 OA
ATOM     30  H   UNL     1      -0.417  -2.662   3.178  0.00  0.00    +0.149 HD
BRANCH  27  31
ATOM     31  C   UNL     1       0.287  -0.716   2.704  0.00  0.00    +0.148 C 
BRANCH  31  33
ATOM     32  C   UNL     1      -1.204   1.281   2.876  0.00  0.00    +0.053 C 
ATOM     33  C   UNL     1      -1.093  -0.221   3.142  0.00  0.00    +0.187 C 
BRANCH  33  34
ATOM     34  O   UNL     1      -1.268  -0.473   4.537  0.00  0.00    -0.488 OA
BRANCH  34  35
ATOM     35  C   UNL     1      -2.546  -0.580   4.989  0.00  0.00    +0.121 A 
ATOM     36  C   UNL     1      -3.608  -0.340   4.130  0.00  0.00    +0.048 A 
ATOM     37  C   UNL     1      -4.906  -0.449   4.591  0.00  0.00    +0.042 A 
ATOM     38  C   UNL     1      -5.147  -0.797   5.909  0.00  0.00    +0.124 A 
ATOM     39  C   UNL     1      -4.087  -1.036   6.768  0.00  0.00    +0.042 A 
ATOM     40  C   UNL     1      -2.788  -0.934   6.308  0.00  0.00    +0.048 A 
ATOM     41  F   UNL     1      -6.417  -0.903   6.359  0.00  0.00    -0.205 F 
ENDBRANCH  34  35
ENDBRANCH  33  34
ENDBRANCH  31  33
ENDBRANCH  27  31
ENDBRANCH   1  28
TORSDOF 7
