REMARK  Name = ZINC36627824
REMARK  9 active torsions:
REMARK  status: ('A' for Active; 'I' for Inactive)
REMARK    1  A    between atoms: C_1  and  C_2
REMARK    2  A    between atoms: N_5  and  S_8
REMARK    3  A    between atoms: S_8  and  C_11
REMARK    4  A    between atoms: C_14  and  C_17
REMARK    5  A    between atoms: C_19  and  C_32
REMARK    6  A    between atoms: C_20  and  N_22
REMARK    7  A    between atoms: N_22  and  C_23
REMARK    8  A    between atoms: C_23  and  C_25
REMARK    9  A    between atoms: C_23  and  C_26
REMARK                            x       y       z     vdW  Elec       q    Type
REMARK                         _______ _______ _______ _____ _____    ______ ____
ROOT
ATOM      1  C   UNL     1       0.118  -9.114  -0.037  0.00  0.00    +0.231 A 
ATOM      2  N   UNL     1      -0.645  -9.803  -0.845  0.00  0.00    -0.196 NA
ATOM      3  C   UNL     1      -0.028 -10.982  -1.125  0.00  0.00    +0.201 A 
ATOM      4  C   UNL     1       1.175 -10.981  -0.435  0.00  0.00    +0.225 A 
ATOM      5  O   UNL     1       1.241  -9.811   0.225  0.00  0.00    -0.421 OA
ENDROOT
BRANCH   1   9
ATOM      6  C   UNL     1      -0.795  -5.265   1.507  0.00  0.00    +0.106 A 
ATOM      7  C   UNL     1      -1.689  -5.897   0.661  0.00  0.00    +0.029 A 
ATOM      8  C   UNL     1      -1.398  -7.148   0.156  0.00  0.00    +0.015 A 
ATOM      9  C   UNL     1      -0.199  -7.775   0.500  0.00  0.00    +0.037 A 
ATOM     10  C   UNL     1       0.699  -7.131   1.353  0.00  0.00    +0.015 A 
ATOM     11  C   UNL     1       0.398  -5.878   1.847  0.00  0.00    +0.029 A 
BRANCH   6  12
ATOM     12  S   UNL     1      -1.173  -3.668   2.148  0.00  0.00    +0.061 S 
ATOM     13  O   UNL     1      -0.421  -3.521   3.344  0.00  0.00    -0.153 OA
ATOM     14  O   UNL     1      -2.589  -3.544   2.119  0.00  0.00    -0.153 OA
BRANCH  12  19
ATOM     15  C   UNL     1      -0.019   1.526   0.010  0.00  0.00    +0.007 C 
ATOM     16  C   UNL     1       0.002  -0.004   0.002  0.00  0.00    -0.012 C 
ATOM     17  C   UNL     1      -1.434  -0.533   0.011  0.00  0.00    +0.020 C 
ATOM     18  C   UNL     1      -1.409  -2.065  -0.032  0.00  0.00    +0.110 C 
ATOM     19  N   UNL     1      -0.578  -2.556   1.075  0.00  0.00    -0.177 NA
ATOM     20  C   UNL     1       0.791  -2.042   1.212  0.00  0.00    +0.110 C 
ATOM     21  C   UNL     1       0.742  -0.511   1.242  0.00  0.00    +0.020 C 
ENDBRANCH  12  19
ENDBRANCH   6  12
ENDBRANCH   1   9
BRANCH   4  22
ATOM     22  N   UNL     1       2.121 -11.982  -0.431  0.00  0.00    -0.306 N 
ATOM     23  H   UNL     1       1.975 -12.790  -0.949  0.00  0.00    +0.150 HD
BRANCH  22  24
ATOM     24  C   UNL     1       3.348 -11.828   0.355  0.00  0.00    +0.100 C 
ATOM     25  C   UNL     1       4.383 -11.054  -0.462  0.00  0.00    +0.033 C 
BRANCH  24  26
ATOM     26  C   UNL     1       3.896 -13.188   0.703  0.00  0.00    -0.027 A 
ATOM     27  C   UNL     1       3.872 -14.203  -0.235  0.00  0.00    +0.005 A 
ATOM     28  C   UNL     1       4.375 -15.450   0.083  0.00  0.00    +0.000 A 
ATOM     29  C   UNL     1       4.903 -15.682   1.339  0.00  0.00    +0.000 A 
ATOM     30  C   UNL     1       4.929 -14.667   2.277  0.00  0.00    +0.000 A 
ATOM     31  C   UNL     1       4.429 -13.418   1.957  0.00  0.00    +0.005 A 
ENDBRANCH  24  26
ENDBRANCH  22  24
ENDBRANCH   4  22
BRANCH   3  32
ATOM     32  C   UNL     1      -0.526 -12.025  -1.971  0.00  0.00    +0.124 C 
ATOM     33  N   UNL     1      -0.921 -12.853  -2.641  0.00  0.00    -0.189 NA
ENDBRANCH   3  32
TORSDOF 7
