REMARK  Name = ZINC09070356
REMARK  5 active torsions:
REMARK  status: ('A' for Active; 'I' for Inactive)
REMARK    1  A    between atoms: C_6  and  N_7
REMARK    2  A    between atoms: C_9  and  C_14
REMARK    3  A    between atoms: C_14  and  N_15
REMARK    4  A    between atoms: C_16  and  C_18
REMARK    5  A    between atoms: C_23  and  N_24
REMARK                            x       y       z     vdW  Elec       q    Type
REMARK                         _______ _______ _______ _____ _____    ______ ____
ROOT
ATOM      1  C   UNL     1      -0.740  -0.123  -0.243  0.00  0.00    +0.150 C 
ENDROOT
BRANCH   1   4
ATOM      2  N   UNL     1      -2.075  -1.960   2.364  0.00  0.00    -0.234 N 
ATOM      3  C   UNL     1      -1.160  -0.830   2.143  0.00  0.00    +0.163 C 
ATOM      4  C   UNL     1      -1.747  -0.118   0.909  0.00  0.00    +0.213 C 
ATOM      5  O   UNL     1      -2.920  -0.911   0.566  0.00  0.00    -0.444 OA
ATOM      6  C   UNL     1      -3.035  -1.930   1.430  0.00  0.00    +0.408 C 
ATOM      7  O   UNL     1      -3.930  -2.750   1.371  0.00  0.00    -0.226 OA
BRANCH   2  13
ATOM      8  C   UNL     1      -0.911  -2.840   4.290  0.00  0.00    +0.026 A 
ATOM      9  C   UNL     1      -0.802  -3.779   5.297  0.00  0.00    +0.040 A 
ATOM     10  C   UNL     1      -1.733  -4.799   5.397  0.00  0.00    +0.124 A 
ATOM     11  C   UNL     1      -2.777  -4.878   4.491  0.00  0.00    +0.040 A 
ATOM     12  C   UNL     1      -2.892  -3.938   3.485  0.00  0.00    +0.026 A 
ATOM     13  C   UNL     1      -1.960  -2.914   3.383  0.00  0.00    +0.040 A 
ATOM     14  F   UNL     1      -1.622  -5.719   6.380  0.00  0.00    -0.205 F 
ENDBRANCH   2  13
ENDBRANCH   1   4
BRANCH   1  15
ATOM     15  N   UNL     1      -1.292   0.622  -1.377  0.00  0.00    -0.308 N 
ATOM     16  C   UNL     1      -0.575   0.750  -2.511  0.00  0.00    +0.246 C 
ATOM     17  O   UNL     1       0.529   0.248  -2.593  0.00  0.00    -0.270 OA
ATOM     18  H   UNL     1      -2.173   1.022  -1.312  0.00  0.00    +0.149 HD
BRANCH  16  19
ATOM     19  C   UNL     1      -1.132   1.502  -3.656  0.00  0.00    +0.068 A 
ATOM     20  C   UNL     1      -2.335   2.196  -3.520  0.00  0.00    +0.035 A 
ATOM     21  C   UNL     1      -2.846   2.901  -4.592  0.00  0.00    +0.042 A 
ATOM     22  C   UNL     1      -2.174   2.909  -5.803  0.00  0.00    +0.022 A 
ATOM     23  C   UNL     1      -0.985   2.218  -5.944  0.00  0.00    +0.035 A 
ATOM     24  C   UNL     1      -0.460   1.515  -4.879  0.00  0.00    +0.138 A 
ATOM     25 CL   UNL     1      -4.338   3.773  -4.423  0.00  0.00    -0.084 Cl
BRANCH  24  26
ATOM     26  N   UNL     1       0.813   0.776  -5.034  0.00  0.00    +0.057 N 
ATOM     27  O   UNL     1       1.792   1.339  -5.492  0.00  0.00    -0.126 OA
ATOM     28  O   UNL     1       0.883  -0.394  -4.702  0.00  0.00    -0.126 OA
ENDBRANCH  24  26
ENDBRANCH  16  19
ENDBRANCH   1  15
TORSDOF 5
