REMARK  Name = ZINC06818247
REMARK  6 active torsions:
REMARK  status: ('A' for Active; 'I' for Inactive)
REMARK    1  A    between atoms: C_1  and  C_2
REMARK    2  A    between atoms: C_2  and  C_3
REMARK    3  A    between atoms: C_3  and  C_5
REMARK    4  A    between atoms: C_3  and  O_22
REMARK    5  A    between atoms: C_11  and  C_16
REMARK    6  A    between atoms: O_22  and  C_23
REMARK                            x       y       z     vdW  Elec       q    Type
REMARK                         _______ _______ _______ _____ _____    ______ ____
ROOT
ATOM      1  C   UNL     1      -4.646   3.769  -0.848  0.00  0.00    +0.259 C 
ATOM      2  O   UNL     1      -4.393   4.874  -1.280  0.00  0.00    -0.271 OA
ATOM      3  N   UNL     1      -5.855   3.218  -1.075  0.00  0.00    -0.260 N 
ATOM      4  C   UNL     1      -6.811   3.914  -1.803  0.00  0.00    +0.188 A 
ATOM      5  N   UNL     1      -8.022   3.550  -2.128  0.00  0.00    -0.140 NA
ATOM      6  N   UNL     1      -8.852   4.383  -2.866  0.00  0.00    -0.184 N 
ATOM      7  C   UNL     1     -10.133   4.400  -3.398  0.00  0.00    +0.186 A 
ATOM      8  N   UNL     1     -10.294   5.547  -4.020  0.00  0.00    -0.126 NA
ATOM      9  N   UNL     1      -9.220   6.251  -3.923  0.00  0.00    -0.120 NA
ATOM     10  C   UNL     1      -8.329   5.595  -3.240  0.00  0.00    +0.220 A 
ATOM     11  S   UNL     1      -6.696   5.536  -2.544  0.00  0.00    -0.011 S 
ATOM     12  H   UNL     1      -6.057   2.334  -0.729  0.00  0.00    +0.157 HD
ENDROOT
BRANCH   7  13
ATOM     13  C   UNL     1     -11.137   3.322  -3.285  0.00  0.00    +0.021 A 
ATOM     14  C   UNL     1     -10.964   2.298  -2.353  0.00  0.00    +0.011 A 
ATOM     15  C   UNL     1     -11.908   1.297  -2.249  0.00  0.00    +0.001 A 
ATOM     16  C   UNL     1     -13.019   1.302  -3.074  0.00  0.00    +0.000 A 
ATOM     17  C   UNL     1     -13.194   2.312  -4.003  0.00  0.00    +0.001 A 
ATOM     18  C   UNL     1     -12.261   3.321  -4.113  0.00  0.00    +0.011 A 
ENDBRANCH   7  13
BRANCH   1  19
ATOM     19  C   UNL     1      -3.609   3.014  -0.057  0.00  0.00    +0.259 C 
BRANCH  19  21
ATOM     20  C   UNL     1      -3.150   1.847   2.103  0.00  0.00    +0.008 C 
ATOM     21  C   UNL     1      -4.150   2.720   1.343  0.00  0.00    +0.051 C 
ENDBRANCH  19  21
BRANCH  19  22
ATOM     22  O   UNL     1      -2.422   3.802   0.046  0.00  0.00    -0.480 OA
BRANCH  22  23
ATOM     23  C   UNL     1      -1.236   3.147  -0.060  0.00  0.00    +0.122 A 
ATOM     24  C   UNL     1      -1.212   1.763  -0.150  0.00  0.00    +0.045 A 
ATOM     25  C   UNL     1      -0.004   1.099  -0.252  0.00  0.00    +0.004 A 
ATOM     26  C   UNL     1       1.179   1.814  -0.277  0.00  0.00    +0.000 A 
ATOM     27  C   UNL     1       1.157   3.194  -0.194  0.00  0.00    +0.004 A 
ATOM     28  C   UNL     1      -0.047   3.862  -0.086  0.00  0.00    +0.045 A 
ENDBRANCH  22  23
ENDBRANCH  19  22
ENDBRANCH   1  19
TORSDOF 5
