REMARK  Name = ZINC02252445
REMARK  7 active torsions:
REMARK  status: ('A' for Active; 'I' for Inactive)
REMARK    1  A    between atoms: C_3  and  O_8
REMARK    2  A    between atoms: O_8  and  C_9
REMARK    3  A    between atoms: C_9  and  C_10
REMARK    4  A    between atoms: N_12  and  N_13
REMARK    5  A    between atoms: C_14  and  C_15
REMARK    6  A    between atoms: N_19  and  C_20
REMARK    7  A    between atoms: C_23  and  N_26
REMARK                            x       y       z     vdW  Elec       q    Type
REMARK                         _______ _______ _______ _____ _____    ______ ____
ROOT
ATOM      1  N   UNL     1      -2.850  -2.300   0.017  0.00  0.00    -0.186 NA
ATOM      2  C   UNL     1      -3.077  -3.620   0.012  0.00  0.00    +0.156 C 
ENDROOT
BRANCH   2   3
ATOM      3  C   UNL     1      -4.372  -4.098   0.022  0.00  0.00    +0.066 A 
ATOM      4  C   UNL     1      -5.612  -3.294   0.044  0.00  0.00    +0.029 A 
ATOM      5  C   UNL     1      -6.642  -4.180   0.044  0.00  0.00    +0.020 A 
ATOM      6  C   UNL     1      -6.112  -5.479   0.032  0.00  0.00    +0.092 A 
ATOM      7  N   UNL     1      -4.768  -5.430   0.018  0.00  0.00    -0.315 N 
BRANCH   7   8
ATOM      8  C   UNL     1      -3.910  -6.537   0.003  0.00  0.00    +0.047 A 
ATOM      9  C   UNL     1      -2.887  -6.611  -0.932  0.00  0.00    +0.028 A 
ATOM     10  C   UNL     1      -2.040  -7.702  -0.942  0.00  0.00    +0.035 A 
ATOM     11  C   UNL     1      -2.216  -8.724  -0.028  0.00  0.00    +0.126 A 
ATOM     12  C   UNL     1      -3.238  -8.655   0.902  0.00  0.00    +0.035 A 
ATOM     13  C   UNL     1      -4.085  -7.565   0.920  0.00  0.00    +0.028 A 
BRANCH  11  14
ATOM     14  N   UNL     1      -1.310  -9.894  -0.044  0.00  0.00    +0.056 N 
ATOM     15  O   UNL     1      -1.477 -10.869   0.826  0.00  0.00    -0.126 OA
ATOM     16  O   UNL     1      -0.337  -9.961  -0.929  0.00  0.00    -0.126 OA
ENDBRANCH  11  14
ENDBRANCH   7   8
ENDBRANCH   2   3
BRANCH   1  19
ATOM     17  C   UNL     1      -1.412  -0.526   0.013  0.00  0.00    +0.270 C 
ATOM     18  O   UNL     1      -2.341   0.247   0.026  0.00  0.00    -0.270 OA
ATOM     19  N   UNL     1      -1.640  -1.854   0.008  0.00  0.00    -0.204 N 
ATOM     20  H   UNL     1      -0.894  -2.474  -0.003  0.00  0.00    +0.177 HD
BRANCH  17  21
ATOM     21  C   UNL     1       0.002  -0.004   0.002  0.00  0.00    +0.326 C 
BRANCH  21  22
ATOM     22  O   UNL     1      -0.017   1.425   0.010  0.00  0.00    -0.483 OA
BRANCH  22  25
ATOM     23  C   UNL     1       3.581   1.965  -0.021  0.00  0.00    +0.005 A 
ATOM     24  C   UNL     1       2.359   1.319  -0.008  0.00  0.00    +0.046 A 
ATOM     25  C   UNL     1       1.185   2.058   0.002  0.00  0.00    +0.123 A 
ATOM     26  C   UNL     1       1.240   3.444   0.009  0.00  0.00    +0.065 A 
ATOM     27  C   UNL     1       2.464   4.086   0.001  0.00  0.00    +0.044 A 
ATOM     28  C   UNL     1       3.634   3.346  -0.014  0.00  0.00    +0.020 A 
ATOM     29 CL   UNL     1       2.535   5.821   0.010  0.00  0.00    -0.083 Cl
ENDBRANCH  22  25
ENDBRANCH  21  22
ENDBRANCH  17  21
ENDBRANCH   1  19
TORSDOF 7
