REMARK  Name = ZINC40126597
REMARK  7 active torsions:
REMARK  status: ('A' for Active; 'I' for Inactive)
REMARK    1  A    between atoms: C_4  and  N_32
REMARK    2  A    between atoms: C_5  and  C_7
REMARK    3  A    between atoms: C_9  and  C_15
REMARK    4  A    between atoms: C_15  and  C_17
REMARK    5  A    between atoms: C_21  and  O_23
REMARK    6  A    between atoms: O_23  and  C_24
REMARK    7  A    between atoms: C_24  and  C_25
REMARK                            x       y       z     vdW  Elec       q    Type
REMARK                         _______ _______ _______ _____ _____    ______ ____
ROOT
ATOM      1  C   UNL     1       0.368  -1.706   0.883  0.00  0.00    +0.144 C 
ATOM      2  C   UNL     1       1.254  -2.817   1.396  0.00  0.00    +0.076 C 
ATOM      3  C   UNL     1       0.823  -3.961   0.814  0.00  0.00    +0.249 C 
ATOM      4  C   UNL     1      -0.321  -3.653  -0.071  0.00  0.00    +0.285 C 
ATOM      5  O   UNL     1      -0.928  -4.470  -0.735  0.00  0.00    -0.267 OA
ATOM      6  N   UNL     1      -0.590  -2.334  -0.034  0.00  0.00    -0.298 N 
ATOM      7  O   UNL     1       1.354  -5.189   1.010  0.00  0.00    -0.282 OA
ATOM      8  H   UNL     1      -1.292  -1.880  -0.526  0.00  0.00    +0.150 HD
ENDROOT
BRANCH   1  13
ATOM      9  C   UNL     1      -1.051  -1.065   4.323  0.00  0.00    +0.000 A 
ATOM     10  C   UNL     1      -1.706   0.138   4.131  0.00  0.00    +0.002 A 
ATOM     11  C   UNL     1      -1.690   0.743   2.889  0.00  0.00    +0.033 A 
ATOM     12  C   UNL     1      -1.018   0.146   1.838  0.00  0.00    +0.131 A 
ATOM     13  C   UNL     1      -0.363  -1.055   2.030  0.00  0.00    +0.008 A 
ATOM     14  C   UNL     1      -0.380  -1.662   3.272  0.00  0.00    +0.008 A 
BRANCH  12  15
ATOM     15  N   UNL     1      -1.002   0.794   0.507  0.00  0.00    +0.057 N 
ATOM     16  O   UNL     1      -1.650   1.796   0.315  0.00  0.00    -0.126 OA
ATOM     17  O   UNL     1      -0.340   0.321  -0.388  0.00  0.00    -0.126 OA
ENDBRANCH  12  15
ENDBRANCH   1  13
BRANCH   2  18
ATOM     18  C   UNL     1       2.365  -2.683   2.342  0.00  0.00    +0.195 C 
ATOM     19  O   UNL     1       2.343  -3.289   3.397  0.00  0.00    -0.287 OA
BRANCH  18  20
ATOM     20  C   UNL     1       3.514  -1.812   2.014  0.00  0.00    +0.026 A 
ATOM     21  C   UNL     1       3.609  -1.222   0.751  0.00  0.00    +0.012 A 
ATOM     22  C   UNL     1       4.681  -0.410   0.449  0.00  0.00    +0.004 A 
ATOM     23  C   UNL     1       5.666  -0.177   1.393  0.00  0.00    +0.046 A 
ATOM     24  C   UNL     1       5.581  -0.759   2.650  0.00  0.00    +0.122 A 
ATOM     25  C   UNL     1       4.505  -1.572   2.967  0.00  0.00    +0.057 A 
BRANCH  24  26
ATOM     26  O   UNL     1       6.551  -0.526   3.573  0.00  0.00    -0.487 OA
BRANCH  26  27
ATOM     27  C   UNL     1       7.628   0.327   3.181  0.00  0.00    +0.264 C 
BRANCH  27  28
ATOM     28  C   UNL     1       8.600   0.467   4.324  0.00  0.00    -0.010 A 
ATOM     29  C   UNL     1       8.434   1.479   5.252  0.00  0.00    +0.008 A 
ATOM     30  C   UNL     1       9.325   1.609   6.301  0.00  0.00    +0.020 A 
ATOM     31  C   UNL     1      10.382   0.725   6.423  0.00  0.00    +0.041 A 
ATOM     32  C   UNL     1      10.547  -0.288   5.495  0.00  0.00    +0.020 A 
ATOM     33  C   UNL     1       9.653  -0.420   4.449  0.00  0.00    +0.008 A 
ATOM     34 CL   UNL     1      11.501   0.887   7.740  0.00  0.00    -0.084 Cl
ENDBRANCH  27  28
ENDBRANCH  26  27
ENDBRANCH  24  26
ENDBRANCH  18  20
ENDBRANCH   2  18
TORSDOF 7
