REMARK  Name = ZINC10807422
REMARK  7 active torsions:
REMARK  status: ('A' for Active; 'I' for Inactive)
REMARK    1  A    between atoms: C_3  and  C_9
REMARK    2  A    between atoms: C_6  and  C_7
REMARK    3  A    between atoms: C_9  and  O_11
REMARK    4  A    between atoms: O_11  and  C_12
REMARK    5  A    between atoms: C_12  and  C_13
REMARK    6  A    between atoms: N_15  and  C_16
REMARK    7  A    between atoms: C_19  and  N_23
REMARK                            x       y       z     vdW  Elec       q    Type
REMARK                         _______ _______ _______ _____ _____    ______ ____
ROOT
ATOM      1  C   UNL     1       3.761  -4.829  -0.051  0.00  0.00    +0.255 C 
ATOM      2  O   UNL     1       4.713  -4.078  -0.060  0.00  0.00    -0.272 OA
ATOM      3  N   UNL     1       3.955  -6.163  -0.066  0.00  0.00    -0.281 N 
ATOM      4  H   UNL     1       3.197  -6.764   0.007  0.00  0.00    +0.155 HD
ENDROOT
BRANCH   3   5
ATOM      5  C   UNL     1       5.250  -6.680  -0.186  0.00  0.00    +0.052 A 
ATOM      6  C   UNL     1       6.321  -6.018   0.398  0.00  0.00    +0.027 A 
ATOM      7  C   UNL     1       7.598  -6.531   0.278  0.00  0.00    +0.034 A 
ATOM      8  C   UNL     1       7.811  -7.703  -0.424  0.00  0.00    +0.128 A 
ATOM      9  C   UNL     1       6.747  -8.366  -1.008  0.00  0.00    +0.054 A 
ATOM     10  C   UNL     1       5.466  -7.861  -0.886  0.00  0.00    +0.064 A 
ATOM     11 CL   UNL     1       4.129  -8.697  -1.613  0.00  0.00    -0.082 Cl
BRANCH   8  12
ATOM     12  N   UNL     1       9.181  -8.250  -0.551  0.00  0.00    +0.056 N 
ATOM     13  O   UNL     1      10.119  -7.668  -0.037  0.00  0.00    -0.126 OA
ATOM     14  O   UNL     1       9.369  -9.283  -1.169  0.00  0.00    -0.126 OA
ENDBRANCH   8  12
ENDBRANCH   3   5
BRANCH   1  15
ATOM     15  C   UNL     1       2.361  -4.272  -0.023  0.00  0.00    +0.328 C 
BRANCH  15  16
ATOM     16  O   UNL     1       2.418  -2.821  -0.011  0.00  0.00    -0.452 OA
BRANCH  16  17
ATOM     17  C   UNL     1       1.243  -2.163   0.014  0.00  0.00    +0.340 C 
ATOM     18  O   UNL     1       0.199  -2.784   0.025  0.00  0.00    -0.245 OA
BRANCH  17  21
ATOM     19  C   UNL     1      -0.013   1.374   0.066  0.00  0.00    +0.019 A 
ATOM     20  C   UNL     1       0.005  -0.003   0.053  0.00  0.00    +0.016 A 
ATOM     21  C   UNL     1       1.224  -0.685   0.027  0.00  0.00    +0.059 A 
ATOM     22  C   UNL     1       2.424   0.029   0.015  0.00  0.00    +0.016 A 
ATOM     23  C   UNL     1       2.406   1.406   0.028  0.00  0.00    +0.019 A 
ATOM     24  C   UNL     1       1.187   2.088   0.053  0.00  0.00    +0.052 A 
BRANCH  24  25
ATOM     25  C   UNL     1       1.169   3.520   0.066  0.00  0.00    +0.099 C 
ATOM     26  N   UNL     1       1.154   4.656   0.076  0.00  0.00    -0.191 NA
ENDBRANCH  24  25
ENDBRANCH  17  21
ENDBRANCH  16  17
ENDBRANCH  15  16
ENDBRANCH   1  15
TORSDOF 7
