REMARK  Name = ZINC12648536
REMARK  6 active torsions:
REMARK  status: ('A' for Active; 'I' for Inactive)
REMARK    1  A    between atoms: C_4  and  N_21
REMARK    2  A    between atoms: C_5  and  N_7
REMARK    3  A    between atoms: C_8  and  C_10
REMARK    4  A    between atoms: C_10  and  O_11
REMARK    5  A    between atoms: O_11  and  C_12
REMARK    6  A    between atoms: C_12  and  C_14
REMARK                            x       y       z     vdW  Elec       q    Type
REMARK                         _______ _______ _______ _____ _____    ______ ____
ROOT
ATOM      1  N   UNL     1       4.814   1.554  -0.019  0.00  0.00    -0.281 N 
ATOM      2  C   UNL     1       3.560   2.047  -0.001  0.00  0.00    +0.255 C 
ATOM      3  O   UNL     1       3.380   3.247  -0.007  0.00  0.00    -0.272 OA
ATOM      4  H   UNL     1       4.960   0.598   0.051  0.00  0.00    +0.155 HD
ENDROOT
BRANCH   1   9
ATOM      5  C   UNL     1       6.948   4.526   0.344  0.00  0.00    +0.002 A 
ATOM      6  C   UNL     1       8.063   4.137  -0.375  0.00  0.00    +0.002 A 
ATOM      7  C   UNL     1       8.102   2.893  -0.977  0.00  0.00    +0.034 A 
ATOM      8  C   UNL     1       7.026   2.034  -0.861  0.00  0.00    +0.147 A 
ATOM      9  C   UNL     1       5.905   2.422  -0.139  0.00  0.00    +0.064 A 
ATOM     10  C   UNL     1       5.867   3.675   0.460  0.00  0.00    +0.025 A 
BRANCH   8  11
ATOM     11  N   UNL     1       7.068   0.703  -1.506  0.00  0.00    +0.058 N 
ATOM     12  O   UNL     1       8.087   0.323  -2.054  0.00  0.00    -0.126 OA
ATOM     13  O   UNL     1       6.083  -0.014  -1.488  0.00  0.00    -0.126 OA
ENDBRANCH   8  11
ENDBRANCH   1   9
BRANCH   2  14
ATOM     14  C   UNL     1       2.381   1.109   0.027  0.00  0.00    +0.328 C 
BRANCH  14  15
ATOM     15  O   UNL     1       1.150   1.878   0.043  0.00  0.00    -0.452 OA
BRANCH  15  16
ATOM     16  C   UNL     1      -0.005   1.184   0.069  0.00  0.00    +0.340 C 
ATOM     17  O   UNL     1       0.017  -0.030   0.078  0.00  0.00    -0.245 OA
BRANCH  16  18
ATOM     18  C   UNL     1      -1.296   1.900   0.080  0.00  0.00    +0.059 A 
ATOM     19  C   UNL     1      -1.324   3.297   0.075  0.00  0.00    +0.016 A 
ATOM     20  C   UNL     1      -2.534   3.959   0.079  0.00  0.00    +0.015 A 
ATOM     21  C   UNL     1      -3.719   3.243   0.101  0.00  0.00    +0.013 A 
ATOM     22  C   UNL     1      -3.698   1.859   0.111  0.00  0.00    +0.015 A 
ATOM     23  C   UNL     1      -2.495   1.184   0.101  0.00  0.00    +0.016 A 
ATOM     24  I   UNL     1      -5.551   4.258   0.116  0.00  0.00    -0.044 I 
ENDBRANCH  16  18
ENDBRANCH  15  16
ENDBRANCH  14  15
ENDBRANCH   2  14
TORSDOF 6
