REMARK  Name = ZINC01042776
REMARK  5 active torsions:
REMARK  status: ('A' for Active; 'I' for Inactive)
REMARK    1  A    between atoms: C_3  and  N_21
REMARK    2  A    between atoms: C_5  and  C_6
REMARK    3  A    between atoms: N_7  and  N_8
REMARK    4  A    between atoms: C_9  and  C_11
REMARK    5  A    between atoms: C_11  and  N_12
REMARK                            x       y       z     vdW  Elec       q    Type
REMARK                         _______ _______ _______ _____ _____    ______ ____
ROOT
ATOM      1  N   UNL     1      -1.816  -3.036   0.002  0.00  0.00    -0.205 N 
ATOM      2  C   UNL     1      -1.585  -4.364  -0.007  0.00  0.00    +0.252 C 
ATOM      3  O   UNL     1      -0.450  -4.779  -0.019  0.00  0.00    -0.272 OA
ATOM      4  H   UNL     1      -2.727  -2.703   0.013  0.00  0.00    +0.177 HD
ENDROOT
BRANCH   1   6
ATOM      5  C   UNL     1      -1.057  -0.890   0.007  0.00  0.00    +0.145 C 
ATOM      6  N   UNL     1      -0.827  -2.208  -0.002  0.00  0.00    -0.187 NA
BRANCH   5  11
ATOM      7  C   UNL     1      -0.018   1.479   0.010  0.00  0.00    +0.019 A 
ATOM      8  C   UNL     1       1.174   2.072   0.002  0.00  0.00    +0.041 A 
ATOM      9  C   UNL     1       2.341   1.287  -0.013  0.00  0.00    +0.164 A 
ATOM     10  S   UNL     1       1.754  -0.344  -0.017  0.00  0.00    -0.064 S 
ATOM     11  C   UNL     1       0.002  -0.004   0.002  0.00  0.00    +0.034 A 
BRANCH   9  12
ATOM     12  N   UNL     1       3.762   1.753  -0.025  0.00  0.00    +0.063 N 
ATOM     13  O   UNL     1       4.033   3.042  -0.021  0.00  0.00    -0.126 OA
ATOM     14  O   UNL     1       4.742   0.874  -0.040  0.00  0.00    -0.126 OA
ENDBRANCH   9  12
ENDBRANCH   5  11
ENDBRANCH   1   6
BRANCH   2  15
ATOM     15  C   UNL     1      -2.740  -5.330  -0.001  0.00  0.00    +0.218 C 
BRANCH  15  16
ATOM     16  N   UNL     1      -2.229  -6.703  -0.013  0.00  0.00    -0.341 N 
ATOM     17  C   UNL     1      -2.014  -7.320  -1.202  0.00  0.00    +0.110 A 
ATOM     18  C   UNL     1      -1.537  -8.584  -1.247  0.00  0.00    +0.105 A 
ATOM     19  C   UNL     1      -1.274  -9.268  -0.036  0.00  0.00    +0.218 A 
ATOM     20  O   UNL     1      -0.847 -10.413  -0.046  0.00  0.00    -0.285 OA
ATOM     21  C   UNL     1      -1.515  -8.598   1.187  0.00  0.00    +0.105 A 
ATOM     22  C   UNL     1      -1.987  -7.331   1.164  0.00  0.00    +0.110 A 
ATOM     23 CL   UNL     1      -1.208  -9.393   2.699  0.00  0.00    -0.078 Cl
ATOM     24 CL   UNL     1      -1.258  -9.364  -2.773  0.00  0.00    -0.078 Cl
ENDBRANCH  15  16
ENDBRANCH   2  15
TORSDOF 5
