REMARK  Name = ZINC21011500
REMARK  9 active torsions:
REMARK  status: ('A' for Active; 'I' for Inactive)
REMARK    1  A    between atoms: C_1  and  C_2
REMARK    2  A    between atoms: C_2  and  N_3
REMARK    3  A    between atoms: C_5  and  C_11
REMARK    4  A    between atoms: C_6  and  O_8
REMARK    5  A    between atoms: O_8  and  C_9
REMARK    6  A    between atoms: C_9  and  C_10
REMARK    7  A    between atoms: C_17  and  S_19
REMARK    8  A    between atoms: S_19  and  C_20
REMARK    9  A    between atoms: C_20  and  C_21
REMARK                            x       y       z     vdW  Elec       q    Type
REMARK                         _______ _______ _______ _____ _____    ______ ____
ROOT
ATOM      1  C   UNL     1       2.683  -0.774  -6.628  0.00  0.00    +0.256 C 
ATOM      2  O   UNL     1       3.313  -1.206  -5.681  0.00  0.00    -0.270 OA
ATOM      3  N   UNL     1       1.586  -0.020  -6.421  0.00  0.00    -0.259 N 
ATOM      4  C   UNL     1       1.173   0.266  -5.122  0.00  0.00    +0.189 A 
ATOM      5  N   UNL     1       1.709  -0.102  -3.976  0.00  0.00    -0.125 NA
ATOM      6  N   UNL     1       1.133   0.295  -2.791  0.00  0.00    -0.133 NA
ATOM      7  C   UNL     1       0.045   1.043  -2.809  0.00  0.00    +0.160 A 
ATOM      8  S   UNL     1      -0.230   1.221  -4.565  0.00  0.00    -0.024 S 
ATOM      9  H   UNL     1       1.016   0.370  -7.277  0.00  0.00    +0.157 HD
ENDROOT
BRANCH   1  12
ATOM     10  N   UNL     1       3.220  -1.148 -10.194  0.00  0.00    -0.267 N 
ATOM     11  C   UNL     1       2.506  -0.663  -9.168  0.00  0.00    +0.125 A 
ATOM     12  C   UNL     1       3.120  -1.076  -8.002  0.00  0.00    +0.117 A 
ATOM     13  C   UNL     1       4.246  -1.851  -8.376  0.00  0.00    +0.246 A 
ATOM     14  N   UNL     1       4.294  -1.885  -9.683  0.00  0.00    -0.133 NA
BRANCH  10  16
ATOM     15  C   UNL     1       4.149  -0.355 -12.314  0.00  0.00    +0.029 C 
ATOM     16  C   UNL     1       2.922  -0.946 -11.614  0.00  0.00    +0.140 C 
ENDBRANCH  10  16
BRANCH  13  17
ATOM     17  O   UNL     1       5.121  -2.451  -7.528  0.00  0.00    -0.475 OA
BRANCH  17  18
ATOM     18  C   UNL     1       6.193  -3.189  -8.117  0.00  0.00    +0.227 C 
ATOM     19  C   UNL     1       7.067  -3.789  -7.014  0.00  0.00    +0.048 C 
ENDBRANCH  17  18
ENDBRANCH  13  17
ENDBRANCH   1  12
BRANCH   7  20
ATOM     20  S   UNL     1      -0.890   1.687  -1.462  0.00  0.00    -0.088 S 
BRANCH  20  21
ATOM     21  C   UNL     1      -0.013   1.086   0.008  0.00  0.00    +0.172 C 
BRANCH  21  22
ATOM     22  C   UNL     1      -0.718   1.572   1.248  0.00  0.00    +0.229 C 
ATOM     23  O   UNL     1      -1.715   2.256   1.150  0.00  0.00    -0.275 OA
ATOM     24  N   UNL     1      -0.242   1.246   2.466  0.00  0.00    -0.264 N 
ATOM     25  C   UNL     1      -0.892   1.694   3.609  0.00  0.00    +0.164 A 
ATOM     26  N   UNL     1      -1.973   2.444   3.708  0.00  0.00    -0.233 NA
ATOM     27  C   UNL     1      -2.468   2.778   4.884  0.00  0.00    +0.120 A 
ATOM     28  C   UNL     1      -1.832   2.343   5.999  0.00  0.00    +0.068 A 
ATOM     29  S   UNL     1      -0.486   1.417   5.275  0.00  0.00    -0.061 S 
ATOM     30  H   UNL     1       0.662   0.625   2.555  0.00  0.00    +0.157 HD
ENDBRANCH  21  22
ENDBRANCH  20  21
ENDBRANCH   7  20
TORSDOF 7
