REMARK  Name = ZINC57427905
REMARK  6 active torsions:
REMARK  status: ('A' for Active; 'I' for Inactive)
REMARK    1  A    between atoms: C_1  and  C_2
REMARK    2  A    between atoms: N_4  and  C_5
REMARK    3  A    between atoms: C_8  and  S_11
REMARK    4  A    between atoms: S_11  and  O_14
REMARK    5  A    between atoms: O_14  and  C_15
REMARK    6  A    between atoms: C_18  and  N_22
REMARK                            x       y       z     vdW  Elec       q    Type
REMARK                         _______ _______ _______ _____ _____    ______ ____
ROOT
ATOM      1  S   UNL     1      -0.840  -6.603   0.357  0.00  0.00    +0.151 S 
ATOM      2  O   UNL     1      -2.038  -7.108  -0.216  0.00  0.00    -0.131 OA
ATOM      3  O   UNL     1       0.447  -6.970  -0.121  0.00  0.00    -0.131 OA
ENDROOT
BRANCH   1   7
ATOM      4  C   UNL     1      -1.081  -2.089   0.091  0.00  0.00    +0.033 A 
ATOM      5  C   UNL     1       0.155  -2.716   0.178  0.00  0.00    +0.025 A 
ATOM      6  C   UNL     1       0.225  -4.092   0.259  0.00  0.00    +0.032 A 
ATOM      7  C   UNL     1      -0.934  -4.847   0.254  0.00  0.00    +0.128 A 
ATOM      8  C   UNL     1      -2.166  -4.226   0.168  0.00  0.00    +0.032 A 
ATOM      9  C   UNL     1      -2.244  -2.849   0.093  0.00  0.00    +0.025 A 
BRANCH   4  13
ATOM     10  C   UNL     1      -2.194   1.470   0.609  0.00  0.00    +0.109 C 
ATOM     11  C   UNL     1      -2.169  -0.037   0.608  0.00  0.00    +0.214 C 
ATOM     12  O   UNL     1      -3.061  -0.658   1.145  0.00  0.00    -0.276 OA
ATOM     13  N   UNL     1      -1.156  -0.694   0.009  0.00  0.00    -0.286 N 
ATOM     14  H   UNL     1      -0.478  -0.200  -0.478  0.00  0.00    +0.155 HD
ENDBRANCH   4  13
ENDBRANCH   1   7
BRANCH   1  15
ATOM     15  O   UNL     1      -0.875  -6.970   1.834  0.00  0.00    -0.341 OA
BRANCH  15  16
ATOM     16  C   UNL     1      -2.105  -6.858   2.402  0.00  0.00    +0.175 A 
ATOM     17  C   UNL     1      -2.499  -5.658   2.976  0.00  0.00    +0.052 A 
ATOM     18  C   UNL     1      -3.750  -5.547   3.552  0.00  0.00    +0.036 A 
ATOM     19  C   UNL     1      -4.609  -6.630   3.557  0.00  0.00    +0.128 A 
ATOM     20  C   UNL     1      -4.220  -7.827   2.986  0.00  0.00    +0.056 A 
ATOM     21  C   UNL     1      -2.971  -7.943   2.403  0.00  0.00    +0.088 A 
ATOM     22 CL   UNL     1      -2.485  -9.444   1.680  0.00  0.00    -0.080 Cl
BRANCH  19  23
ATOM     23  N   UNL     1      -5.948  -6.508   4.176  0.00  0.00    +0.056 N 
ATOM     24  O   UNL     1      -6.290  -5.461   4.676  0.00  0.00    -0.126 OA
ATOM     25  O   UNL     1      -6.701  -7.454   4.181  0.00  0.00    -0.126 OA
ENDBRANCH  19  23
ENDBRANCH  15  16
ENDBRANCH   1  15
TORSDOF 5
