REMARK  Name = ZINC09124515
REMARK  12 active torsions:
REMARK  status: ('A' for Active; 'I' for Inactive)
REMARK    1  A    between atoms: C_1  and  N_2
REMARK    2  A    between atoms: N_7  and  C_10
REMARK    3  A    between atoms: N_11  and  C_29
REMARK    4  A    between atoms: C_12  and  C_14
REMARK    5  A    between atoms: C_14  and  N_62
REMARK    6  A    between atoms: C_15  and  C_16
REMARK    7  A    between atoms: C_15  and  N_62
REMARK    8  A    between atoms: C_22  and  C_23
REMARK    9  A    between atoms: C_22  and  N_62
REMARK   10  A    between atoms: C_29  and  C_30
REMARK   11  A    between atoms: C_30  and  C_31
REMARK   12  A    between atoms: C_31  and  O_32
REMARK                            x       y       z     vdW  Elec       q    Type
REMARK                         _______ _______ _______ _____ _____    ______ ____
ROOT
ATOM      1  C   UNL     1      -1.655   3.184   5.946  0.00  0.00    +0.155 C 
ATOM      2  N   UNL     1      -0.700   3.229   4.835  0.00  0.00    -0.280 N 
ATOM      3  C   UNL     1      -0.833   2.350   3.772  0.00  0.00    +0.168 A 
ATOM      4  C   UNL     1       0.087   2.409   2.734  0.00  0.00    +0.152 A 
ATOM      5  C   UNL     1       1.130   3.359   2.792  0.00  0.00    +0.282 A 
ATOM      6  O   UNL     1       1.948   3.433   1.893  0.00  0.00    -0.265 OA
ATOM      7  N   UNL     1       1.209   4.186   3.856  0.00  0.00    -0.262 N 
ATOM      8  C   UNL     1       0.313   4.115   4.856  0.00  0.00    +0.333 A 
ATOM      9  O   UNL     1       0.416   4.877   5.798  0.00  0.00    -0.246 OA
ATOM     10  C   UNL     1       2.288   5.174   3.923  0.00  0.00    +0.157 C 
ATOM     11  N   UNL     1      -0.288   1.437   1.829  0.00  0.00    -0.323 N 
ATOM     12  C   UNL     1      -1.383   0.833   2.331  0.00  0.00    +0.096 A 
ATOM     13  N   UNL     1      -1.699   1.377   3.479  0.00  0.00    -0.216 NA
ENDROOT
BRANCH  12  14
ATOM     14  C   UNL     1      -2.129  -0.298   1.672  0.00  0.00    -0.002 C 
BRANCH  14  15
ATOM     15  N   UNL     1      -1.610  -1.579   2.195  0.00  0.00    +0.390 N 
ATOM     16  H   UNL     1      -0.585  -1.570   2.143  0.00  0.00    -0.080 HD
BRANCH  15  17
ATOM     17  C   UNL     1      -2.017  -1.751   3.606  0.00  0.00    -0.042 C 
BRANCH  17  18
ATOM     18  C   UNL     1      -1.298  -2.945   4.177  0.00  0.00    -0.064 A 
ATOM     19  C   UNL     1      -1.880  -4.198   4.115  0.00  0.00    +0.002 A 
ATOM     20  C   UNL     1      -1.218  -5.294   4.635  0.00  0.00    +0.000 A 
ATOM     21  C   UNL     1       0.021  -5.137   5.226  0.00  0.00    +0.000 A 
ATOM     22  C   UNL     1       0.601  -3.884   5.294  0.00  0.00    +0.000 A 
ATOM     23  C   UNL     1      -0.059  -2.788   4.769  0.00  0.00    +0.002 A 
ENDBRANCH  17  18
ENDBRANCH  15  17
BRANCH  15  24
ATOM     24  C   UNL     1      -2.123  -2.702   1.382  0.00  0.00    -0.042 C 
BRANCH  24  25
ATOM     25  C   UNL     1      -1.412  -2.701   0.053  0.00  0.00    -0.064 A 
ATOM     26  C   UNL     1      -2.008  -2.115  -1.049  0.00  0.00    +0.002 A 
ATOM     27  C   UNL     1      -1.353  -2.109  -2.267  0.00  0.00    +0.000 A 
ATOM     28  C   UNL     1      -0.109  -2.699  -2.385  0.00  0.00    +0.000 A 
ATOM     29  C   UNL     1       0.484  -3.290  -1.285  0.00  0.00    +0.000 A 
ATOM     30  C   UNL     1      -0.168  -3.290  -0.066  0.00  0.00    +0.002 A 
ENDBRANCH  24  25
ENDBRANCH  15  24
ENDBRANCH  14  15
ENDBRANCH  12  14
BRANCH  11  31
ATOM     31  C   UNL     1       0.380   1.119   0.564  0.00  0.00    +0.126 C 
BRANCH  31  32
ATOM     32  C   UNL     1      -0.262   1.924  -0.568  0.00  0.00    +0.049 C 
BRANCH  32  33
ATOM     33  C   UNL     1       0.436   1.592  -1.889  0.00  0.00    +0.157 C 
BRANCH  33  34
ATOM     34  O   UNL     1      -0.164   2.343  -2.946  0.00  0.00    -0.395 OA
ATOM     35  H   UNL     1       0.230   2.182  -3.815  0.00  0.00    +0.209 HD
ENDBRANCH  33  34
ENDBRANCH  32  33
ENDBRANCH  31  32
ENDBRANCH  11  31
TORSDOF 10
