REMARK  Name = ZINC43221282
REMARK  6 active torsions:
REMARK  status: ('A' for Active; 'I' for Inactive)
REMARK    1  A    between atoms: C_4  and  C_7
REMARK    2  A    between atoms: C_7  and  C_8
REMARK    3  A    between atoms: C_8  and  C_39
REMARK    4  A    between atoms: C_13  and  C_16
REMARK    5  A    between atoms: N_27  and  C_30
REMARK    6  A    between atoms: C_34  and  N_36
REMARK                            x       y       z     vdW  Elec       q    Type
REMARK                         _______ _______ _______ _____ _____    ______ ____
ROOT
ATOM      1  C   UNL     1       4.223  -0.934   1.361  0.00  0.00    +0.138 C 
ATOM      2  C   UNL     1       5.506  -1.790   1.409  0.00  0.00    +0.121 C 
ATOM      3  C   UNL     1       5.306  -2.741   2.619  0.00  0.00    +0.114 C 
ATOM      4  C   UNL     1       3.927  -2.359   3.198  0.00  0.00    +0.134 C 
ATOM      5  N   UNL     1       3.195  -1.758   2.046  0.00  0.00    -0.291 NA
ATOM      6  C   UNL     1       5.231  -4.109   1.980  0.00  0.00    +0.232 C 
ATOM      7  O   UNL     1       5.077  -5.153   2.576  0.00  0.00    -0.274 OA
ATOM      8  N   UNL     1       5.362  -3.987   0.654  0.00  0.00    -0.210 N 
ATOM      9  C   UNL     1       5.530  -2.718   0.216  0.00  0.00    +0.232 C 
ATOM     10  O   UNL     1       5.674  -2.373  -0.938  0.00  0.00    -0.274 OA
ATOM     11  H   UNL     1       2.429  -1.186   2.369  0.00  0.00    +0.124 HD
ENDROOT
BRANCH   4  12
ATOM     12  C   UNL     1       3.202  -3.589   3.681  0.00  0.00    +0.124 A 
ATOM     13  C   UNL     1       3.125  -3.982   4.959  0.00  0.00    +0.055 A 
ATOM     14  C   UNL     1       2.330  -5.216   4.961  0.00  0.00    +0.020 A 
ATOM     15  C   UNL     1       1.900  -6.097   5.952  0.00  0.00    +0.011 A 
ATOM     16  C   UNL     1       1.150  -7.188   5.610  0.00  0.00    +0.001 A 
ATOM     17  C   UNL     1       0.816  -7.423   4.284  0.00  0.00    +0.004 A 
ATOM     18  C   UNL     1       1.232  -6.563   3.291  0.00  0.00    +0.047 A 
ATOM     19  C   UNL     1       1.995  -5.448   3.617  0.00  0.00    +0.135 A 
ATOM     20  O   UNL     1       2.533  -4.448   2.891  0.00  0.00    -0.458 OA
ENDBRANCH   4  12
BRANCH   8  21
ATOM     21  C   UNL     1       5.335  -5.088  -0.215  0.00  0.00    +0.046 A 
ATOM     22  C   UNL     1       4.286  -5.240  -1.111  0.00  0.00    +0.024 A 
ATOM     23  C   UNL     1       4.262  -6.325  -1.965  0.00  0.00    +0.004 A 
ATOM     24  C   UNL     1       5.282  -7.258  -1.929  0.00  0.00    +0.033 A 
ATOM     25  C   UNL     1       6.328  -7.109  -1.037  0.00  0.00    +0.128 A 
ATOM     26  C   UNL     1       6.361  -6.023  -0.184  0.00  0.00    +0.056 A 
BRANCH  25  27
ATOM     27  N   UNL     1       7.418  -8.110  -1.001  0.00  0.00    +0.056 N 
ATOM     28  O   UNL     1       7.392  -9.058  -1.751  0.00  0.00    -0.126 OA
ATOM     29  O   UNL     1       8.332  -7.980  -0.222  0.00  0.00    -0.126 OA
ENDBRANCH  25  27
ENDBRANCH   8  21
BRANCH   1  30
ATOM     30  C   UNL     1       4.428   0.366   2.094  0.00  0.00    +0.377 C 
ATOM     31  O   UNL     1       3.746   0.630   3.070  0.00  0.00    -0.244 OA
ATOM     32  O   UNL     1       5.276   1.154   1.712  0.00  0.00    -0.244 OA
ENDBRANCH   1  30
BRANCH   1  33
ATOM     33  C   UNL     1       3.814  -0.669  -0.089  0.00  0.00    +0.069 C 
BRANCH  33  37
ATOM     34  C   UNL     1       0.138   1.507  -0.158  0.00  0.00    +0.000 A 
ATOM     35  C   UNL     1       1.342   2.185  -0.129  0.00  0.00    +0.000 A 
ATOM     36  C   UNL     1       2.532   1.481  -0.107  0.00  0.00    +0.004 A 
ATOM     37  C   UNL     1       2.517   0.099  -0.113  0.00  0.00    -0.045 A 
ATOM     38  C   UNL     1       1.313  -0.580  -0.141  0.00  0.00    +0.004 A 
ATOM     39  C   UNL     1       0.123   0.124  -0.165  0.00  0.00    +0.000 A 
ENDBRANCH  33  37
ENDBRANCH   1  33
TORSDOF 6
