REMARK  Name = ZINC21365765
REMARK  3 active torsions:
REMARK  status: ('A' for Active; 'I' for Inactive)
REMARK    1  A    between atoms: C_4  and  C_7
REMARK    2  A    between atoms: C_13  and  C_18
REMARK    3  A    between atoms: C_20  and  C_23
REMARK                            x       y       z     vdW  Elec       q    Type
REMARK                         _______ _______ _______ _____ _____    ______ ____
ROOT
ATOM      1  C   UNL     1      -3.650   1.549  -0.496  0.00  0.00    +0.032 C 
ATOM      2  C   UNL     1      -2.455   0.771   0.047  0.00  0.00    +0.062 C 
ATOM      3  C   UNL     1      -1.200   1.605   0.017  0.00  0.00    +0.030 A 
ATOM      4  C   UNL     1      -1.253   2.987   0.021  0.00  0.00    +0.037 A 
ATOM      5  C   UNL     1      -0.064   3.754   0.017  0.00  0.00    +0.029 A 
ATOM      6  C   UNL     1       1.155   3.099   0.006  0.00  0.00    +0.072 A 
ATOM      7  C   UNL     1       1.154   1.634  -0.000  0.00  0.00    +0.259 A 
ATOM      8  O   UNL     1       2.208   1.023  -0.012  0.00  0.00    -0.267 OA
ATOM      9  N   UNL     1      -0.011   0.966   0.007  0.00  0.00    -0.325 N 
ATOM     10  H   UNL     1       0.022  -0.134   0.006  0.00  0.00    +0.169 HD
ATOM     11  C   UNL     1      -2.550   3.683   0.019  0.00  0.00    +0.165 C 
ATOM     12  O   UNL     1      -2.620   4.876  -0.189  0.00  0.00    -0.292 OA
ATOM     13  C   UNL     1      -3.795   2.862   0.286  0.00  0.00    +0.088 C 
ENDROOT
BRANCH   1  17
ATOM     14  C   UNL     1      -7.199  -0.783  -0.038  0.00  0.00    +0.000 A 
ATOM     15  C   UNL     1      -6.796  -0.378  -1.296  0.00  0.00    +0.000 A 
ATOM     16  C   UNL     1      -5.647   0.377  -1.445  0.00  0.00    +0.004 A 
ATOM     17  C   UNL     1      -4.902   0.727  -0.334  0.00  0.00    -0.044 A 
ATOM     18  C   UNL     1      -5.303   0.318   0.924  0.00  0.00    +0.004 A 
ATOM     19  C   UNL     1      -6.454  -0.433   1.073  0.00  0.00    +0.000 A 
ENDBRANCH   1  17
BRANCH   6  20
ATOM     20  C   UNL     1       2.421   3.856   0.002  0.00  0.00    +0.114 A 
ATOM     21  N   UNL     1       3.667   3.405  -0.007  0.00  0.00    -0.239 NA
ATOM     22  C   UNL     1       4.695   4.234  -0.009  0.00  0.00    +0.079 A 
ATOM     23  C   UNL     1       4.470   5.585  -0.002  0.00  0.00    +0.075 A 
ATOM     24  S   UNL     1       2.682   5.624   0.000  0.00  0.00    -0.075 S 
BRANCH  22  25
ATOM     25  C   UNL     1       6.082   3.706  -0.020  0.00  0.00    +0.005 A 
ATOM     26  C   UNL     1       7.163   4.585  -0.029  0.00  0.00    +0.014 A 
ATOM     27  C   UNL     1       8.453   4.094  -0.034  0.00  0.00    +0.050 A 
ATOM     28  C   UNL     1       8.677   2.725  -0.040  0.00  0.00    +0.166 A 
ATOM     29  C   UNL     1       7.599   1.842  -0.037  0.00  0.00    +0.167 A 
ATOM     30  C   UNL     1       6.305   2.331  -0.027  0.00  0.00    +0.059 A 
ATOM     31  O   UNL     1       8.082   0.565  -0.045  0.00  0.00    -0.453 OA
ATOM     32  C   UNL     1       9.460   0.672   0.360  0.00  0.00    +0.466 C 
ATOM     33  O   UNL     1       9.834   2.001  -0.050  0.00  0.00    -0.453 OA
ENDBRANCH  22  25
ENDBRANCH   6  20
TORSDOF 3
