REMARK  Name = ZINC09703028
REMARK  9 active torsions:
REMARK  status: ('A' for Active; 'I' for Inactive)
REMARK    1  A    between atoms: C_1  and  C_2
REMARK    2  A    between atoms: C_2  and  C_4
REMARK    3  A    between atoms: C_2  and  O_16
REMARK    4  A    between atoms: N_6  and  C_7
REMARK    5  A    between atoms: O_16  and  C_17
REMARK    6  A    between atoms: C_17  and  C_19
REMARK    7  A    between atoms: C_24  and  C_25
REMARK    8  A    between atoms: N_27  and  C_28
REMARK    9  A    between atoms: N_27  and  C_29
REMARK                            x       y       z     vdW  Elec       q    Type
REMARK                         _______ _______ _______ _____ _____    ______ ____
ROOT
ATOM      1  C   UNL     1      -1.823  -0.284  -0.078  0.00  0.00    +0.341 C 
ATOM      2  O   UNL     1      -0.651  -0.568   0.070  0.00  0.00    -0.245 OA
ENDROOT
BRANCH   1   3
ATOM      3  C   UNL     1      -2.245   1.132  -0.084  0.00  0.00    +0.071 A 
ATOM      4  C   UNL     1      -3.596   1.460  -0.172  0.00  0.00    +0.016 A 
ATOM      5  C   UNL     1      -3.986   2.786  -0.181  0.00  0.00    +0.001 A 
ATOM      6  C   UNL     1      -3.042   3.794  -0.100  0.00  0.00    +0.001 A 
ATOM      7  C   UNL     1      -1.697   3.487  -0.007  0.00  0.00    +0.014 A 
ATOM      8  C   UNL     1      -1.286   2.158   0.005  0.00  0.00    +0.051 A 
BRANCH   8   9
ATOM      9  C   UNL     1       0.152   1.825   0.103  0.00  0.00    +0.251 C 
ATOM     10  O   UNL     1       0.552   1.119   1.009  0.00  0.00    -0.270 OA
ATOM     11  N   UNL     1       1.018   2.299  -0.814  0.00  0.00    -0.270 N 
ATOM     12  C   UNL     1       0.523   3.057  -1.966  0.00  0.00    +0.138 C 
BRANCH  11  13
ATOM     13  C   UNL     1       2.389   2.068  -0.666  0.00  0.00    +0.036 A 
ATOM     14  C   UNL     1       2.849   1.223   0.336  0.00  0.00    +0.023 A 
ATOM     15  C   UNL     1       4.203   0.992   0.475  0.00  0.00    +0.002 A 
ATOM     16  C   UNL     1       5.103   1.611  -0.374  0.00  0.00    +0.000 A 
ATOM     17  C   UNL     1       4.649   2.457  -1.369  0.00  0.00    +0.002 A 
ATOM     18  C   UNL     1       3.295   2.688  -1.517  0.00  0.00    +0.023 A 
ENDBRANCH  11  13
ENDBRANCH   8   9
ENDBRANCH   1   3
BRANCH   1  19
ATOM     19  O   UNL     1      -2.737  -1.261  -0.238  0.00  0.00    -0.449 OA
BRANCH  19  21
ATOM     20  C   UNL     1      -2.273  -3.162   1.211  0.00  0.00    +0.062 C 
ATOM     21  C   UNL     1      -2.250  -2.629  -0.223  0.00  0.00    +0.259 C 
BRANCH  21  22
ATOM     22  C   UNL     1      -3.134  -3.486  -1.092  0.00  0.00    +0.258 C 
ATOM     23  O   UNL     1      -4.081  -2.993  -1.667  0.00  0.00    -0.271 OA
ATOM     24  N   UNL     1      -2.872  -4.801  -1.229  0.00  0.00    -0.282 N 
ATOM     25  H   UNL     1      -2.162  -5.211  -0.711  0.00  0.00    +0.155 HD
BRANCH  24  26
ATOM     26  C   UNL     1      -3.626  -5.576  -2.119  0.00  0.00    +0.037 A 
ATOM     27  C   UNL     1      -3.905  -6.903  -1.821  0.00  0.00    +0.027 A 
ATOM     28  C   UNL     1      -4.652  -7.668  -2.696  0.00  0.00    +0.051 A 
ATOM     29  C   UNL     1      -5.117  -7.116  -3.879  0.00  0.00    +0.166 A 
ATOM     30  C   UNL     1      -4.834  -5.787  -4.184  0.00  0.00    +0.168 A 
ATOM     31  C   UNL     1      -4.089  -5.020  -3.304  0.00  0.00    +0.072 A 
ATOM     32  O   UNL     1      -5.397  -5.487  -5.391  0.00  0.00    -0.453 OA
ATOM     33  C   UNL     1      -5.678  -6.755  -6.011  0.00  0.00    +0.466 C 
ATOM     34  O   UNL     1      -5.858  -7.648  -4.896  0.00  0.00    -0.453 OA
ENDBRANCH  24  26
ENDBRANCH  21  22
ENDBRANCH  19  21
ENDBRANCH   1  19
TORSDOF 7
