REMARK  Name = ZINC14273342
REMARK  7 active torsions:
REMARK  status: ('A' for Active; 'I' for Inactive)
REMARK    1  A    between atoms: C_1  and  C_2
REMARK    2  A    between atoms: C_9  and  N_14
REMARK    3  A    between atoms: C_10  and  C_11
REMARK    4  A    between atoms: C_15  and  C_17
REMARK    5  A    between atoms: C_18  and  C_19
REMARK    6  A    between atoms: C_24  and  O_25
REMARK    7  A    between atoms: O_25  and  C_26
REMARK                            x       y       z     vdW  Elec       q    Type
REMARK                         _______ _______ _______ _____ _____    ______ ____
ROOT
ATOM      1  C   UNL     1      -0.019   1.526   0.010  0.00  0.00    +0.008 C 
ATOM      2  C   UNL     1       0.002  -0.004   0.002  0.00  0.00    -0.009 C 
ATOM      3  C   UNL     1       0.742  -0.514   1.242  0.00  0.00    +0.008 C 
ATOM      4  C   UNL     1       0.556  -2.027   1.373  0.00  0.00    +0.037 C 
ATOM      5  C   UNL     1       0.942  -2.684   0.053  0.00  0.00    -0.023 A 
ATOM      6  C   UNL     1       1.009  -1.966  -1.089  0.00  0.00    -0.004 A 
ATOM      7  S   UNL     1       1.485  -3.133  -2.331  0.00  0.00    -0.077 S 
ATOM      8  C   UNL     1       1.593  -4.557  -1.351  0.00  0.00    +0.085 A 
ATOM      9  C   UNL     1       1.259  -4.096  -0.085  0.00  0.00    +0.068 A 
ATOM     10  C   UNL     1       0.736  -0.502  -1.252  0.00  0.00    +0.046 C 
ENDROOT
BRANCH   9  11
ATOM     11  C   UNL     1       1.226  -4.998   1.070  0.00  0.00    +0.244 C 
ATOM     12  O   UNL     1       0.197  -5.582   1.357  0.00  0.00    -0.270 OA
ATOM     13  N   UNL     1       2.335  -5.182   1.814  0.00  0.00    -0.325 N 
ATOM     14  H   UNL     1       3.155  -4.716   1.585  0.00  0.00    +0.145 HD
ATOM     15  H   UNL     1       2.313  -5.779   2.578  0.00  0.00    +0.145 HD
ENDBRANCH   9  11
BRANCH   8  16
ATOM     16  N   UNL     1       1.932  -5.843  -1.736  0.00  0.00    -0.276 N 
ATOM     17  C   UNL     1       2.230  -6.105  -3.024  0.00  0.00    +0.241 C 
ATOM     18  O   UNL     1       2.201  -5.210  -3.849  0.00  0.00    -0.270 OA
ATOM     19  H   UNL     1       1.955  -6.556  -1.078  0.00  0.00    +0.156 HD
BRANCH  17  20
ATOM     20  C   UNL     1       2.587  -7.463  -3.430  0.00  0.00    +0.068 C 
ATOM     21  C   UNL     1       2.886  -7.724  -4.721  0.00  0.00    +0.016 C 
BRANCH  21  22
ATOM     22  C   UNL     1       3.245  -9.089  -5.130  0.00  0.00    +0.018 A 
ATOM     23  C   UNL     1       3.280 -10.121  -4.185  0.00  0.00    +0.026 A 
ATOM     24  C   UNL     1       3.618 -11.399  -4.576  0.00  0.00    +0.019 A 
ATOM     25  C   UNL     1       3.923 -11.667  -5.902  0.00  0.00    +0.019 A 
ATOM     26  C   UNL     1       3.893 -10.658  -6.844  0.00  0.00    +0.047 A 
ATOM     27  C   UNL     1       3.550  -9.368  -6.472  0.00  0.00    +0.127 A 
ATOM     28 BR   UNL     1       3.665 -12.792  -3.299  0.00  0.00    -0.050 Br
BRANCH  27  29
ATOM     29  O   UNL     1       3.515  -8.377  -7.398  0.00  0.00    -0.495 OA
ATOM     30  C   UNL     1       3.837  -8.735  -8.744  0.00  0.00    +0.277 C 
ENDBRANCH  27  29
ENDBRANCH  21  22
ENDBRANCH  17  20
ENDBRANCH   8  16
TORSDOF 5
