REMARK  Name = ZINC08735971
REMARK  8 active torsions:
REMARK  status: ('A' for Active; 'I' for Inactive)
REMARK    1  A    between atoms: C_4  and  N_7
REMARK    2  A    between atoms: C_8  and  C_10
REMARK    3  A    between atoms: C_15  and  C_16
REMARK    4  A    between atoms: C_15  and  N_62
REMARK    5  A    between atoms: N_18  and  C_19
REMARK    6  A    between atoms: C_24  and  C_25
REMARK    7  A    between atoms: N_27  and  C_28
REMARK    8  A    between atoms: C_28  and  C_29
REMARK                            x       y       z     vdW  Elec       q    Type
REMARK                         _______ _______ _______ _____ _____    ______ ____
ROOT
ATOM      1  C   UNL     1       7.311   8.680   2.221  0.00  0.00    +0.201 C 
ATOM      2  O   UNL     1       6.827   7.950   3.060  0.00  0.00    -0.278 OA
ATOM      3  N   UNL     1       8.442   9.361   2.493  0.00  0.00    -0.286 N 
ATOM      4  H   UNL     1       8.792   9.996   1.849  0.00  0.00    +0.155 HD
ENDROOT
BRANCH   3   5
ATOM      5  C   UNL     1       9.107   9.154   3.699  0.00  0.00    +0.045 A 
ATOM      6  C   UNL     1       8.387   8.898   4.858  0.00  0.00    +0.024 A 
ATOM      7  C   UNL     1       9.048   8.688   6.051  0.00  0.00    +0.002 A 
ATOM      8  C   UNL     1      10.432   8.741   6.105  0.00  0.00    +0.001 A 
ATOM      9  C   UNL     1      11.163   9.000   4.966  0.00  0.00    +0.015 A 
ATOM     10  C   UNL     1      10.508   9.209   3.750  0.00  0.00    +0.058 A 
BRANCH  10  11
ATOM     11  C   UNL     1      11.284   9.487   2.527  0.00  0.00    +0.246 C 
ATOM     12  O   UNL     1      10.709   9.758   1.490  0.00  0.00    -0.270 OA
ATOM     13  N   UNL     1      12.631   9.440   2.558  0.00  0.00    -0.304 N 
ATOM     14  H   UNL     1      13.089   9.223   3.385  0.00  0.00    +0.149 HD
BRANCH  13  15
ATOM     15  C   UNL     1      13.402   9.715   1.343  0.00  0.00    +0.179 C 
BRANCH  15  16
ATOM     16  C   UNL     1      14.874   9.598   1.645  0.00  0.00    +0.122 A 
ATOM     17  C   UNL     1      15.611   8.477   1.543  0.00  0.00    +0.046 A 
ATOM     18  C   UNL     1      16.930   8.819   1.920  0.00  0.00    +0.041 A 
ATOM     19  C   UNL     1      16.920  10.128   2.231  0.00  0.00    +0.195 A 
ATOM     20  O   UNL     1      15.673  10.596   2.057  0.00  0.00    -0.466 OA
ENDBRANCH  15  16
ENDBRANCH  13  15
ENDBRANCH  10  11
ENDBRANCH   3   5
BRANCH   1  21
ATOM     21  C   UNL     1       6.648   8.825   0.876  0.00  0.00    +0.019 C 
BRANCH  21  27
ATOM     22  C   UNL     1       3.637   5.998  -0.228  0.00  0.00    +0.072 C 
ATOM     23  C   UNL     1       4.511   5.728   1.000  0.00  0.00    -0.006 C 
ATOM     24  C   UNL     1       5.790   6.562   0.903  0.00  0.00    -0.077 C 
ATOM     25  C   UNL     1       4.644   8.278  -0.366  0.00  0.00    -0.077 C 
ATOM     26  C   UNL     1       3.330   7.496  -0.307  0.00  0.00    -0.006 C 
ATOM     27  N   UNL     1       5.427   7.994   0.855  0.00  0.00    +0.385 N 
ATOM     28  H   UNL     1       4.856   8.220   1.677  0.00  0.00    -0.081 HD
BRANCH  22  30
ATOM     29  N   UNL     1       2.374   3.880  -0.025  0.00  0.00    -0.285 N 
ATOM     30  C   UNL     1       2.349   5.225  -0.110  0.00  0.00    +0.220 C 
ATOM     31  O   UNL     1       1.288   5.814  -0.090  0.00  0.00    -0.275 OA
ATOM     32  H   UNL     1       3.223   3.415   0.044  0.00  0.00    +0.155 HD
BRANCH  29  36
ATOM     33  C   UNL     1      -1.190   1.724  -0.059  0.00  0.00    +0.000 A 
ATOM     34  C   UNL     1      -1.129   2.965  -0.665  0.00  0.00    +0.002 A 
ATOM     35  C   UNL     1       0.051   3.684  -0.653  0.00  0.00    +0.023 A 
ATOM     36  C   UNL     1       1.178   3.155  -0.038  0.00  0.00    +0.033 A 
ATOM     37  C   UNL     1       1.115   1.906   0.565  0.00  0.00    +0.023 A 
ATOM     38  C   UNL     1      -0.068   1.192   0.550  0.00  0.00    +0.002 A 
ENDBRANCH  29  36
ENDBRANCH  22  30
ENDBRANCH  21  27
ENDBRANCH   1  21
TORSDOF 8
