REMARK  Name = ZINC56875869
REMARK  4 active torsions:
REMARK  status: ('A' for Active; 'I' for Inactive)
REMARK    1  A    between atoms: C_1  and  C_2
REMARK    2  A    between atoms: C_2  and  C_4
REMARK    3  A    between atoms: C_2  and  N_10
REMARK    4  A    between atoms: C_17  and  C_20
REMARK                            x       y       z     vdW  Elec       q    Type
REMARK                         _______ _______ _______ _____ _____    ______ ____
ROOT
ATOM      1  N   UNL     1      -1.372  -0.512   0.013  0.00  0.00    -0.294 N 
ATOM      2  C   UNL     1      -2.052  -0.640  -1.143  0.00  0.00    +0.303 C 
ATOM      3  O   UNL     1      -1.560  -0.251  -2.185  0.00  0.00    -0.253 OA
ATOM      4  N   UNL     1      -3.278  -1.200  -1.146  0.00  0.00    -0.285 N 
ATOM      5  C   UNL     1      -3.937  -1.566   0.116  0.00  0.00    +0.109 C 
ATOM      6  C   UNL     1      -5.324  -0.916   0.154  0.00  0.00    +0.020 C 
ATOM      7  C   UNL     1      -6.104  -1.315  -1.101  0.00  0.00    +0.016 C 
ATOM      8  C   UNL     1      -5.368  -0.809  -2.343  0.00  0.00    +0.093 C 
ATOM      9  C   UNL     1      -3.984  -1.451  -2.410  0.00  0.00    +0.122 C 
ATOM     10  H   UNL     1      -1.792  -0.757   0.852  0.00  0.00    +0.151 HD
ENDROOT
BRANCH   8  11
ATOM     11  C   UNL     1      -6.154  -1.173  -3.577  0.00  0.00    +0.223 C 
ATOM     12  O   UNL     1      -7.200  -1.777  -3.472  0.00  0.00    -0.275 OA
ATOM     13  N   UNL     1      -5.694  -0.826  -4.795  0.00  0.00    -0.270 N 
ATOM     14  C   UNL     1      -6.470  -1.069  -5.928  0.00  0.00    +0.125 A 
ATOM     15  C   UNL     1      -6.038  -0.615  -7.169  0.00  0.00    +0.045 A 
ATOM     16  C   UNL     1      -6.817  -0.862  -8.285  0.00  0.00    +0.025 A 
ATOM     17  C   UNL     1      -8.008  -1.559  -8.121  0.00  0.00    +0.059 A 
ATOM     18  C   UNL     1      -8.376  -1.980  -6.857  0.00  0.00    +0.132 A 
ATOM     19  N   UNL     1      -7.609  -1.734  -5.812  0.00  0.00    -0.239 NA
ATOM     20 CL   UNL     1      -9.024  -1.895  -9.488  0.00  0.00    -0.082 Cl
ATOM     21  H   UNL     1      -4.824  -0.408  -4.884  0.00  0.00    +0.156 HD
ENDBRANCH   8  11
BRANCH   1  23
ATOM     22  C   UNL     1      -0.019   1.525   0.016  0.00  0.00    +0.030 C 
ATOM     23  C   UNL     1       0.002  -0.005   0.002  0.00  0.00    +0.100 C 
BRANCH  23  24
ATOM     24  C   UNL     1       0.744  -0.516   1.239  0.00  0.00    +0.138 C 
ATOM     25  C   UNL     1       0.767  -2.059   1.236  0.00  0.00    +0.035 C 
ATOM     26  C   UNL     1       0.549  -2.395   2.736  0.00  0.00    +0.031 C 
ATOM     27  C   UNL     1      -0.394  -1.241   3.162  0.00  0.00    +0.160 C 
ATOM     28  O   UNL     1       0.061  -0.093   2.425  0.00  0.00    -0.375 OA
ENDBRANCH  23  24
ENDBRANCH   1  23
TORSDOF 3
