REMARK  Name = ZINC12770328
REMARK  10 active torsions:
REMARK  status: ('A' for Active; 'I' for Inactive)
REMARK    1  A    between atoms: C_1  and  C_2
REMARK    2  A    between atoms: C_2  and  C_3
REMARK    3  A    between atoms: C_3  and  C_27
REMARK    4  A    between atoms: N_6  and  N_10
REMARK    5  A    between atoms: C_11  and  C_13
REMARK    6  A    between atoms: C_13  and  S_14
REMARK    7  A    between atoms: S_14  and  C_15
REMARK    8  A    between atoms: C_18  and  C_20
REMARK    9  A    between atoms: C_20  and  C_21
REMARK   10  A    between atoms: C_24  and  C_26
REMARK                            x       y       z     vdW  Elec       q    Type
REMARK                         _______ _______ _______ _____ _____    ______ ____
ROOT
ATOM      1  N   UNL     1      -0.242   1.246   2.466  0.00  0.00    -0.223 N 
ATOM      2  C   UNL     1      -0.718   1.572   1.248  0.00  0.00    +0.240 C 
ATOM      3  O   UNL     1      -1.714   2.256   1.150  0.00  0.00    -0.273 OA
ATOM      4  H   UNL     1       0.555   0.699   2.544  0.00  0.00    +0.174 HD
ENDROOT
BRANCH   1   8
ATOM      5  C   UNL     1      -2.159   1.824   5.519  0.00  0.00    +0.139 C 
ATOM      6  C   UNL     1      -1.666   0.920   4.406  0.00  0.00    +0.268 C 
ATOM      7  O   UNL     1      -1.911  -0.258   4.257  0.00  0.00    -0.271 OA
ATOM      8  N   UNL     1      -0.897   1.698   3.618  0.00  0.00    -0.137 N 
ATOM      9  C   UNL     1      -0.834   2.953   4.076  0.00  0.00    +0.327 C 
ATOM     10  O   UNL     1      -0.198   3.837   3.537  0.00  0.00    -0.251 OA
ATOM     11  N   UNL     1      -1.555   3.129   5.198  0.00  0.00    -0.280 N 
ATOM     12  H   UNL     1      -1.655   3.953   5.700  0.00  0.00    +0.152 HD
BRANCH   5  13
ATOM     13  C   UNL     1      -1.678   1.328   6.858  0.00  0.00    -0.015 A 
ATOM     14  C   UNL     1      -2.454   0.447   7.588  0.00  0.00    +0.006 A 
ATOM     15  C   UNL     1      -2.010  -0.012   8.814  0.00  0.00    +0.000 A 
ATOM     16  C   UNL     1      -0.796   0.419   9.315  0.00  0.00    +0.000 A 
ATOM     17  C   UNL     1      -0.023   1.304   8.588  0.00  0.00    +0.000 A 
ATOM     18  C   UNL     1      -0.464   1.759   7.359  0.00  0.00    +0.006 A 
ENDBRANCH   5  13
BRANCH   5  20
ATOM     19  C   UNL     1      -4.145   2.474   4.148  0.00  0.00    +0.007 C 
ATOM     20  C   UNL     1      -3.686   1.918   5.498  0.00  0.00    +0.037 C 
ENDBRANCH   5  20
ENDBRANCH   1   8
BRANCH   2  21
ATOM     21  C   UNL     1      -0.013   1.086   0.008  0.00  0.00    +0.176 C 
BRANCH  21  22
ATOM     22  S   UNL     1      -0.888   1.685  -1.458  0.00  0.00    -0.056 S 
BRANCH  22  23
ATOM     23  C   UNL     1       0.122   0.990  -2.724  0.00  0.00    +0.278 A 
ATOM     24  N   UNL     1       1.197   0.259  -2.547  0.00  0.00    -0.101 NA
ATOM     25  N   UNL     1       1.675  -0.078  -3.693  0.00  0.00    -0.111 NA
ATOM     26  C   UNL     1       0.938   0.427  -4.638  0.00  0.00    +0.224 A 
ATOM     27  O   UNL     1      -0.062   1.115  -4.051  0.00  0.00    -0.415 OA
BRANCH  26  28
ATOM     28  C   UNL     1       1.161   0.272  -6.120  0.00  0.00    +0.153 C 
BRANCH  28  29
ATOM     29  C   UNL     1       0.431  -0.951  -6.613  0.00  0.00    +0.058 A 
ATOM     30  C   UNL     1      -0.461  -0.865  -7.632  0.00  0.00    +0.070 A 
ATOM     31  S   UNL     1      -0.979  -2.571  -7.760  0.00  0.00    -0.081 S 
ATOM     32  C   UNL     1       0.013  -3.203  -6.483  0.00  0.00    +0.076 A 
ATOM     33  N   UNL     1       0.646  -2.130  -6.068  0.00  0.00    -0.249 NA
ATOM     34  C   UNL     1       0.124  -4.620  -5.983  0.00  0.00    +0.073 C 
ENDBRANCH  28  29
ENDBRANCH  26  28
ENDBRANCH  22  23
ENDBRANCH  21  22
ENDBRANCH   2  21
TORSDOF 8
