REMARK  Name = ZINC59012959
REMARK  7 active torsions:
REMARK  status: ('A' for Active; 'I' for Inactive)
REMARK    1  A    between atoms: C_1  and  C_2
REMARK    2  A    between atoms: C_3  and  C_13
REMARK    3  A    between atoms: C_5  and  C_7
REMARK    4  A    between atoms: C_13  and  N_14
REMARK    5  A    between atoms: C_17  and  C_21
REMARK    6  A    between atoms: C_17  and  C_22
REMARK    7  A    between atoms: C_26  and  N_28
REMARK                            x       y       z     vdW  Elec       q    Type
REMARK                         _______ _______ _______ _____ _____    ______ ____
ROOT
ATOM      1  N   UNL     1      -2.987  -0.233  -1.366  0.00  0.00    -0.218 N 
ATOM      2  C   UNL     1      -2.906   0.910  -2.076  0.00  0.00    +0.251 C 
ATOM      3  O   UNL     1      -2.444   1.969  -1.708  0.00  0.00    -0.272 OA
ATOM      4  C   UNL     1      -3.511   0.597  -3.429  0.00  0.00    +0.135 C 
ATOM      5  N   UNL     1      -3.900  -0.820  -3.315  0.00  0.00    -0.281 N 
ATOM      6  C   UNL     1      -3.550  -1.216  -2.078  0.00  0.00    +0.310 C 
ATOM      7  O   UNL     1      -3.727  -2.341  -1.653  0.00  0.00    -0.252 OA
ATOM      8  C   UNL     1      -4.739   1.473  -3.687  0.00  0.00    +0.047 C 
ATOM      9  H   UNL     1      -4.323  -1.362  -3.999  0.00  0.00    +0.152 HD
ENDROOT
BRANCH   4  10
ATOM     10  C   UNL     1      -2.489   0.779  -4.522  0.00  0.00    -0.013 A 
ATOM     11  C   UNL     1      -1.476   1.708  -4.373  0.00  0.00    +0.006 A 
ATOM     12  C   UNL     1      -0.539   1.875  -5.375  0.00  0.00    +0.003 A 
ATOM     13  C   UNL     1      -0.615   1.114  -6.527  0.00  0.00    +0.033 A 
ATOM     14  C   UNL     1      -1.627   0.184  -6.675  0.00  0.00    +0.127 A 
ATOM     15  C   UNL     1      -2.562   0.014  -5.671  0.00  0.00    +0.039 A 
BRANCH  14  16
ATOM     16  N   UNL     1      -1.709  -0.630  -7.908  0.00  0.00    +0.056 N 
ATOM     17  O   UNL     1      -0.890  -0.483  -8.785  0.00  0.00    -0.126 OA
ATOM     18  O   UNL     1      -2.594  -1.443  -8.038  0.00  0.00    -0.126 OA
ENDBRANCH  14  16
ENDBRANCH   4  10
BRANCH   1  19
ATOM     19  C   UNL     1      -2.513  -0.381   0.012  0.00  0.00    +0.177 C 
BRANCH  19  22
ATOM     20  C   UNL     1      -0.018   1.503   0.010  0.00  0.00    +0.088 C 
ATOM     21  C   UNL     1       0.002  -0.004   0.002  0.00  0.00    +0.127 A 
ATOM     22  C   UNL     1      -1.071  -0.816   0.003  0.00  0.00    +0.101 A 
ATOM     23  N   UNL     1      -0.627  -2.083  -0.006  0.00  0.00    -0.212 NA
ATOM     24  C   UNL     1       0.685  -2.068  -0.012  0.00  0.00    +0.228 A 
ATOM     25  O   UNL     1       1.098  -0.788  -0.013  0.00  0.00    -0.440 OA
BRANCH  24  26
ATOM     26  C   UNL     1       1.562  -3.258  -0.023  0.00  0.00    +0.037 A 
ATOM     27  C   UNL     1       1.006  -4.538  -0.033  0.00  0.00    +0.013 A 
ATOM     28  C   UNL     1       1.830  -5.644  -0.043  0.00  0.00    +0.001 A 
ATOM     29  C   UNL     1       3.204  -5.487  -0.043  0.00  0.00    +0.000 A 
ATOM     30  C   UNL     1       3.762  -4.221  -0.033  0.00  0.00    +0.001 A 
ATOM     31  C   UNL     1       2.949  -3.106  -0.028  0.00  0.00    +0.013 A 
ENDBRANCH  24  26
ENDBRANCH  19  22
ENDBRANCH   1  19
TORSDOF 5
