REMARK  Name = ZINC19351139
REMARK  12 active torsions:
REMARK  status: ('A' for Active; 'I' for Inactive)
REMARK    1  A    between atoms: C_1  and  C_2
REMARK    2  A    between atoms: C_5  and  C_8
REMARK    3  A    between atoms: N_10  and  C_11
REMARK    4  A    between atoms: C_11  and  C_13
REMARK    5  A    between atoms: C_11  and  C_16
REMARK    6  A    between atoms: C_13  and  C_14
REMARK    7  A    between atoms: C_13  and  C_15
REMARK    8  A    between atoms: C_16  and  O_18
REMARK    9  A    between atoms: O_18  and  C_19
REMARK   10  A    between atoms: C_19  and  C_20
REMARK   11  A    between atoms: N_22  and  C_23
REMARK   12  A    between atoms: C_28  and  N_29
REMARK                            x       y       z     vdW  Elec       q    Type
REMARK                         _______ _______ _______ _____ _____    ______ ____
ROOT
ATOM      1  C   UNL     1      -2.879   1.525   2.518  0.00  0.00    +0.328 C 
ATOM      2  O   UNL     1      -3.880   2.194   2.421  0.00  0.00    -0.249 OA
ENDROOT
BRANCH   1   3
ATOM      3  C   UNL     1      -2.170   1.044   1.278  0.00  0.00    +0.185 C 
BRANCH   3   6
ATOM      4  C   UNL     1      -2.779   0.848  -1.073  0.00  0.00    +0.245 C 
ATOM      5  O   UNL     1      -2.088  -0.150  -1.138  0.00  0.00    -0.270 OA
ATOM      6  N   UNL     1      -2.886   1.518   0.091  0.00  0.00    -0.298 N 
ATOM      7  H   UNL     1      -3.512   2.421   0.151  0.00  0.00    +0.150 HD
BRANCH   4  12
ATOM      8  C   UNL     1      -5.595   2.708  -5.734  0.00  0.00    +0.044 C 
ATOM      9  C   UNL     1      -4.858   2.221  -4.513  0.00  0.00    -0.050 A 
ATOM     10  C   UNL     1      -4.071   1.085  -4.591  0.00  0.00    +0.004 A 
ATOM     11  C   UNL     1      -3.393   0.634  -3.478  0.00  0.00    +0.013 A 
ATOM     12  C   UNL     1      -3.502   1.326  -2.271  0.00  0.00    +0.037 A 
ATOM     13  C   UNL     1      -4.301   2.468  -2.197  0.00  0.00    +0.013 A 
ATOM     14  C   UNL     1      -4.970   2.912  -3.320  0.00  0.00    +0.004 A 
ENDBRANCH   4  12
ENDBRANCH   3   6
BRANCH   3  15
ATOM     15  C   UNL     1      -0.741   1.592   1.264  0.00  0.00    +0.014 C 
ATOM     16  C   UNL     1      -0.021   1.104   0.005  0.00  0.00    +0.009 C 
ATOM     17  C   UNL     1       0.007   1.097   2.503  0.00  0.00    +0.009 C 
ENDBRANCH   3  15
ENDBRANCH   1   3
BRANCH   1  18
ATOM     18  O   UNL     1      -2.398   1.209   3.731  0.00  0.00    -0.454 OA
BRANCH  18  19
ATOM     19  C   UNL     1      -3.133   1.705   4.881  0.00  0.00    +0.328 C 
BRANCH  19  20
ATOM     20  C   UNL     1      -2.450   1.254   6.146  0.00  0.00    +0.255 C 
ATOM     21  O   UNL     1      -1.443   0.580   6.085  0.00  0.00    -0.272 OA
ATOM     22  N   UNL     1      -2.958   1.599   7.346  0.00  0.00    -0.281 N 
ATOM     23  H   UNL     1      -3.816   2.285   7.403  0.00  0.00    +0.155 HD
BRANCH  22  24
ATOM     24  C   UNL     1      -2.393   1.086   8.519  0.00  0.00    +0.064 A 
ATOM     25  C   UNL     1      -1.706  -0.121   8.490  0.00  0.00    +0.027 A 
ATOM     26  C   UNL     1      -1.149  -0.625   9.649  0.00  0.00    +0.022 A 
ATOM     27  C   UNL     1      -1.275   0.071  10.838  0.00  0.00    +0.043 A 
ATOM     28  C   UNL     1      -1.958   1.274  10.870  0.00  0.00    +0.054 A 
ATOM     29  C   UNL     1      -2.513   1.785   9.713  0.00  0.00    +0.149 A 
ATOM     30 CL   UNL     1      -0.574  -0.566  12.293  0.00  0.00    -0.083 Cl
BRANCH  29  31
ATOM     31  N   UNL     1      -3.239   3.074   9.746  0.00  0.00    +0.058 N 
ATOM     32  O   UNL     1      -3.267   3.731  10.771  0.00  0.00    -0.126 OA
ATOM     33  O   UNL     1      -3.808   3.479   8.748  0.00  0.00    -0.126 OA
ENDBRANCH  29  31
ENDBRANCH  22  24
ENDBRANCH  19  20
ENDBRANCH  18  19
ENDBRANCH   1  18
TORSDOF 9
