REMARK  Name = ZINC08692231
REMARK  10 active torsions:
REMARK  status: ('A' for Active; 'I' for Inactive)
REMARK    1  A    between atoms: C_1  and  C_2
REMARK    2  A    between atoms: C_2  and  N_3
REMARK    3  A    between atoms: C_9  and  S_16
REMARK    4  A    between atoms: N_13  and  C_14
REMARK    5  A    between atoms: C_14  and  C_15
REMARK    6  A    between atoms: S_16  and  C_17
REMARK    7  A    between atoms: C_17  and  C_18
REMARK    8  A    between atoms: C_22  and  C_31
REMARK    9  A    between atoms: C_27  and  C_29
REMARK   10  A    between atoms: C_27  and  C_30
REMARK                            x       y       z     vdW  Elec       q    Type
REMARK                         _______ _______ _______ _____ _____    ______ ____
ROOT
ATOM      1  N   UNL     1       0.688  -0.476  -1.203  0.00  0.00    -0.314 N 
ATOM      2  C   UNL     1       0.830  -1.831  -1.430  0.00  0.00    +0.221 A 
ATOM      3  N   UNL     1       0.338  -2.688  -0.554  0.00  0.00    -0.177 NA
ATOM      4  C   UNL     1       0.469  -4.010  -0.761  0.00  0.00    +0.262 A 
ATOM      5  N   UNL     1       0.099  -5.083  -0.096  0.00  0.00    -0.107 NA
ATOM      6  N   UNL     1       0.470  -6.140  -0.729  0.00  0.00    -0.120 NA
ATOM      7  C   UNL     1       1.098  -5.815  -1.833  0.00  0.00    +0.200 A 
ATOM      8  N   UNL     1       1.121  -4.449  -1.896  0.00  0.00    -0.226 N 
ATOM      9  C   UNL     1       1.618  -3.533  -2.781  0.00  0.00    +0.207 A 
ATOM     10  N   UNL     1       1.459  -2.246  -2.536  0.00  0.00    -0.182 NA
ATOM     11  N   UNL     1       2.268  -3.946  -3.913  0.00  0.00    -0.315 N 
ATOM     12  H   UNL     1       1.042   0.162  -1.842  0.00  0.00    +0.149 HD
ATOM     13  H   UNL     1       2.378  -4.894  -4.090  0.00  0.00    +0.149 HD
ENDROOT
BRANCH   1  15
ATOM     14  C   UNL     1      -0.019   1.526   0.010  0.00  0.00    +0.024 C 
ATOM     15  C   UNL     1       0.002  -0.004   0.002  0.00  0.00    +0.101 C 
ENDBRANCH   1  15
BRANCH  11  16
ATOM     16  C   UNL     1       2.798  -2.958  -4.856  0.00  0.00    +0.101 C 
ATOM     17  C   UNL     1       3.472  -3.679  -6.025  0.00  0.00    +0.024 C 
ENDBRANCH  11  16
BRANCH   7  18
ATOM     18  S   UNL     1       1.783  -6.929  -3.014  0.00  0.00    -0.076 S 
BRANCH  18  19
ATOM     19  C   UNL     1       1.411  -8.570  -2.337  0.00  0.00    +0.173 C 
BRANCH  19  20
ATOM     20  C   UNL     1       1.949  -9.630  -3.263  0.00  0.00    +0.226 C 
ATOM     21  O   UNL     1       2.527  -9.310  -4.280  0.00  0.00    -0.275 OA
ATOM     22  N   UNL     1       1.789 -10.934  -2.961  0.00  0.00    -0.297 N 
ATOM     23  C   UNL     1       1.100 -11.465  -1.774  0.00  0.00    +0.114 C 
ATOM     24  C   UNL     1       1.228 -13.004  -1.848  0.00  0.00    -0.014 C 
ATOM     25  C   UNL     1       1.329 -13.251  -3.377  0.00  0.00    +0.030 C 
ATOM     26  C   UNL     1       2.260 -12.077  -3.769  0.00  0.00    +0.077 C 
ATOM     27  C   UNL     1       3.673 -12.453  -3.329  0.00  0.00    +0.029 C 
ATOM     28  C   UNL     1       3.786 -12.796  -1.854  0.00  0.00    -0.033 C 
ATOM     29  C   UNL     1       2.557 -13.423  -1.224  0.00  0.00    +0.014 C 
ATOM     30  C   UNL     1       4.204 -11.548  -1.063  0.00  0.00    +0.011 C 
ATOM     31  C   UNL     1       4.946 -13.813  -1.710  0.00  0.00    +0.011 C 
ATOM     32  C   UNL     1       0.024 -13.720  -1.217  0.00  0.00    +0.013 C 
ENDBRANCH  19  20
ENDBRANCH  18  19
ENDBRANCH   7  18
TORSDOF 5
