REMARK  Name = ZINC61795237
REMARK  6 active torsions:
REMARK  status: ('A' for Active; 'I' for Inactive)
REMARK    1  A    between atoms: C_6  and  C_7
REMARK    2  A    between atoms: C_7  and  C_8
REMARK    3  A    between atoms: C_7  and  N_21
REMARK    4  A    between atoms: C_8  and  N_9
REMARK    5  A    between atoms: N_12  and  N_13
REMARK    6  A    between atoms: C_14  and  C_16
REMARK                            x       y       z     vdW  Elec       q    Type
REMARK                         _______ _______ _______ _____ _____    ______ ____
ROOT
ATOM      1  C   UNL     1      -1.659  -1.351   1.379  0.00  0.00    +0.129 C 
ENDROOT
BRANCH   1   2
ATOM      2  N   UNL     1      -2.900  -2.122   1.270  0.00  0.00    -0.296 N 
ATOM      3  C   UNL     1      -3.417  -2.725   2.358  0.00  0.00    +0.316 C 
ATOM      4  O   UNL     1      -2.853  -2.631   3.431  0.00  0.00    -0.251 OA
ATOM      5  N   UNL     1      -4.559  -3.434   2.256  0.00  0.00    -0.218 N 
ATOM      6  H   UNL     1      -3.349  -2.197   0.413  0.00  0.00    +0.150 HD
ATOM      7  H   UNL     1      -4.931  -3.869   3.040  0.00  0.00    +0.174 HD
BRANCH   5   8
ATOM      8  N   UNL     1      -5.208  -3.543   1.020  0.00  0.00    -0.229 N 
ATOM      9  C   UNL     1      -6.350  -4.252   0.919  0.00  0.00    +0.263 C 
ATOM     10  O   UNL     1      -6.817  -4.797   1.901  0.00  0.00    -0.269 OA
ATOM     11  H   UNL     1      -4.836  -3.108   0.237  0.00  0.00    +0.173 HD
BRANCH   9  12
ATOM     12  C   UNL     1      -7.033  -4.367  -0.382  0.00  0.00    +0.076 A 
ATOM     13  C   UNL     1      -8.281  -5.089  -0.670  0.00  0.00    +0.054 A 
ATOM     14  C   UNL     1      -8.514  -4.915  -1.980  0.00  0.00    +0.195 A 
ATOM     15  O   UNL     1      -7.534  -4.163  -2.505  0.00  0.00    -0.470 OA
ATOM     16  C   UNL     1      -6.644  -3.819  -1.569  0.00  0.00    +0.208 A 
ENDBRANCH   9  12
ENDBRANCH   5   8
ENDBRANCH   1   2
BRANCH   1  17
ATOM     17  C   UNL     1      -1.293  -0.775   0.010  0.00  0.00    +0.104 C 
BRANCH  17  23
ATOM     18  C   UNL     1       1.117  -0.731   0.685  0.00  0.00    +0.008 A 
ATOM     19  C   UNL     1       2.344  -0.101   0.764  0.00  0.00    +0.038 A 
ATOM     20  C   UNL     1       2.500   1.176   0.253  0.00  0.00    +0.123 A 
ATOM     21  C   UNL     1       1.426   1.821  -0.336  0.00  0.00    +0.038 A 
ATOM     22  C   UNL     1       0.200   1.189  -0.414  0.00  0.00    +0.008 A 
ATOM     23  C   UNL     1       0.045  -0.086   0.096  0.00  0.00    -0.029 A 
ATOM     24  F   UNL     1       3.700   1.794   0.330  0.00  0.00    -0.205 F 
ENDBRANCH  17  23
BRANCH  17  25
ATOM     25  N   UNL     1      -1.222  -1.861  -0.976  0.00  0.00    -0.290 NA
ATOM     26  C   UNL     1      -0.178  -2.832  -0.616  0.00  0.00    +0.113 C 
ATOM     27  C   UNL     1      -0.179  -3.975  -1.634  0.00  0.00    +0.175 C 
ATOM     28  O   UNL     1       0.009  -3.438  -2.947  0.00  0.00    -0.377 OA
ATOM     29  C   UNL     1      -0.991  -2.490  -3.330  0.00  0.00    +0.175 C 
ATOM     30  C   UNL     1      -0.998  -1.332  -2.329  0.00  0.00    +0.113 C 
ENDBRANCH  17  25
ENDBRANCH   1  17
TORSDOF 6
