REMARK  Name = ZINC36807511
REMARK  14 active torsions:
REMARK  status: ('A' for Active; 'I' for Inactive)
REMARK    1  A    between atoms: C_1  and  C_2
REMARK    2  A    between atoms: C_2  and  C_3
REMARK    3  A    between atoms: C_3  and  N_4
REMARK    4  A    between atoms: C_7  and  S_14
REMARK    5  A    between atoms: C_9  and  C_11
REMARK    6  A    between atoms: C_11  and  C_12
REMARK    7  A    between atoms: C_11  and  C_13
REMARK    8  A    between atoms: S_14  and  C_15
REMARK    9  A    between atoms: C_15  and  C_16
REMARK   10  A    between atoms: N_21  and  C_22
REMARK   11  A    between atoms: C_22  and  C_23
REMARK   12  A    between atoms: C_22  and  C_24
REMARK   13  A    between atoms: C_22  and  C_25
REMARK   14  A    between atoms: N_28  and  C_31
REMARK                            x       y       z     vdW  Elec       q    Type
REMARK                         _______ _______ _______ _____ _____    ______ ____
ROOT
ATOM      1  N   UNL     1       0.738  -1.962  -1.265  0.00  0.00    -0.278 N 
ATOM      2  C   UNL     1       1.787  -2.634  -0.675  0.00  0.00    +0.154 A 
ATOM      3  C   UNL     1       1.785  -4.042  -0.694  0.00  0.00    +0.114 A 
ATOM      4  C   UNL     1       2.852  -4.726  -0.094  0.00  0.00    +0.115 A 
ATOM      5  N   UNL     1       3.823  -4.004   0.469  0.00  0.00    -0.225 NA
ATOM      6  C   UNL     1       3.782  -2.687   0.462  0.00  0.00    +0.135 A 
ATOM      7  N   UNL     1       2.797  -2.005  -0.091  0.00  0.00    -0.214 NA
ATOM      8  C   UNL     1       0.665  -4.733  -1.342  0.00  0.00    +0.268 A 
ATOM      9  O   UNL     1       0.619  -5.947  -1.383  0.00  0.00    -0.267 OA
ATOM     10  N   UNL     1      -0.314  -3.980  -1.891  0.00  0.00    -0.263 N 
ATOM     11  C   UNL     1      -0.270  -2.639  -1.843  0.00  0.00    +0.333 A 
ATOM     12  O   UNL     1      -1.178  -2.009  -2.348  0.00  0.00    -0.246 OA
ATOM     13  C   UNL     1      -1.447  -4.639  -2.546  0.00  0.00    +0.157 C 
ENDROOT
BRANCH   6  14
ATOM     14  C   UNL     1       4.908  -1.928   1.115  0.00  0.00    +0.051 C 
ATOM     15  C   UNL     1       4.989  -2.307   2.595  0.00  0.00    +0.015 C 
ATOM     16  C   UNL     1       6.228  -2.279   0.425  0.00  0.00    +0.015 C 
ENDBRANCH   6  14
BRANCH   1  17
ATOM     17  C   UNL     1       0.718  -0.497  -1.257  0.00  0.00    +0.128 C 
BRANCH  17  19
ATOM     18  C   UNL     1      -0.019   1.526   0.010  0.00  0.00    +0.005 C 
ATOM     19  C   UNL     1       0.002  -0.004   0.002  0.00  0.00    +0.018 C 
ENDBRANCH  17  19
ENDBRANCH   1  17
BRANCH   4  20
ATOM     20  S   UNL     1       2.910  -6.487  -0.084  0.00  0.00    -0.096 S 
BRANCH  20  21
ATOM     21  C   UNL     1       4.452  -6.871   0.791  0.00  0.00    +0.172 C 
BRANCH  21  22
ATOM     22  C   UNL     1       4.625  -8.366   0.871  0.00  0.00    +0.231 C 
ATOM     23  O   UNL     1       3.791  -9.100   0.386  0.00  0.00    -0.274 OA
ATOM     24  N   UNL     1       5.708  -8.887   1.482  0.00  0.00    -0.239 N 
ATOM     25  C   UNL     1       5.863 -10.224   1.554  0.00  0.00    +0.306 C 
ATOM     26  O   UNL     1       5.027 -10.960   1.068  0.00  0.00    -0.252 OA
ATOM     27  N   UNL     1       6.946 -10.745   2.164  0.00  0.00    -0.294 N 
ATOM     28  H   UNL     1       6.376  -8.300   1.870  0.00  0.00    +0.159 HD
ATOM     29  H   UNL     1       7.614 -10.157   2.552  0.00  0.00    +0.151 HD
BRANCH  27  30
ATOM     30  C   UNL     1       7.115 -12.198   2.242  0.00  0.00    +0.028 C 
ATOM     31  C   UNL     1       7.171 -12.781   0.829  0.00  0.00    +0.031 C 
ATOM     32  C   UNL     1       8.415 -12.521   2.980  0.00  0.00    +0.031 C 
ATOM     33  C   UNL     1       5.934 -12.808   2.999  0.00  0.00    +0.031 C 
ENDBRANCH  27  30
ENDBRANCH  21  22
ENDBRANCH  20  21
ENDBRANCH   4  20
TORSDOF 7
