REMARK  Name = ZINC30671528
REMARK  6 active torsions:
REMARK  status: ('A' for Active; 'I' for Inactive)
REMARK    1  A    between atoms: C_1  and  C_2
REMARK    2  A    between atoms: C_3  and  C_22
REMARK    3  A    between atoms: C_8  and  C_10
REMARK    4  A    between atoms: C_10  and  N_11
REMARK    5  A    between atoms: N_27  and  C_28
REMARK    6  A    between atoms: C_28  and  C_29
REMARK                            x       y       z     vdW  Elec       q    Type
REMARK                         _______ _______ _______ _____ _____    ______ ____
ROOT
ATOM      1  C   UNL     1      -1.319   2.126   0.020  0.00  0.00    +0.067 C 
ATOM      2  C   UNL     1      -0.017   1.368   0.010  0.00  0.00    +0.058 A 
ATOM      3  C   UNL     1       0.002  -0.004   0.002  0.00  0.00    +0.081 A 
ATOM      4  S   UNL     1       1.763  -0.310  -0.016  0.00  0.00    -0.049 S 
ATOM      5  C   UNL     1       2.280   1.348  -0.013  0.00  0.00    +0.165 A 
ATOM      6  N   UNL     1       1.133   2.002   0.002  0.00  0.00    -0.229 NA
ATOM      7  N   UNL     1       3.572   1.855  -0.022  0.00  0.00    -0.263 N 
ATOM      8  C   UNL     1       3.772   3.188  -0.017  0.00  0.00    +0.236 C 
ATOM      9  O   UNL     1       2.823   3.944  -0.004  0.00  0.00    -0.274 OA
ATOM     10  H   UNL     1       4.432   1.170  -0.033  0.00  0.00    +0.157 HD
ENDROOT
BRANCH   3  11
ATOM     11  C   UNL     1      -1.118  -0.960   0.007  0.00  0.00    +0.174 A 
ATOM     12  N   UNL     1      -2.387  -0.649   0.026  0.00  0.00    -0.128 NA
ATOM     13  N   UNL     1      -3.125  -1.840   0.021  0.00  0.00    -0.121 NA
ATOM     14  C   UNL     1      -2.246  -2.863   0.007  0.00  0.00    +0.203 A 
ATOM     15  S   UNL     1      -2.636  -4.530   0.003  0.00  0.00    -0.009 SA
ATOM     16  N   UNL     1      -1.005  -2.337  -0.002  0.00  0.00    -0.297 N 
BRANCH  16  17
ATOM     17  C   UNL     1       0.248  -3.095  -0.017  0.00  0.00    +0.152 C 
BRANCH  17  18
ATOM     18  C   UNL     1       0.691  -3.363   1.399  0.00  0.00    -0.013 C 
ATOM     19  C   UNL     1       0.925  -4.591   1.791  0.00  0.00    +0.005 C 
ENDBRANCH  17  18
ENDBRANCH  16  17
ENDBRANCH   3  11
BRANCH   8  20
ATOM     20  C   UNL     1       5.174   3.740  -0.026  0.00  0.00    +0.210 C 
BRANCH  20  21
ATOM     21  N   UNL     1       5.123   5.204  -0.018  0.00  0.00    -0.259 N 
ATOM     22  C   UNL     1       5.106   5.997   1.130  0.00  0.00    +0.038 C 
ATOM     23  C   UNL     1       5.133   5.556   2.391  0.00  0.00    +0.034 C 
ATOM     24  C   UNL     1       5.053   7.408   0.702  0.00  0.00    +0.008 A 
ATOM     25  C   UNL     1       5.017   8.620   1.380  0.00  0.00    +0.010 A 
ATOM     26  C   UNL     1       4.970   9.803   0.668  0.00  0.00    +0.001 A 
ATOM     27  C   UNL     1       4.958   9.789  -0.718  0.00  0.00    +0.001 A 
ATOM     28  C   UNL     1       4.993   8.595  -1.408  0.00  0.00    +0.014 A 
ATOM     29  C   UNL     1       5.041   7.392  -0.707  0.00  0.00    +0.046 A 
ATOM     30  C   UNL     1       5.092   5.980  -1.117  0.00  0.00    +0.252 C 
ATOM     31  O   UNL     1       5.102   5.578  -2.265  0.00  0.00    -0.270 OA
ENDBRANCH  20  21
ENDBRANCH   8  20
TORSDOF 5
