REMARK  Name = ZINC13025105
REMARK  11 active torsions:
REMARK  status: ('A' for Active; 'I' for Inactive)
REMARK    1  A    between atoms: C_1  and  C_2
REMARK    2  A    between atoms: C_2  and  C_3
REMARK    3  A    between atoms: C_2  and  C_4
REMARK    4  A    between atoms: C_4  and  C_6
REMARK    5  A    between atoms: C_4  and  N_8
REMARK    6  A    between atoms: C_18  and  S_19
REMARK    7  A    between atoms: S_19  and  C_20
REMARK    8  A    between atoms: C_20  and  C_21
REMARK    9  A    between atoms: N_23  and  C_24
REMARK   10  A    between atoms: C_29  and  C_30
REMARK   11  A    between atoms: C_30  and  C_32
REMARK                            x       y       z     vdW  Elec       q    Type
REMARK                         _______ _______ _______ _____ _____    ______ ____
ROOT
ATOM      1  N   UNL     1      -1.258  -2.433   0.223  0.00  0.00    -0.273 N 
ATOM      2  C   UNL     1      -1.058  -1.095   0.176  0.00  0.00    +0.263 A 
ATOM      3  O   UNL     1      -1.984  -0.324   0.004  0.00  0.00    -0.267 OA
ATOM      4  C   UNL     1       0.319  -0.608   0.341  0.00  0.00    +0.065 A 
ATOM      5  C   UNL     1       0.628   0.750   0.309  0.00  0.00    +0.015 A 
ATOM      6  C   UNL     1       1.927   1.149   0.469  0.00  0.00    +0.001 A 
ATOM      7  C   UNL     1       2.937   0.216   0.661  0.00  0.00    +0.002 A 
ATOM      8  C   UNL     1       2.662  -1.122   0.697  0.00  0.00    +0.028 A 
ATOM      9  C   UNL     1       1.344  -1.561   0.537  0.00  0.00    +0.079 A 
ATOM     10  N   UNL     1       1.028  -2.871   0.566  0.00  0.00    -0.223 NA
ATOM     11  C   UNL     1      -0.207  -3.283   0.417  0.00  0.00    +0.173 A 
ENDROOT
BRANCH   1  12
ATOM     12  C   UNL     1      -2.611  -2.972   0.064  0.00  0.00    +0.208 C 
BRANCH  12  14
ATOM     13  C   UNL     1      -2.397  -3.013  -2.425  0.00  0.00    +0.010 C 
ATOM     14  C   UNL     1      -3.210  -2.466  -1.250  0.00  0.00    +0.017 C 
ATOM     15  C   UNL     1      -4.659  -2.944  -1.367  0.00  0.00    +0.010 C 
ENDBRANCH  12  14
BRANCH  12  16
ATOM     16  C   UNL     1      -3.471  -2.519   1.215  0.00  0.00    +0.379 C 
ATOM     17  O   UNL     1      -3.002  -1.817   2.080  0.00  0.00    -0.244 OA
ATOM     18  O   UNL     1      -4.758  -2.895   1.280  0.00  0.00    -0.244 OA
ENDBRANCH  12  16
ENDBRANCH   1  12
BRANCH  11  19
ATOM     19  S   UNL     1      -0.527  -5.015   0.469  0.00  0.00    -0.078 S 
BRANCH  19  20
ATOM     20  C   UNL     1       1.152  -5.637   0.737  0.00  0.00    +0.173 C 
BRANCH  20  21
ATOM     21  C   UNL     1       1.123  -7.141   0.817  0.00  0.00    +0.228 C 
ATOM     22  O   UNL     1       0.072  -7.735   0.704  0.00  0.00    -0.275 OA
ATOM     23  N   UNL     1       2.266  -7.827   1.015  0.00  0.00    -0.284 N 
ATOM     24  H   UNL     1       3.117  -7.361   1.020  0.00  0.00    +0.155 HD
BRANCH  23  25
ATOM     25  C   UNL     1       2.226  -9.204   1.212  0.00  0.00    +0.044 A 
ATOM     26  C   UNL     1       1.083  -9.803   1.723  0.00  0.00    +0.024 A 
ATOM     27  C   UNL     1       1.043 -11.170   1.913  0.00  0.00    +0.002 A 
ATOM     28  C   UNL     1       2.144 -11.954   1.606  0.00  0.00    +0.001 A 
ATOM     29  C   UNL     1       3.290 -11.380   1.103  0.00  0.00    +0.013 A 
ATOM     30  C   UNL     1       3.345  -9.996   0.899  0.00  0.00    +0.038 A 
BRANCH  30  31
ATOM     31  C   UNL     1       4.563  -9.376   0.364  0.00  0.00    +0.162 C 
ATOM     32  O   UNL     1       4.640  -8.168   0.276  0.00  0.00    -0.292 OA
ATOM     33  C   UNL     1       5.717 -10.239  -0.076  0.00  0.00    +0.091 C 
ENDBRANCH  30  31
ENDBRANCH  23  25
ENDBRANCH  20  21
ENDBRANCH  19  20
ENDBRANCH  11  19
TORSDOF 8
