REMARK  Name = ZINC39691660
REMARK  9 active torsions:
REMARK  status: ('A' for Active; 'I' for Inactive)
REMARK    1  A    between atoms: C_1  and  C_2
REMARK    2  A    between atoms: C_4  and  C_36
REMARK    3  A    between atoms: C_10  and  C_14
REMARK    4  A    between atoms: C_14  and  S_15
REMARK    5  A    between atoms: S_15  and  C_16
REMARK    6  A    between atoms: C_19  and  C_27
REMARK    7  A    between atoms: N_20  and  C_21
REMARK    8  A    between atoms: C_30  and  O_33
REMARK    9  A    between atoms: O_33  and  C_34
REMARK                            x       y       z     vdW  Elec       q    Type
REMARK                         _______ _______ _______ _____ _____    ______ ____
ROOT
ATOM      1  C   UNL     1      -7.105  -1.074   3.546  0.00  0.00    +0.193 A 
ATOM      2  N   UNL     1      -7.184  -1.746   4.672  0.00  0.00    -0.122 NA
ATOM      3  N   UNL     1      -8.412  -2.008   4.945  0.00  0.00    -0.128 NA
ATOM      4  C   UNL     1      -9.193  -1.520   4.011  0.00  0.00    +0.165 A 
ATOM      5  N   UNL     1      -8.381  -0.902   3.088  0.00  0.00    -0.299 N 
ENDROOT
BRANCH   5   6
ATOM      6  C   UNL     1      -8.797  -0.206   1.867  0.00  0.00    +0.091 C 
ATOM      7  C   UNL     1      -8.277  -0.966   0.645  0.00  0.00    +0.025 C 
ATOM      8  C   UNL     1      -8.711  -0.240  -0.629  0.00  0.00    +0.002 C 
ATOM      9  C   UNL     1      -8.138   1.179  -0.629  0.00  0.00    +0.000 C 
ATOM     10  C   UNL     1      -8.658   1.938   0.593  0.00  0.00    +0.002 C 
ATOM     11  C   UNL     1      -8.223   1.212   1.868  0.00  0.00    +0.025 C 
ENDBRANCH   5   6
BRANCH   4  12
ATOM     12  C   UNL     1     -10.668  -1.611   3.961  0.00  0.00    +0.020 A 
ATOM     13  C   UNL     1     -11.324  -1.679   2.731  0.00  0.00    +0.015 A 
ATOM     14  C   UNL     1     -12.699  -1.765   2.689  0.00  0.00    +0.046 A 
ATOM     15  C   UNL     1     -13.431  -1.784   3.868  0.00  0.00    +0.120 A 
ATOM     16  C   UNL     1     -12.783  -1.718   5.094  0.00  0.00    +0.046 A 
ATOM     17  C   UNL     1     -11.408  -1.637   5.145  0.00  0.00    +0.015 A 
BRANCH  15  18
ATOM     18  O   UNL     1     -14.787  -1.869   3.822  0.00  0.00    -0.495 OA
ATOM     19  C   UNL     1     -15.478  -1.884   5.073  0.00  0.00    +0.277 C 
ENDBRANCH  15  18
ENDBRANCH   4  12
BRANCH   1  20
ATOM     20  S   UNL     1      -5.630  -0.497   2.774  0.00  0.00    -0.078 S 
BRANCH  20  21
ATOM     21  C   UNL     1      -4.307  -1.055   3.882  0.00  0.00    +0.151 C 
BRANCH  21  29
ATOM     22  C   UNL     1      -0.280   3.132   1.167  0.00  0.00    +0.053 C 
ATOM     23  C   UNL     1      -0.225   1.720   0.580  0.00  0.00    +0.191 C 
ATOM     24  C   UNL     1       0.530   0.760   1.530  0.00  0.00    +0.183 C 
ATOM     25  C   UNL     1      -0.604   0.171   2.341  0.00  0.00    +0.096 A 
ATOM     26  H   UNL     1      -1.912  -1.442   4.837  0.00  0.00    +0.170 HD
ATOM     27  C   UNL     1      -1.779   0.462   1.674  0.00  0.00    +0.226 A 
ATOM     28  N   UNL     1      -2.941   0.049   2.214  0.00  0.00    -0.199 NA
ATOM     29  C   UNL     1      -2.974  -0.621   3.331  0.00  0.00    +0.124 A 
ATOM     30  N   UNL     1      -1.853  -0.937   4.010  0.00  0.00    -0.310 N 
ATOM     31  C   UNL     1      -0.648  -0.550   3.536  0.00  0.00    +0.259 A 
ATOM     32  O   UNL     1       0.377  -0.823   4.139  0.00  0.00    -0.267 OA
ATOM     33  O   UNL     1      -1.540   1.141   0.521  0.00  0.00    -0.472 OA
BRANCH  24  34
ATOM     34  C   UNL     1       1.252  -0.311   0.753  0.00  0.00    +0.367 C 
ATOM     35  O   UNL     1       2.368  -0.664   1.094  0.00  0.00    -0.246 OA
ATOM     36  O   UNL     1       0.719  -0.823  -0.217  0.00  0.00    -0.246 OA
ENDBRANCH  24  34
ENDBRANCH  21  29
ENDBRANCH  20  21
ENDBRANCH   1  20
TORSDOF 7
