REMARK  Name = ZINC63745744
REMARK  5 active torsions:
REMARK  status: ('A' for Active; 'I' for Inactive)
REMARK    1  A    between atoms: C_1  and  C_2
REMARK    2  A    between atoms: C_2  and  C_4
REMARK    3  A    between atoms: C_2  and  S_16
REMARK    4  A    between atoms: C_8  and  C_10
REMARK    5  A    between atoms: S_16  and  C_17
REMARK                            x       y       z     vdW  Elec       q    Type
REMARK                         _______ _______ _______ _____ _____    ______ ____
ROOT
ATOM      1  C   UNL     1      -0.019   1.526   0.010  0.00  0.00    +0.024 C 
ATOM      2  C   UNL     1       0.002  -0.004   0.002  0.00  0.00    +0.108 C 
ENDROOT
BRANCH   2   3
ATOM      3  C   UNL     1      -1.433  -0.534   0.013  0.00  0.00    +0.290 C 
ATOM      4  N   UNL     1      -2.154  -0.094  -1.195  0.00  0.00    -0.227 N 
ATOM      5  N   UNL     1      -2.511  -1.273  -1.865  0.00  0.00    -0.146 NA
ATOM      6  C   UNL     1      -2.096  -2.306  -1.210  0.00  0.00    +0.239 C 
ATOM      7  O   UNL     1      -1.441  -1.966  -0.071  0.00  0.00    -0.451 OA
ATOM      8  H   UNL     1      -2.342   0.817  -1.468  0.00  0.00    +0.172 HD
BRANCH   6   9
ATOM      9  C   UNL     1      -2.312  -3.700  -1.649  0.00  0.00    +0.038 A 
ATOM     10  C   UNL     1      -1.834  -4.761  -0.876  0.00  0.00    +0.013 A 
ATOM     11  C   UNL     1      -2.039  -6.060  -1.292  0.00  0.00    +0.001 A 
ATOM     12  C   UNL     1      -2.715  -6.314  -2.472  0.00  0.00    +0.000 A 
ATOM     13  C   UNL     1      -3.191  -5.267  -3.243  0.00  0.00    +0.001 A 
ATOM     14  C   UNL     1      -2.999  -3.963  -2.836  0.00  0.00    +0.013 A 
ENDBRANCH   6   9
ENDBRANCH   2   3
BRANCH   2  15
ATOM     15  S   UNL     1       0.879  -0.605   1.472  0.00  0.00    -0.106 S 
BRANCH  15  16
ATOM     16  C   UNL     1       2.582  -0.025   1.234  0.00  0.00    +0.236 C 
ATOM     17  N   UNL     1       2.601   1.436   1.090  0.00  0.00    -0.355 N 
ATOM     18  C   UNL     1       3.095   1.706  -0.083  0.00  0.00    +0.061 A 
ATOM     19  C   UNL     1       3.360   2.968  -0.788  0.00  0.00    +0.029 A 
ATOM     20  C   UNL     1       3.889   2.940  -2.027  0.00  0.00    +0.022 A 
ATOM     21  C   UNL     1       4.207   1.738  -2.689  0.00  0.00    +0.043 A 
ATOM     22  C   UNL     1       4.004   0.526  -2.131  0.00  0.00    +0.047 A 
ATOM     23  C   UNL     1       3.430   0.436  -0.782  0.00  0.00    +0.062 A 
ATOM     24  N   UNL     1       3.131  -0.573  -0.013  0.00  0.00    -0.355 N 
ATOM     25 CL   UNL     1       4.886   1.819  -4.284  0.00  0.00    -0.083 Cl
ATOM     26  H   UNL     1       2.301   2.081   1.749  0.00  0.00    +0.162 HD
ATOM     27  H   UNL     1       3.249  -1.512  -0.224  0.00  0.00    +0.162 HD
ENDBRANCH  15  16
ENDBRANCH   2  15
TORSDOF 4
