REMARK  Name = ZINC45442233
REMARK  11 active torsions:
REMARK  status: ('A' for Active; 'I' for Inactive)
REMARK    1  A    between atoms: C_1  and  C_2
REMARK    2  A    between atoms: C_2  and  C_3
REMARK    3  A    between atoms: C_3  and  C_29
REMARK    4  A    between atoms: N_6  and  N_10
REMARK    5  A    between atoms: C_11  and  C_13
REMARK    6  A    between atoms: C_13  and  S_14
REMARK    7  A    between atoms: S_14  and  C_15
REMARK    8  A    between atoms: C_18  and  C_23
REMARK    9  A    between atoms: N_19  and  C_20
REMARK   10  A    between atoms: C_20  and  C_21
REMARK   11  A    between atoms: C_27  and  C_28
REMARK                            x       y       z     vdW  Elec       q    Type
REMARK                         _______ _______ _______ _____ _____    ______ ____
ROOT
ATOM      1  N   UNL     1       0.867   1.444   4.353  0.00  0.00    -0.223 N 
ATOM      2  C   UNL     1       1.354   0.920   5.495  0.00  0.00    +0.240 C 
ATOM      3  O   UNL     1       2.002  -0.105   5.464  0.00  0.00    -0.273 OA
ATOM      4  H   UNL     1       0.349   2.264   4.378  0.00  0.00    +0.174 HD
ENDROOT
BRANCH   1   8
ATOM      5  C   UNL     1       0.889  -0.405   1.205  0.00  0.00    +0.139 C 
ATOM      6  C   UNL     1       0.187   0.091   2.454  0.00  0.00    +0.268 C 
ATOM      7  O   UNL     1      -0.963  -0.113   2.777  0.00  0.00    -0.271 OA
ATOM      8  N   UNL     1       1.109   0.805   3.130  0.00  0.00    -0.137 N 
ATOM      9  C   UNL     1       2.283   0.828   2.489  0.00  0.00    +0.327 C 
ATOM     10  O   UNL     1       3.267   1.409   2.902  0.00  0.00    -0.251 OA
ATOM     11  N   UNL     1       2.252   0.137   1.335  0.00  0.00    -0.280 N 
ATOM     12  H   UNL     1       2.985   0.019   0.710  0.00  0.00    +0.152 HD
BRANCH   5  13
ATOM     13  C   UNL     1       0.918  -1.912   1.173  0.00  0.00    -0.015 A 
ATOM     14  C   UNL     1      -0.079  -2.609   0.518  0.00  0.00    +0.006 A 
ATOM     15  C   UNL     1      -0.051  -3.991   0.488  0.00  0.00    +0.000 A 
ATOM     16  C   UNL     1       0.974  -4.675   1.114  0.00  0.00    +0.000 A 
ATOM     17  C   UNL     1       1.971  -3.978   1.769  0.00  0.00    +0.000 A 
ATOM     18  C   UNL     1       1.946  -2.596   1.795  0.00  0.00    +0.006 A 
ENDBRANCH   5  13
BRANCH   5  20
ATOM     19  C   UNL     1       0.254   1.674  -0.026  0.00  0.00    +0.007 C 
ATOM     20  C   UNL     1       0.207   0.144  -0.050  0.00  0.00    +0.037 C 
ENDBRANCH   5  20
ENDBRANCH   1   8
BRANCH   2  21
ATOM     21  C   UNL     1       1.095   1.608   6.811  0.00  0.00    +0.174 C 
BRANCH  21  22
ATOM     22  S   UNL     1       1.874   0.665   8.150  0.00  0.00    -0.077 S 
BRANCH  22  23
ATOM     23  C   UNL     1       1.485   1.586   9.601  0.00  0.00    +0.193 A 
ATOM     24  N   UNL     1       0.782   2.693   9.656  0.00  0.00    -0.122 NA
ATOM     25  N   UNL     1       0.690   3.098  10.873  0.00  0.00    -0.128 NA
ATOM     26  C   UNL     1       1.329   2.274  11.669  0.00  0.00    +0.168 A 
ATOM     27  N   UNL     1       1.854   1.276  10.881  0.00  0.00    -0.298 N 
BRANCH  26  28
ATOM     28  C   UNL     1       1.456   2.392  13.138  0.00  0.00    +0.060 A 
ATOM     29  C   UNL     1       1.257   1.331  14.134  0.00  0.00    +0.053 A 
ATOM     30  C   UNL     1       1.479   1.900  15.330  0.00  0.00    +0.196 A 
ATOM     31  O   UNL     1       1.790   3.192  15.150  0.00  0.00    -0.467 OA
ATOM     32  C   UNL     1       1.788   3.505  13.847  0.00  0.00    +0.112 A 
ATOM     33  C   UNL     1       2.096   4.861  13.265  0.00  0.00    +0.087 C 
ENDBRANCH  26  28
BRANCH  27  34
ATOM     34  C   UNL     1       2.646   0.125  11.321  0.00  0.00    +0.152 C 
BRANCH  34  35
ATOM     35  C   UNL     1       4.100   0.512  11.390  0.00  0.00    -0.013 C 
ATOM     36  C   UNL     1       4.772   0.340  12.502  0.00  0.00    +0.005 C 
ENDBRANCH  34  35
ENDBRANCH  27  34
ENDBRANCH  22  23
ENDBRANCH  21  22
ENDBRANCH   2  21
TORSDOF 9
