REMARK  Name = ZINC07464438
REMARK  9 active torsions:
REMARK  status: ('A' for Active; 'I' for Inactive)
REMARK    1  A    between atoms: C_1  and  C_2
REMARK    2  A    between atoms: C_5  and  O_11
REMARK    3  A    between atoms: C_6  and  N_8
REMARK    4  A    between atoms: O_11  and  C_12
REMARK    5  A    between atoms: C_12  and  C_13
REMARK    6  A    between atoms: N_15  and  C_16
REMARK    7  A    between atoms: N_15  and  C_17
REMARK    8  A    between atoms: C_17  and  C_18
REMARK    9  A    between atoms: N_20  and  C_21
REMARK                            x       y       z     vdW  Elec       q    Type
REMARK                         _______ _______ _______ _____ _____    ______ ____
ROOT
ATOM      1  C   UNL     1       0.087  -6.264  -1.134  0.00  0.00    +0.253 C 
ATOM      2  O   UNL     1       0.107  -6.730  -0.015  0.00  0.00    -0.272 OA
ATOM      3  N   UNL     1       0.084  -7.083  -2.205  0.00  0.00    -0.293 N 
ATOM      4  C   UNL     1       0.061  -6.521  -3.557  0.00  0.00    +0.132 C 
ENDROOT
BRANCH   1   5
ATOM      5  C   UNL     1       0.066  -4.770  -1.329  0.00  0.00    +0.324 C 
BRANCH   5   6
ATOM      6  O   UNL     1       0.073  -4.124  -0.054  0.00  0.00    -0.480 OA
BRANCH   6  11
ATOM      7  C   UNL     1      -0.001   1.508  -0.043  0.00  0.00    +0.044 C 
ATOM      8  C   UNL     1       0.019   0.002  -0.046  0.00  0.00    -0.048 A 
ATOM      9  C   UNL     1       0.014  -0.686  -1.246  0.00  0.00    +0.007 A 
ATOM     10  C   UNL     1       0.032  -2.068  -1.251  0.00  0.00    +0.048 A 
ATOM     11  C   UNL     1       0.056  -2.765  -0.052  0.00  0.00    +0.151 A 
ATOM     12  C   UNL     1       0.061  -2.072   1.150  0.00  0.00    +0.168 A 
ATOM     13  C   UNL     1       0.048  -0.691   1.150  0.00  0.00    +0.039 A 
BRANCH  12  14
ATOM     14  N   UNL     1       0.086  -2.813   2.431  0.00  0.00    +0.060 N 
ATOM     15  O   UNL     1       0.091  -2.209   3.479  0.00  0.00    -0.126 OA
ATOM     16  O   UNL     1       0.101  -4.022   2.431  0.00  0.00    -0.126 OA
ENDBRANCH  12  14
ENDBRANCH   6  11
ENDBRANCH   5   6
ENDBRANCH   1   5
BRANCH   3  17
ATOM     17  C   UNL     1       0.105  -8.536  -2.016  0.00  0.00    +0.203 C 
BRANCH  17  18
ATOM     18  C   UNL     1      -1.308  -9.052  -1.933  0.00  0.00    +0.235 C 
ATOM     19  O   UNL     1      -2.241  -8.282  -2.024  0.00  0.00    -0.274 OA
ATOM     20  N   UNL     1      -1.536 -10.369  -1.759  0.00  0.00    -0.283 N 
ATOM     21  H   UNL     1      -0.793 -10.993  -1.752  0.00  0.00    +0.155 HD
BRANCH  20  22
ATOM     22  C   UNL     1      -2.844 -10.837  -1.589  0.00  0.00    +0.052 A 
ATOM     23  C   UNL     1      -3.895 -10.224  -2.259  0.00  0.00    +0.025 A 
ATOM     24  C   UNL     1      -5.184 -10.688  -2.089  0.00  0.00    +0.002 A 
ATOM     25  C   UNL     1      -5.430 -11.762  -1.253  0.00  0.00    +0.002 A 
ATOM     26  C   UNL     1      -4.387 -12.375  -0.584  0.00  0.00    +0.022 A 
ATOM     27  C   UNL     1      -3.093 -11.919  -0.754  0.00  0.00    +0.062 A 
ATOM     28 CL   UNL     1      -1.782 -12.693   0.080  0.00  0.00    -0.082 Cl
ENDBRANCH  20  22
ENDBRANCH  17  18
ENDBRANCH   3  17
TORSDOF 7
