REMARK  Name = ZINC04949229
REMARK  5 active torsions:
REMARK  status: ('A' for Active; 'I' for Inactive)
REMARK    1  A    between atoms: C_4  and  C_7
REMARK    2  A    between atoms: C_10  and  C_12
REMARK    3  A    between atoms: N_14  and  N_15
REMARK    4  A    between atoms: C_16  and  C_17
REMARK    5  A    between atoms: C_20  and  N_23
REMARK                            x       y       z     vdW  Elec       q    Type
REMARK                         _______ _______ _______ _____ _____    ______ ____
ROOT
ATOM      1  C   UNL     1      -0.187   7.354  -1.612  0.00  0.00    +0.236 C 
ATOM      2  O   UNL     1       0.804   7.807  -1.078  0.00  0.00    -0.274 OA
ATOM      3  N   UNL     1      -0.764   8.016  -2.634  0.00  0.00    -0.207 N 
ATOM      4  H   UNL     1      -1.556   7.654  -3.061  0.00  0.00    +0.177 HD
ENDROOT
BRANCH   1   7
ATOM      5  C   UNL     1      -0.070   5.347   0.031  0.00  0.00    +0.032 C 
ATOM      6  C   UNL     1      -1.419   6.034   0.254  0.00  0.00    +0.022 C 
ATOM      7  C   UNL     1      -0.772   6.051  -1.133  0.00  0.00    +0.085 C 
BRANCH   5  11
ATOM      8  C   UNL     1      -0.013   1.076   0.008  0.00  0.00    +0.000 A 
ATOM      9  C   UNL     1      -1.219   1.751   0.017  0.00  0.00    +0.000 A 
ATOM     10  C   UNL     1      -1.238   3.133   0.030  0.00  0.00    +0.004 A 
ATOM     11  C   UNL     1      -0.050   3.840   0.023  0.00  0.00    -0.044 A 
ATOM     12  C   UNL     1       1.156   3.165   0.008  0.00  0.00    +0.004 A 
ATOM     13  C   UNL     1       1.175   1.783   0.000  0.00  0.00    +0.000 A 
ENDBRANCH   5  11
ENDBRANCH   1   7
BRANCH   3  14
ATOM     14  N   UNL     1      -0.220   9.228  -3.079  0.00  0.00    -0.188 NA
ATOM     15  C   UNL     1      -0.776   9.866  -4.064  0.00  0.00    +0.138 C 
BRANCH  15  16
ATOM     16  C   UNL     1      -0.203  11.142  -4.532  0.00  0.00    -0.005 A 
ATOM     17  C   UNL     1       0.934  11.669  -3.916  0.00  0.00    +0.012 A 
ATOM     18  C   UNL     1       1.467  12.860  -4.364  0.00  0.00    +0.033 A 
ATOM     19  C   UNL     1       0.872  13.537  -5.413  0.00  0.00    +0.126 A 
ATOM     20  C   UNL     1      -0.258  13.023  -6.025  0.00  0.00    +0.033 A 
ATOM     21  C   UNL     1      -0.799  11.831  -5.591  0.00  0.00    +0.012 A 
BRANCH  19  22
ATOM     22  N   UNL     1       1.447  14.817  -5.884  0.00  0.00    +0.056 N 
ATOM     23  O   UNL     1       0.925  15.416  -6.808  0.00  0.00    -0.126 OA
ATOM     24  O   UNL     1       2.441  15.272  -5.348  0.00  0.00    -0.126 OA
ENDBRANCH  19  22
ENDBRANCH  15  16
ENDBRANCH   3  14
TORSDOF 5
