REMARK  Name = ZINC22749648
REMARK  11 active torsions:
REMARK  status: ('A' for Active; 'I' for Inactive)
REMARK    1  A    between atoms: C_1  and  C_2
REMARK    2  A    between atoms: C_2  and  C_4
REMARK    3  A    between atoms: C_2  and  S_19
REMARK    4  A    between atoms: N_6  and  C_7
REMARK    5  A    between atoms: C_12  and  C_13
REMARK    6  A    between atoms: S_19  and  C_20
REMARK    7  A    between atoms: C_23  and  C_31
REMARK    8  A    between atoms: N_24  and  C_25
REMARK    9  A    between atoms: C_25  and  C_26
REMARK   10  A    between atoms: C_31  and  C_32
REMARK   11  A    between atoms: C_32  and  C_33
REMARK                            x       y       z     vdW  Elec       q    Type
REMARK                         _______ _______ _______ _____ _____    ______ ____
ROOT
ATOM      1  S   UNL     1       2.588   0.962  -0.794  0.00  0.00    -0.074 S 
ENDROOT
BRANCH   1   2
ATOM      2  C   UNL     1       3.903   2.134  -0.819  0.00  0.00    +0.193 A 
ATOM      3  N   UNL     1       3.846   3.381  -0.411  0.00  0.00    -0.122 NA
ATOM      4  N   UNL     1       4.989   3.946  -0.573  0.00  0.00    -0.133 NA
ATOM      5  C   UNL     1       5.835   3.104  -1.096  0.00  0.00    +0.135 A 
ATOM      6  N   UNL     1       5.173   1.919  -1.272  0.00  0.00    -0.299 N 
BRANCH   6   7
ATOM      7  C   UNL     1       5.715   0.678  -1.830  0.00  0.00    +0.199 C 
BRANCH   7   8
ATOM      8  C   UNL     1       6.184  -0.214  -0.709  0.00  0.00    +0.125 A 
ATOM      9  C   UNL     1       5.468  -1.196  -0.133  0.00  0.00    +0.046 A 
ATOM     10  C   UNL     1       6.289  -1.772   0.863  0.00  0.00    +0.041 A 
ATOM     11  C   UNL     1       7.456  -1.102   0.841  0.00  0.00    +0.195 A 
ATOM     12  O   UNL     1       7.386  -0.160  -0.113  0.00  0.00    -0.466 OA
ENDBRANCH   7   8
ENDBRANCH   6   7
BRANCH   5  13
ATOM     13  C   UNL     1       7.274   3.383  -1.443  0.00  0.00    +0.085 C 
BRANCH  13  14
ATOM     14  C   UNL     1       7.376   3.777  -2.918  0.00  0.00    +0.103 C 
BRANCH  14  15
ATOM     15  C   UNL     1       8.826   3.937  -3.296  0.00  0.00    +0.211 C 
ATOM     16  O   UNL     1       9.693   3.754  -2.467  0.00  0.00    -0.276 OA
ATOM     17  N   UNL     1       9.160   4.285  -4.555  0.00  0.00    -0.329 N 
ATOM     18  H   UNL     1      10.218   4.401  -4.831  0.00  0.00    +0.145 HD
ATOM     19  H   UNL     1       8.374   4.451  -5.306  0.00  0.00    +0.145 HD
ENDBRANCH  14  15
ENDBRANCH  13  14
ENDBRANCH   5  13
ENDBRANCH   1   2
BRANCH   1  21
ATOM     20  C   UNL     1       1.651   2.356   1.361  0.00  0.00    +0.029 C 
ATOM     21  C   UNL     1       1.275   1.979  -0.073  0.00  0.00    +0.137 C 
BRANCH  21  22
ATOM     22  C   UNL     1      -0.016   1.201  -0.066  0.00  0.00    +0.230 C 
ATOM     23  O   UNL     1       0.007  -0.012  -0.060  0.00  0.00    -0.274 OA
ATOM     24  N   UNL     1      -1.196   1.853  -0.070  0.00  0.00    -0.284 N 
ATOM     25  H   UNL     1      -1.218   2.949   0.016  0.00  0.00    +0.155 HD
BRANCH  24  26
ATOM     26  C   UNL     1      -2.389   1.136  -0.185  0.00  0.00    +0.041 A 
ATOM     27  C   UNL     1      -2.397  -0.112  -0.792  0.00  0.00    +0.024 A 
ATOM     28  C   UNL     1      -3.577  -0.821  -0.901  0.00  0.00    +0.002 A 
ATOM     29  C   UNL     1      -4.759  -0.289  -0.416  0.00  0.00    +0.001 A 
ATOM     30  C   UNL     1      -4.768   0.953   0.186  0.00  0.00    +0.010 A 
ATOM     31  C   UNL     1      -3.583   1.676   0.306  0.00  0.00    +0.003 A 
BRANCH  31  32
ATOM     32  C   UNL     1      -3.587   3.011   0.952  0.00  0.00    -0.016 A 
ATOM     33  C   UNL     1      -2.671   3.302   1.961  0.00  0.00    +0.008 A 
ATOM     34  C   UNL     1      -2.675   4.548   2.555  0.00  0.00    +0.001 A 
ATOM     35  C   UNL     1      -3.594   5.503   2.158  0.00  0.00    +0.000 A 
ATOM     36  C   UNL     1      -4.509   5.217   1.161  0.00  0.00    +0.001 A 
ATOM     37  C   UNL     1      -4.510   3.977   0.556  0.00  0.00    +0.008 A 
ENDBRANCH  31  32
ENDBRANCH  24  26
ENDBRANCH  21  22
ENDBRANCH   1  21
TORSDOF 10
