REMARK  Name = ZINC14075565
REMARK  15 active torsions:
REMARK  status: ('A' for Active; 'I' for Inactive)
REMARK    1  A    between atoms: C_1  and  C_2
REMARK    2  A    between atoms: C_2  and  C_3
REMARK    3  A    between atoms: C_3  and  C_4
REMARK    4  A    between atoms: C_4  and  C_5
REMARK    5  A    between atoms: C_5  and  O_6
REMARK    6  A    between atoms: O_6  and  C_7
REMARK    7  A    between atoms: C_10  and  C_13
REMARK    8  A    between atoms: C_13  and  C_15
REMARK    9  A    between atoms: C_15  and  C_16
REMARK   10  A    between atoms: C_16  and  C_17
REMARK   11  A    between atoms: C_17  and  O_19
REMARK   12  A    between atoms: O_19  and  C_20
REMARK   13  A    between atoms: C_20  and  C_21
REMARK   14  A    between atoms: N_23  and  N_24
REMARK   15  A    between atoms: C_30  and  C_33
REMARK                            x       y       z     vdW  Elec       q    Type
REMARK                         _______ _______ _______ _____ _____    ______ ____
ROOT
ATOM      1  O   UNL     1       2.397   1.051  -0.015  0.00  0.00    -0.455 OA
ENDROOT
BRANCH   1   2
ATOM      2  C   UNL     1       3.630   1.581  -0.024  0.00  0.00    +0.308 C 
ATOM      3  O   UNL     1       3.772   2.781  -0.019  0.00  0.00    -0.251 OA
BRANCH   2   4
ATOM      4  C   UNL     1       4.837   0.680  -0.041  0.00  0.00    +0.128 C 
BRANCH   4   5
ATOM      5  C   UNL     1       6.109   1.530  -0.048  0.00  0.00    +0.091 C 
BRANCH   5   6
ATOM      6  C   UNL     1       7.316   0.629  -0.064  0.00  0.00    +0.164 C 
ATOM      7  O   UNL     1       7.174  -0.576  -0.070  0.00  0.00    -0.292 OA
BRANCH   6  11
ATOM      8  C   UNL     1      11.208   2.301  -0.092  0.00  0.00    +0.121 A 
ATOM      9  C   UNL     1      11.047   0.919  -0.098  0.00  0.00    +0.046 A 
ATOM     10  C   UNL     1       9.789   0.373  -0.089  0.00  0.00    +0.015 A 
ATOM     11  C   UNL     1       8.666   1.208  -0.074  0.00  0.00    +0.018 A 
ATOM     12  C   UNL     1       8.833   2.599  -0.074  0.00  0.00    +0.015 A 
ATOM     13  C   UNL     1      10.095   3.135  -0.077  0.00  0.00    +0.046 A 
BRANCH   8  14
ATOM     14  O   UNL     1      12.454   2.836  -0.101  0.00  0.00    -0.492 OA
BRANCH  14  15
ATOM     15  C   UNL     1      12.547   4.262  -0.094  0.00  0.00    +0.229 C 
BRANCH  15  16
ATOM     16  C   UNL     1      14.020   4.677  -0.105  0.00  0.00    +0.041 C 
BRANCH  16  17
ATOM     17  C   UNL     1      14.120   6.203  -0.098  0.00  0.00    +0.003 C 
BRANCH  17  19
ATOM     18  C   UNL     1      15.693   8.145  -0.102  0.00  0.00    +0.004 C 
ATOM     19  C   UNL     1      15.593   6.618  -0.110  0.00  0.00    -0.003 C 
ENDBRANCH  17  19
ENDBRANCH  16  17
ENDBRANCH  15  16
ENDBRANCH  14  15
ENDBRANCH   8  14
ENDBRANCH   6  11
ENDBRANCH   5   6
ENDBRANCH   4   5
ENDBRANCH   2   4
ENDBRANCH   1   2
BRANCH   1  20
ATOM     20  C   UNL     1       1.280   1.980   0.001  0.00  0.00    +0.329 C 
BRANCH  20  21
ATOM     21  C   UNL     1      -0.014   1.209   0.009  0.00  0.00    +0.267 C 
ATOM     22  O   UNL     1       0.002  -0.004   0.002  0.00  0.00    -0.271 OA
ATOM     23  N   UNL     1      -1.191   1.867   0.018  0.00  0.00    -0.221 N 
ATOM     24  H   UNL     1      -1.204   2.837   0.023  0.00  0.00    +0.174 HD
BRANCH  23  25
ATOM     25  N   UNL     1      -2.394   1.150   0.020  0.00  0.00    -0.137 N 
ATOM     26  C   UNL     1      -3.188   1.004   1.101  0.00  0.00    +0.263 C 
ATOM     27  O   UNL     1      -3.004   1.451   2.212  0.00  0.00    -0.271 OA
ATOM     28  C   UNL     1      -4.357   0.167   0.633  0.00  0.00    +0.114 C 
ATOM     29  C   UNL     1      -5.660   0.944   0.781  0.00  0.00    +0.035 C 
ATOM     30  C   UNL     1      -6.827   0.090   0.276  0.00  0.00    +0.006 C 
ATOM     31  C   UNL     1      -6.893  -1.208   1.083  0.00  0.00    -0.014 C 
ATOM     32  C   UNL     1      -5.589  -1.988   0.906  0.00  0.00    +0.006 C 
ATOM     33  C   UNL     1      -4.418  -1.143   1.412  0.00  0.00    +0.035 C 
ATOM     34  C   UNL     1      -8.066  -2.056   0.588  0.00  0.00    +0.007 C 
ATOM     35  N   UNL     1      -4.067  -0.090  -0.783  0.00  0.00    -0.284 N 
ATOM     36  C   UNL     1      -2.902   0.529  -1.052  0.00  0.00    +0.326 C 
ATOM     37  O   UNL     1      -2.369   0.522  -2.145  0.00  0.00    -0.251 OA
ATOM     38  H   UNL     1      -4.611  -0.601  -1.404  0.00  0.00    +0.151 HD
ENDBRANCH  23  25
ENDBRANCH  20  21
ENDBRANCH   1  20
TORSDOF 13
