REMARK  Name = ZINC51644095
REMARK  7 active torsions:
REMARK  status: ('A' for Active; 'I' for Inactive)
REMARK    1  A    between atoms: C_1  and  C_2
REMARK    2  A    between atoms: C_2  and  C_3
REMARK    3  A    between atoms: C_3  and  N_4
REMARK    4  A    between atoms: C_5  and  C_7
REMARK    5  A    between atoms: N_16  and  C_17
REMARK    6  A    between atoms: C_24  and  C_26
REMARK    7  A    between atoms: C_24  and  C_27
REMARK                            x       y       z     vdW  Elec       q    Type
REMARK                         _______ _______ _______ _____ _____    ______ ____
ROOT
ATOM      1  C   UNL     1       2.335  -3.813  -1.442  0.00  0.00    +0.092 C 
ATOM      2  C   UNL     1       2.436  -4.178  -2.924  0.00  0.00    +0.016 C 
ATOM      3  C   UNL     1       1.856  -5.576  -3.148  0.00  0.00    +0.020 C 
ATOM      4  C   UNL     1       2.668  -6.596  -2.343  0.00  0.00    +0.109 C 
ATOM      5  N   UNL     1       2.697  -6.173  -0.936  0.00  0.00    -0.285 N 
ATOM      6  C   UNL     1       3.152  -4.812  -0.617  0.00  0.00    +0.122 C 
ATOM      7  C   UNL     1       2.314  -7.016   0.043  0.00  0.00    +0.306 C 
ATOM      8  O   UNL     1       2.420  -6.684   1.207  0.00  0.00    -0.252 OA
ATOM      9  N   UNL     1       1.813  -8.227  -0.270  0.00  0.00    -0.269 N 
ATOM     10  H   UNL     1       1.823  -8.534  -1.190  0.00  0.00    +0.156 HD
ENDROOT
BRANCH   9  11
ATOM     11  C   UNL     1       1.277  -9.044   0.735  0.00  0.00    +0.038 A 
ATOM     12  C   UNL     1       0.621  -8.473   1.818  0.00  0.00    +0.027 A 
ATOM     13  C   UNL     1       0.092  -9.277   2.809  0.00  0.00    +0.051 A 
ATOM     14  C   UNL     1       0.214 -10.655   2.726  0.00  0.00    +0.167 A 
ATOM     15  C   UNL     1       0.871 -11.231   1.641  0.00  0.00    +0.169 A 
ATOM     16  C   UNL     1       1.397 -10.424   0.645  0.00  0.00    +0.073 A 
ATOM     17  O   UNL     1       0.857 -12.587   1.792  0.00  0.00    -0.448 OA
ATOM     18  C   UNL     1       0.545 -12.817   3.179  0.00  0.00    +0.248 C 
ATOM     19  O   UNL     1      -0.212 -11.652   3.557  0.00  0.00    -0.448 OA
ATOM     20  C   UNL     1       1.827 -12.917   4.008  0.00  0.00    +0.104 C 
ATOM     21  C   UNL     1      -0.299 -14.083   3.338  0.00  0.00    +0.104 C 
ENDBRANCH   9  11
BRANCH   1  23
ATOM     22  N   UNL     1       2.890  -1.888   0.009  0.00  0.00    -0.315 N 
ATOM     23  C   UNL     1       2.876  -2.423  -1.228  0.00  0.00    +0.218 C 
ATOM     24  O   UNL     1       3.300  -1.786  -2.168  0.00  0.00    -0.275 OA
ATOM     25  H   UNL     1       2.551  -2.398   0.762  0.00  0.00    +0.149 HD
BRANCH  22  26
ATOM     26  C   UNL     1       3.416  -0.537   0.217  0.00  0.00    +0.104 C 
BRANCH  26  28
ATOM     27  C   UNL     1       3.866   1.238   1.918  0.00  0.00    +0.005 C 
ATOM     28  C   UNL     1       3.316  -0.173   1.700  0.00  0.00    +0.015 C 
ENDBRANCH  26  28
ENDBRANCH  22  26
ENDBRANCH   1  23
TORSDOF 4
