REMARK  Name = ZINC19789743
REMARK  8 active torsions:
REMARK  status: ('A' for Active; 'I' for Inactive)
REMARK    1  A    between atoms: C_1  and  N_2
REMARK    2  A    between atoms: N_5  and  C_8
REMARK    3  A    between atoms: C_8  and  C_9
REMARK    4  A    between atoms: C_10  and  O_29
REMARK    5  A    between atoms: C_17  and  O_20
REMARK    6  A    between atoms: O_20  and  C_21
REMARK    7  A    between atoms: C_24  and  O_27
REMARK    8  A    between atoms: O_27  and  C_28
REMARK                            x       y       z     vdW  Elec       q    Type
REMARK                         _______ _______ _______ _____ _____    ______ ____
ROOT
ATOM      1  C   UNL     1      -0.063  -4.485   2.549  0.00  0.00    +0.051 A 
ATOM      2  C   UNL     1       1.267  -4.851   2.671  0.00  0.00    +0.125 A 
ATOM      3  C   UNL     1       1.738  -5.426   3.850  0.00  0.00    +0.046 A 
ATOM      4  C   UNL     1       0.893  -5.637   4.902  0.00  0.00    +0.019 A 
ATOM      5  C   UNL     1      -0.450  -5.274   4.794  0.00  0.00    +0.068 A 
ATOM      6  C   UNL     1      -0.933  -4.687   3.611  0.00  0.00    +0.147 A 
ATOM      7  O   UNL     1      -2.232  -4.336   3.520  0.00  0.00    -0.459 OA
ATOM      8  C   UNL     1      -3.097  -4.518   4.526  0.00  0.00    +0.245 A 
ATOM      9  C   UNL     1      -2.740  -5.064   5.705  0.00  0.00    +0.210 A 
ATOM     10  C   UNL     1      -1.394  -5.485   5.905  0.00  0.00    +0.235 A 
ATOM     11  O   UNL     1      -1.034  -5.984   6.958  0.00  0.00    -0.283 OA
ENDROOT
BRANCH   2  12
ATOM     12  O   UNL     1       2.119  -4.649   1.634  0.00  0.00    -0.506 OA
ATOM     13  H   UNL     1       2.557  -3.787   1.648  0.00  0.00    +0.292 HD
ENDBRANCH   2  12
BRANCH   1  14
ATOM     14  C   UNL     1      -0.562  -3.865   1.269  0.00  0.00    +0.126 C 
BRANCH  14  19
ATOM     15  C   UNL     1       0.555   1.605   0.507  0.00  0.00    -0.096 C 
ATOM     16  N   UNL     1       0.437   0.146   0.384  0.00  0.00    +0.379 N 
ATOM     17  C   UNL     1      -0.983  -0.231   0.371  0.00  0.00    -0.064 C 
ATOM     18  C   UNL     1      -1.106  -1.749   0.223  0.00  0.00    +0.066 C 
ATOM     19  N   UNL     1      -0.418  -2.405   1.344  0.00  0.00    -0.301 NA
ATOM     20  C   UNL     1       0.999  -2.017   1.385  0.00  0.00    +0.066 C 
ATOM     21  C   UNL     1       1.105  -0.497   1.523  0.00  0.00    -0.064 C 
ATOM     22  H   UNL     1       0.872  -0.155  -0.475  0.00  0.00    -0.082 HD
ENDBRANCH  14  19
ENDBRANCH   1  14
BRANCH   9  23
ATOM     23  O   UNL     1      -3.662  -5.225   6.693  0.00  0.00    -0.449 OA
BRANCH  23  24
ATOM     24  C   UNL     1      -3.517  -4.487   7.826  0.00  0.00    +0.129 A 
ATOM     25  C   UNL     1      -2.527  -3.519   7.902  0.00  0.00    +0.050 A 
ATOM     26  C   UNL     1      -2.381  -2.770   9.053  0.00  0.00    +0.049 A 
ATOM     27  C   UNL     1      -3.223  -2.986  10.134  0.00  0.00    +0.120 A 
ATOM     28  C   UNL     1      -4.213  -3.955  10.058  0.00  0.00    +0.049 A 
ATOM     29  C   UNL     1      -4.364  -4.699   8.905  0.00  0.00    +0.050 A 
BRANCH  27  30
ATOM     30  O   UNL     1      -3.079  -2.249  11.267  0.00  0.00    -0.495 OA
ATOM     31  C   UNL     1      -3.981  -2.525  12.340  0.00  0.00    +0.277 C 
ENDBRANCH  27  30
ENDBRANCH  23  24
ENDBRANCH   9  23
TORSDOF 6
