REMARK  Name = ZINC08677366
REMARK  8 active torsions:
REMARK  status: ('A' for Active; 'I' for Inactive)
REMARK    1  A    between atoms: C_9  and  C_12
REMARK    2  A    between atoms: N_14  and  C_15
REMARK    3  A    between atoms: N_14  and  C_22
REMARK    4  A    between atoms: C_15  and  C_16
REMARK    5  A    between atoms: C_22  and  C_24
REMARK    6  A    between atoms: C_22  and  C_31
REMARK    7  A    between atoms: C_27  and  O_30
REMARK    8  A    between atoms: N_33  and  C_34
REMARK                            x       y       z     vdW  Elec       q    Type
REMARK                         _______ _______ _______ _____ _____    ______ ____
ROOT
ATOM      1  C   UNL     1       4.970  -2.813   1.337  0.00  0.00    +0.261 C 
ATOM      2  O   UNL     1       5.990  -2.577   1.950  0.00  0.00    -0.271 OA
ATOM      3  N   UNL     1       4.992  -3.674   0.300  0.00  0.00    -0.280 N 
ENDROOT
BRANCH   1  12
ATOM      4  C   UNL     1       0.859   0.883   4.456  0.00  0.00    +0.004 A 
ATOM      5  C   UNL     1       1.599   0.141   5.357  0.00  0.00    +0.004 A 
ATOM      6  C   UNL     1       2.562  -0.740   4.903  0.00  0.00    +0.049 A 
ATOM      7  C   UNL     1       2.788  -0.883   3.542  0.00  0.00    +0.163 A 
ATOM      8  C   UNL     1       2.041  -0.139   2.636  0.00  0.00    +0.162 A 
ATOM      9  C   UNL     1       1.077   0.745   3.098  0.00  0.00    +0.049 A 
ATOM     10  O   UNL     1       2.241  -0.269   1.296  0.00  0.00    -0.484 OA
ATOM     11  C   UNL     1       3.466  -0.885   0.885  0.00  0.00    +0.283 C 
ATOM     12  C   UNL     1       3.679  -2.145   1.735  0.00  0.00    +0.296 C 
ATOM     13  O   UNL     1       3.742  -1.752   3.110  0.00  0.00    -0.473 OA
ENDBRANCH   1  12
BRANCH   3  14
ATOM     14  C   UNL     1       3.794  -3.860  -0.522  0.00  0.00    +0.140 C 
BRANCH  14  15
ATOM     15  C   UNL     1       2.923  -4.961   0.087  0.00  0.00    +0.136 C 
ATOM     16  C   UNL     1       1.694  -5.215  -0.812  0.00  0.00    +0.035 C 
ATOM     17  C   UNL     1       0.564  -5.439   0.229  0.00  0.00    +0.031 C 
ATOM     18  C   UNL     1       1.007  -4.472   1.356  0.00  0.00    +0.160 C 
ATOM     19  O   UNL     1       2.443  -4.545   1.371  0.00  0.00    -0.375 OA
ENDBRANCH  14  15
ENDBRANCH   3  14
BRANCH   3  20
ATOM     20  C   UNL     1       6.213  -4.423  -0.004  0.00  0.00    +0.192 C 
BRANCH  20  21
ATOM     21  C   UNL     1       6.714  -5.098   1.246  0.00  0.00    -0.018 A 
ATOM     22  C   UNL     1       5.835  -5.799   2.051  0.00  0.00    +0.009 A 
ATOM     23  C   UNL     1       6.291  -6.419   3.199  0.00  0.00    +0.046 A 
ATOM     24  C   UNL     1       7.633  -6.337   3.543  0.00  0.00    +0.117 A 
ATOM     25  C   UNL     1       8.513  -5.634   2.734  0.00  0.00    +0.046 A 
ATOM     26  C   UNL     1       8.052  -5.020   1.585  0.00  0.00    +0.009 A 
BRANCH  24  27
ATOM     27  O   UNL     1       8.084  -6.945   4.672  0.00  0.00    -0.507 OA
ATOM     28  H   UNL     1       8.377  -7.857   4.537  0.00  0.00    +0.292 HD
ENDBRANCH  24  27
ENDBRANCH  20  21
BRANCH  20  29
ATOM     29  C   UNL     1       5.916  -5.464  -1.052  0.00  0.00    +0.238 C 
ATOM     30  O   UNL     1       4.767  -5.715  -1.349  0.00  0.00    -0.273 OA
ATOM     31  N   UNL     1       6.926  -6.117  -1.660  0.00  0.00    -0.311 N 
ATOM     32  H   UNL     1       7.845  -5.917  -1.423  0.00  0.00    +0.149 HD
BRANCH  31  33
ATOM     33  C   UNL     1       6.637  -7.129  -2.679  0.00  0.00    +0.073 C 
ATOM     34  C   UNL     1       6.371  -8.475  -2.000  0.00  0.00    +0.022 C 
ATOM     35  C   UNL     1       6.069  -9.532  -3.064  0.00  0.00    +0.002 C 
ATOM     36  C   UNL     1       7.267  -9.664  -4.006  0.00  0.00    +0.000 C 
ATOM     37  C   UNL     1       7.533  -8.319  -4.685  0.00  0.00    +0.002 C 
ATOM     38  C   UNL     1       7.835  -7.262  -3.621  0.00  0.00    +0.022 C 
ENDBRANCH  31  33
ENDBRANCH  20  29
ENDBRANCH   3  20
TORSDOF 8
