REMARK  Name = ZINC37060019
REMARK  6 active torsions:
REMARK  status: ('A' for Active; 'I' for Inactive)
REMARK    1  A    between atoms: C_1  and  C_2
REMARK    2  A    between atoms: C_5  and  C_7
REMARK    3  A    between atoms: C_10  and  C_12
REMARK    4  A    between atoms: C_12  and  N_13
REMARK    5  A    between atoms: N_13  and  C_14
REMARK    6  A    between atoms: C_16  and  N_21
REMARK                            x       y       z     vdW  Elec       q    Type
REMARK                         _______ _______ _______ _____ _____    ______ ____
ROOT
ATOM      1  N   UNL     1       1.294  -6.343   0.787  0.00  0.00    -0.336 N 
ATOM      2  H   UNL     1       1.236  -6.003   1.693  0.00  0.00    +0.147 HD
ENDROOT
BRANCH   1   3
ATOM      3  C   UNL     1       1.054  -7.695   0.531  0.00  0.00    +0.048 A 
ATOM      4  C   UNL     1       1.141  -8.185  -0.765  0.00  0.00    +0.057 A 
ATOM      5  C   UNL     1       0.904  -9.523  -1.014  0.00  0.00    +0.128 A 
ATOM      6  C   UNL     1       0.580 -10.375   0.025  0.00  0.00    +0.034 A 
ATOM      7  C   UNL     1       0.492  -9.892   1.318  0.00  0.00    +0.024 A 
ATOM      8  C   UNL     1       0.733  -8.555   1.575  0.00  0.00    +0.062 A 
ATOM      9 CL   UNL     1       0.629  -7.950   3.199  0.00  0.00    -0.082 Cl
BRANCH   5  10
ATOM     10  N   UNL     1       0.997 -10.045  -2.396  0.00  0.00    +0.056 N 
ATOM     11  O   UNL     1       1.280  -9.301  -3.306  0.00  0.00    -0.126 OA
ATOM     12  O   UNL     1       0.790 -11.216  -2.615  0.00  0.00    -0.126 OA
ENDBRANCH   5  10
ENDBRANCH   1   3
BRANCH   1  13
ATOM     13  C   UNL     1       1.631  -5.438  -0.315  0.00  0.00    +0.176 C 
BRANCH  13  17
ATOM     14  C   UNL     1       1.434  -1.989   0.869  0.00  0.00    +0.109 A 
ATOM     15  C   UNL     1       2.746  -2.209   1.068  0.00  0.00    +0.045 A 
ATOM     16  C   UNL     1       3.007  -3.535   0.653  0.00  0.00    +0.046 A 
ATOM     17  C   UNL     1       1.839  -4.046   0.224  0.00  0.00    +0.122 A 
ATOM     18  O   UNL     1       0.889  -3.107   0.362  0.00  0.00    -0.463 OA
BRANCH  14  22
ATOM     19  C   UNL     1      -0.019   1.526   0.010  0.00  0.00    +0.008 C 
ATOM     20  C   UNL     1       0.002  -0.004   0.002  0.00  0.00    -0.003 C 
ATOM     21  C   UNL     1      -0.828  -0.728   1.065  0.00  0.00    +0.015 C 
ATOM     22  C   UNL     1       0.700  -0.708   1.168  0.00  0.00    +0.058 C 
ENDBRANCH  14  22
ENDBRANCH  13  17
ENDBRANCH   1  13
TORSDOF 5
