REMARK  Name = ZINC38975489
REMARK  7 active torsions:
REMARK  status: ('A' for Active; 'I' for Inactive)
REMARK    1  A    between atoms: C_1  and  C_2
REMARK    2  A    between atoms: C_4  and  C_8
REMARK    3  A    between atoms: C_12  and  S_29
REMARK    4  A    between atoms: N_14  and  N_15
REMARK    5  A    between atoms: C_16  and  C_17
REMARK    6  A    between atoms: C_26  and  O_27
REMARK    7  A    between atoms: O_27  and  C_28
REMARK                            x       y       z     vdW  Elec       q    Type
REMARK                         _______ _______ _______ _____ _____    ______ ____
ROOT
ATOM      1  C   UNL     1      -0.976  -2.937  -1.266  0.00  0.00    +0.206 C 
ATOM      2  N   UNL     1      -2.454  -2.950  -1.353  0.00  0.00    -0.231 NA
ATOM      3  N   UNL     1      -2.776  -4.278  -1.899  0.00  0.00    -0.225 NA
ATOM      4  C   UNL     1      -1.776  -5.161  -1.244  0.00  0.00    +0.231 C 
ATOM      5  N   UNL     1      -0.545  -4.344  -1.197  0.00  0.00    -0.207 N 
ATOM      6  H   UNL     1      -2.870  -2.823  -0.443  0.00  0.00    +0.143 HD
ATOM      7  H   UNL     1      -3.716  -4.552  -1.654  0.00  0.00    +0.143 HD
ENDROOT
BRANCH   1  11
ATOM      8  C   UNL     1      -0.018   1.503   0.010  0.00  0.00    +0.067 C 
ATOM      9  C   UNL     1       0.002  -0.004   0.002  0.00  0.00    +0.058 C 
ATOM     10  C   UNL     1      -1.086  -0.777   0.003  0.00  0.00    +0.029 C 
ATOM     11  C   UNL     1      -0.531  -2.190  -0.007  0.00  0.00    +0.190 C 
ATOM     12  N   UNL     1       0.926  -1.973  -0.013  0.00  0.00    -0.177 NA
ATOM     13  N   UNL     1       1.125  -0.756  -0.013  0.00  0.00    -0.159 NA
ENDBRANCH   1  11
BRANCH   5  14
ATOM     14  N   UNL     1       0.771  -4.815  -1.105  0.00  0.00    -0.188 NA
ATOM     15  C   UNL     1       1.003  -6.092  -1.052  0.00  0.00    +0.142 C 
BRANCH  15  16
ATOM     16  C   UNL     1       2.385  -6.586  -0.955  0.00  0.00    +0.044 A 
ATOM     17  C   UNL     1       2.663  -8.019  -0.900  0.00  0.00    -0.006 A 
ATOM     18  C   UNL     1       1.632  -8.966  -0.938  0.00  0.00    +0.009 A 
ATOM     19  C   UNL     1       1.934 -10.294  -0.885  0.00  0.00    +0.001 A 
ATOM     20  C   UNL     1       3.256 -10.723  -0.794  0.00  0.00    +0.001 A 
ATOM     21  C   UNL     1       4.283  -9.830  -0.755  0.00  0.00    +0.008 A 
ATOM     22  C   UNL     1       4.008  -8.453  -0.808  0.00  0.00    -0.017 A 
ATOM     23  C   UNL     1       5.042  -7.501  -0.772  0.00  0.00    +0.012 A 
ATOM     24  C   UNL     1       4.765  -6.171  -0.824  0.00  0.00    +0.047 A 
ATOM     25  C   UNL     1       3.458  -5.697  -0.920  0.00  0.00    +0.129 A 
BRANCH  25  26
ATOM     26  O   UNL     1       3.228  -4.359  -0.975  0.00  0.00    -0.494 OA
ATOM     27  C   UNL     1       4.370  -3.502  -0.935  0.00  0.00    +0.277 C 
ENDBRANCH  25  26
ENDBRANCH  15  16
ENDBRANCH   5  14
BRANCH   4  28
ATOM     28  S   UNL     1      -2.317  -5.596   0.432  0.00  0.00    -0.138 S 
ATOM     29  H   UNL     1      -3.473  -6.257   0.240  0.00  0.00    +0.105 HD
ENDBRANCH   4  28
TORSDOF 5
