REMARK  Name = ZINC64590461
REMARK  6 active torsions:
REMARK  status: ('A' for Active; 'I' for Inactive)
REMARK    1  A    between atoms: C_3  and  N_24
REMARK    2  A    between atoms: C_4  and  C_21
REMARK    3  A    between atoms: C_6  and  N_7
REMARK    4  A    between atoms: N_10  and  C_13
REMARK    5  A    between atoms: C_13  and  C_14
REMARK    6  A    between atoms: C_25  and  C_27
REMARK                            x       y       z     vdW  Elec       q    Type
REMARK                         _______ _______ _______ _____ _____    ______ ____
ROOT
ATOM      1  C   UNL     1       0.060   0.924   0.392  0.00  0.00    +0.025 A 
ATOM      2  C   UNL     1       1.113   1.804   0.247  0.00  0.00    +0.026 A 
ATOM      3  C   UNL     1       2.411   1.326   0.130  0.00  0.00    +0.048 A 
ATOM      4  C   UNL     1       2.650  -0.057   0.159  0.00  0.00    +0.086 A 
ATOM      5  C   UNL     1       1.577  -0.941   0.307  0.00  0.00    +0.040 A 
ATOM      6  C   UNL     1       0.290  -0.448   0.422  0.00  0.00    +0.031 A 
ENDROOT
BRANCH   6   7
ATOM      7  N   UNL     1      -0.785  -1.331   0.570  0.00  0.00    -0.327 N 
ATOM      8  C   UNL     1      -0.559  -2.776   0.727  0.00  0.00    +0.120 C 
ATOM      9  C   UNL     1      -1.336  -3.259   1.956  0.00  0.00    +0.104 C 
ATOM     10  N   UNL     1      -2.744  -2.862   1.829  0.00  0.00    -0.291 NA
ATOM     11  C   UNL     1      -2.885  -1.400   1.807  0.00  0.00    +0.104 C 
ATOM     12  C   UNL     1      -2.171  -0.839   0.578  0.00  0.00    +0.120 C 
BRANCH  10  13
ATOM     13  C   UNL     1      -3.557  -3.452   2.901  0.00  0.00    +0.180 C 
BRANCH  13  14
ATOM     14  C   UNL     1      -5.018  -3.230   2.604  0.00  0.00    +0.230 C 
ATOM     15  O   UNL     1      -5.349  -2.638   1.599  0.00  0.00    -0.274 OA
ATOM     16  N   UNL     1      -5.955  -3.689   3.456  0.00  0.00    -0.300 N 
ATOM     17  C   UNL     1      -5.695  -4.414   4.708  0.00  0.00    +0.108 C 
ATOM     18  C   UNL     1      -7.064  -4.760   5.332  0.00  0.00    +0.020 C 
ATOM     19  C   UNL     1      -8.023  -4.707   4.113  0.00  0.00    +0.020 C 
ATOM     20  C   UNL     1      -7.413  -3.542   3.290  0.00  0.00    +0.108 C 
ENDBRANCH  13  14
ENDBRANCH  10  13
ENDBRANCH   6   7
BRANCH   3  21
ATOM     21  N   UNL     1       3.473   2.216  -0.018  0.00  0.00    -0.285 N 
ATOM     22  C   UNL     1       3.306   3.356  -0.718  0.00  0.00    +0.220 C 
ATOM     23  O   UNL     1       2.262   3.561  -1.302  0.00  0.00    -0.275 OA
ATOM     24  H   UNL     1       4.333   2.016   0.384  0.00  0.00    +0.155 HD
BRANCH  22  25
ATOM     25  C   UNL     1       4.414   4.375  -0.776  0.00  0.00    +0.075 C 
ATOM     26  C   UNL     1       4.705   4.921   0.637  0.00  0.00    +0.013 C 
ATOM     27  C   UNL     1       5.021   6.419   0.408  0.00  0.00    +0.001 C 
ATOM     28  C   UNL     1       4.022   6.813  -0.708  0.00  0.00    +0.001 C 
ATOM     29  C   UNL     1       3.981   5.578  -1.631  0.00  0.00    +0.013 C 
ENDBRANCH  22  25
ENDBRANCH   3  21
BRANCH   4  30
ATOM     30  C   UNL     1       4.023  -0.573   0.034  0.00  0.00    +0.388 C 
ATOM     31  O   UNL     1       4.219  -1.779  -0.031  0.00  0.00    -0.241 OA
ATOM     32  O   UNL     1       4.967   0.203  -0.004  0.00  0.00    -0.241 OA
ENDBRANCH   4  30
TORSDOF 6
