REMARK  Name = ZINC64228338
REMARK  6 active torsions:
REMARK  status: ('A' for Active; 'I' for Inactive)
REMARK    1  A    between atoms: C_1  and  C_2
REMARK    2  A    between atoms: C_2  and  C_3
REMARK    3  A    between atoms: C_6  and  C_9
REMARK    4  A    between atoms: C_9  and  N_10
REMARK    5  A    between atoms: C_16  and  C_19
REMARK    6  A    between atoms: C_21  and  C_24
REMARK                            x       y       z     vdW  Elec       q    Type
REMARK                         _______ _______ _______ _____ _____    ______ ____
ROOT
ATOM      1  N   UNL     1      -2.624  -4.338  -2.364  0.00  0.00    -0.299 N 
ATOM      2  C   UNL     1      -3.730  -5.107  -2.316  0.00  0.00    +0.302 C 
ATOM      3  O   UNL     1      -4.817  -4.598  -2.122  0.00  0.00    -0.253 OA
ATOM      4  N   UNL     1      -3.631  -6.441  -2.482  0.00  0.00    -0.286 N 
ATOM      5  C   UNL     1      -2.315  -7.084  -2.600  0.00  0.00    +0.110 C 
ATOM      6  C   UNL     1      -2.291  -7.926  -3.880  0.00  0.00    +0.032 C 
ATOM      7  C   UNL     1      -3.469  -8.902  -3.866  0.00  0.00    +0.081 C 
ATOM      8  C   UNL     1      -4.783  -8.118  -3.828  0.00  0.00    +0.032 C 
ATOM      9  C   UNL     1      -4.835  -7.280  -2.542  0.00  0.00    +0.110 C 
ATOM     10  H   UNL     1      -1.750  -4.749  -2.445  0.00  0.00    +0.150 HD
ENDROOT
BRANCH   7  11
ATOM     11  C   UNL     1      -3.430  -9.755  -5.108  0.00  0.00    +0.231 A 
ATOM     12  N   UNL     1      -3.336 -11.055  -5.139  0.00  0.00    -0.196 NA
ATOM     13  C   UNL     1      -3.327 -11.485  -6.406  0.00  0.00    +0.169 A 
ATOM     14  N   UNL     1      -3.416 -10.457  -7.200  0.00  0.00    -0.062 NA
ATOM     15  O   UNL     1      -3.490  -9.308  -6.369  0.00  0.00    -0.338 OA
ATOM     16  C   UNL     1      -3.230 -12.924  -6.843  0.00  0.00    +0.091 C 
ENDBRANCH   7  11
BRANCH   1  17
ATOM     17  C   UNL     1      -2.744  -2.879  -2.295  0.00  0.00    +0.109 C 
BRANCH  17  21
ATOM     18  C   UNL     1       0.718  -0.496  -1.262  0.00  0.00    -0.011 C 
ATOM     19  C   UNL     1      -0.090  -0.097  -2.499  0.00  0.00    +0.004 C 
ATOM     20  C   UNL     1      -1.482  -0.726  -2.424  0.00  0.00    +0.005 C 
ATOM     21  C   UNL     1      -1.351  -2.249  -2.370  0.00  0.00    +0.006 C 
ATOM     22  C   UNL     1      -0.543  -2.649  -1.133  0.00  0.00    +0.005 C 
ATOM     23  C   UNL     1       0.849  -2.019  -1.209  0.00  0.00    +0.004 C 
BRANCH  18  25
ATOM     24  C   UNL     1      -0.019   1.529   0.003  0.00  0.00    +0.004 C 
ATOM     25  C   UNL     1       0.002  -0.001  -0.004  0.00  0.00    -0.000 C 
ENDBRANCH  18  25
ENDBRANCH  17  21
ENDBRANCH   1  17
TORSDOF 4
