REMARK  Name = ZINC01089331
REMARK  6 active torsions:
REMARK  status: ('A' for Active; 'I' for Inactive)
REMARK    1  A    between atoms: C_6  and  C_7
REMARK    2  A    between atoms: C_7  and  N_8
REMARK    3  A    between atoms: C_11  and  C_13
REMARK    4  A    between atoms: N_15  and  N_16
REMARK    5  A    between atoms: C_17  and  C_18
REMARK    6  A    between atoms: C_21  and  N_23
REMARK                            x       y       z     vdW  Elec       q    Type
REMARK                         _______ _______ _______ _____ _____    ______ ____
ROOT
ATOM      1  C   UNL     1       5.767   2.860  -0.038  0.00  0.00    +0.283 C 
ATOM      2  O   UNL     1       5.513   4.048  -0.029  0.00  0.00    -0.267 OA
ATOM      3  N   UNL     1       4.766   1.957  -0.034  0.00  0.00    -0.202 N 
ATOM      4  H   UNL     1       4.969   1.009  -0.041  0.00  0.00    +0.178 HD
ENDROOT
BRANCH   1   8
ATOM      5  N   UNL     1       8.874   1.120  -0.079  0.00  0.00    -0.266 N 
ATOM      6  C   UNL     1       9.375   2.381  -0.076  0.00  0.00    +0.109 A 
ATOM      7  C   UNL     1       8.321   3.230  -0.067  0.00  0.00    +0.054 A 
ATOM      8  C   UNL     1       7.170   2.406  -0.055  0.00  0.00    +0.149 A 
ATOM      9  N   UNL     1       7.589   1.155  -0.066  0.00  0.00    -0.166 NA
BRANCH   5  10
ATOM     10  C   UNL     1       9.680  -0.103  -0.093  0.00  0.00    +0.178 C 
BRANCH  10  16
ATOM     11  C   UNL     1       9.935  -0.847   2.283  0.00  0.00    +0.006 A 
ATOM     12  C   UNL     1       9.572  -1.645   3.351  0.00  0.00    +0.015 A 
ATOM     13  C   UNL     1       8.566  -2.583   3.202  0.00  0.00    +0.018 A 
ATOM     14  C   UNL     1       7.920  -2.717   1.986  0.00  0.00    +0.015 A 
ATOM     15  C   UNL     1       8.281  -1.914   0.920  0.00  0.00    +0.006 A 
ATOM     16  C   UNL     1       9.286  -0.978   1.069  0.00  0.00    -0.026 A 
ATOM     17 BR   UNL     1       8.072  -3.680   4.661  0.00  0.00    -0.050 Br
ENDBRANCH  10  16
ENDBRANCH   5  10
ENDBRANCH   1   8
BRANCH   3  18
ATOM     18  N   UNL     1       3.539   2.354  -0.019  0.00  0.00    -0.187 NA
ATOM     19  C   UNL     1       2.545   1.457  -0.015  0.00  0.00    +0.145 C 
BRANCH  19  20
ATOM     20  C   UNL     1       1.232   1.882   0.000  0.00  0.00    +0.034 A 
ATOM     21  C   UNL     1      -0.013   1.076   0.008  0.00  0.00    +0.019 A 
ATOM     22  C   UNL     1      -1.150   1.769   0.017  0.00  0.00    +0.041 A 
ATOM     23  C   UNL     1      -1.106   3.175   0.030  0.00  0.00    +0.164 A 
ATOM     24  S   UNL     1       0.587   3.546   0.016  0.00  0.00    -0.064 S 
BRANCH  23  25
ATOM     25  N   UNL     1      -2.248   4.123   0.046  0.00  0.00    +0.063 N 
ATOM     26  O   UNL     1      -3.483   3.666   0.055  0.00  0.00    -0.126 OA
ATOM     27  O   UNL     1      -2.026   5.421   0.051  0.00  0.00    -0.126 OA
ENDBRANCH  23  25
ENDBRANCH  19  20
ENDBRANCH   3  18
TORSDOF 6
