REMARK  Name = ZINC14017107
REMARK  5 active torsions:
REMARK  status: ('A' for Active; 'I' for Inactive)
REMARK    1  A    between atoms: C_6  and  S_7
REMARK    2  A    between atoms: S_7  and  N_10
REMARK    3  A    between atoms: C_14  and  C_17
REMARK    4  A    between atoms: N_19  and  C_20
REMARK    5  A    between atoms: C_21  and  C_30
REMARK                            x       y       z     vdW  Elec       q    Type
REMARK                         _______ _______ _______ _____ _____    ______ ____
ROOT
ATOM      1  C   UNL     1      -1.583  -4.447  -0.792  0.00  0.00    +0.222 C 
ATOM      2  O   UNL     1      -0.536  -4.786  -0.281  0.00  0.00    -0.275 OA
ATOM      3  N   UNL     1      -1.873  -3.138  -0.929  0.00  0.00    -0.279 N 
ATOM      4  H   UNL     1      -2.710  -2.867  -1.338  0.00  0.00    +0.155 HD
ENDROOT
BRANCH   3   5
ATOM      5  C   UNL     1      -0.975  -2.179  -0.486  0.00  0.00    +0.084 A 
ATOM      6  C   UNL     1      -1.092  -0.799  -0.539  0.00  0.00    +0.068 A 
ATOM      7  C   UNL     1       0.002  -0.004   0.002  0.00  0.00    -0.023 A 
ATOM      8  C   UNL     1       1.034  -0.720   0.497  0.00  0.00    -0.004 A 
ATOM      9  S   UNL     1       0.567  -2.413   0.267  0.00  0.00    -0.077 S 
ATOM     10  C   UNL     1       2.305  -0.201   1.094  0.00  0.00    +0.043 C 
ATOM     11  C   UNL     1       1.972   0.879   2.133  0.00  0.00    +0.005 C 
ATOM     12  C   UNL     1       1.924   2.230   1.427  0.00  0.00    +0.001 C 
ATOM     13  C   UNL     1       1.407   2.059  -0.000  0.00  0.00    +0.005 C 
ATOM     14  C   UNL     1      -0.019   1.519   0.010  0.00  0.00    +0.037 C 
BRANCH   6  15
ATOM     15  C   UNL     1      -2.278  -0.160  -1.118  0.00  0.00    +0.244 C 
ATOM     16  O   UNL     1      -2.306   0.108  -2.305  0.00  0.00    -0.270 OA
ATOM     17  N   UNL     1      -3.338   0.129  -0.337  0.00  0.00    -0.325 N 
ATOM     18  H   UNL     1      -3.316  -0.086   0.609  0.00  0.00    +0.145 HD
ATOM     19  H   UNL     1      -4.122   0.551  -0.720  0.00  0.00    +0.145 HD
ENDBRANCH   6  15
ENDBRANCH   3   5
BRANCH   1  24
ATOM     20  N   UNL     1      -2.892  -7.886  -1.591  0.00  0.00    -0.176 NA
ATOM     21  C   UNL     1      -3.249  -7.764  -3.011  0.00  0.00    +0.109 C 
ATOM     22  C   UNL     1      -3.803  -6.357  -3.261  0.00  0.00    +0.018 C 
ATOM     23  C   UNL     1      -2.787  -5.320  -2.777  0.00  0.00    +0.015 C 
ATOM     24  C   UNL     1      -2.559  -5.489  -1.274  0.00  0.00    +0.091 C 
ATOM     25  C   UNL     1      -1.991  -6.886  -1.001  0.00  0.00    +0.122 C 
BRANCH  20  26
ATOM     26  S   UNL     1      -3.492  -9.126  -0.673  0.00  0.00    +0.061 S 
ATOM     27  O   UNL     1      -3.825 -10.174  -1.574  0.00  0.00    -0.153 OA
ATOM     28  O   UNL     1      -2.586  -9.309   0.406  0.00  0.00    -0.153 OA
BRANCH  26  34
ATOM     29  C   UNL     1      -5.007  -7.937   1.261  0.00  0.00    +0.030 A 
ATOM     30  C   UNL     1      -6.195  -7.494   1.811  0.00  0.00    +0.022 A 
ATOM     31  C   UNL     1      -7.386  -7.691   1.135  0.00  0.00    +0.041 A 
ATOM     32  C   UNL     1      -7.387  -8.326  -0.094  0.00  0.00    +0.022 A 
ATOM     33  C   UNL     1      -6.198  -8.764  -0.646  0.00  0.00    +0.030 A 
ATOM     34  C   UNL     1      -5.008  -8.567   0.030  0.00  0.00    +0.106 A 
ATOM     35 CL   UNL     1      -8.880  -7.141   1.829  0.00  0.00    -0.084 Cl
ENDBRANCH  26  34
ENDBRANCH  20  26
ENDBRANCH   1  24
TORSDOF 5
