REMARK  Name = ZINC32743525
REMARK  9 active torsions:
REMARK  status: ('A' for Active; 'I' for Inactive)
REMARK    1  A    between atoms: C_1  and  C_2
REMARK    2  A    between atoms: C_2  and  N_3
REMARK    3  A    between atoms: N_3  and  C_4
REMARK    4  A    between atoms: N_3  and  S_10
REMARK    5  A    between atoms: S_10  and  C_13
REMARK    6  A    between atoms: C_16  and  N_22
REMARK    7  A    between atoms: C_17  and  N_19
REMARK    8  A    between atoms: N_22  and  C_23
REMARK    9  A    between atoms: C_29  and  C_31
REMARK                            x       y       z     vdW  Elec       q    Type
REMARK                         _______ _______ _______ _____ _____    ______ ____
ROOT
ATOM      1  C   UNL     1       0.177  -1.398  -1.340  0.00  0.00    +0.111 A 
ATOM      2  C   UNL     1       0.203  -0.017  -1.272  0.00  0.00    +0.031 A 
ATOM      3  C   UNL     1       1.369   0.668  -1.548  0.00  0.00    +0.027 A 
ATOM      4  C   UNL     1       2.518  -0.032  -1.896  0.00  0.00    +0.058 A 
ATOM      5  C   UNL     1       2.489  -1.419  -1.964  0.00  0.00    +0.149 A 
ATOM      6  C   UNL     1       1.318  -2.097  -1.686  0.00  0.00    +0.063 A 
ENDROOT
BRANCH   1   7
ATOM      7  S   UNL     1      -1.314  -2.268  -0.987  0.00  0.00    +0.075 S 
ATOM      8  O   UNL     1      -0.935  -3.578  -0.589  0.00  0.00    -0.150 OA
ATOM      9  O   UNL     1      -2.094  -1.416  -0.159  0.00  0.00    -0.150 OA
BRANCH   7  10
ATOM     10  N   UNL     1      -2.139  -2.426  -2.414  0.00  0.00    -0.203 N 
BRANCH  10  11
ATOM     11  C   UNL     1      -3.129  -1.502  -2.754  0.00  0.00    +0.051 A 
ATOM     12  C   UNL     1      -2.986  -0.715  -3.890  0.00  0.00    +0.025 A 
ATOM     13  C   UNL     1      -3.969   0.195  -4.226  0.00  0.00    +0.002 A 
ATOM     14  C   UNL     1      -5.090   0.330  -3.428  0.00  0.00    +0.000 A 
ATOM     15  C   UNL     1      -5.233  -0.448  -2.294  0.00  0.00    +0.002 A 
ATOM     16  C   UNL     1      -4.256  -1.363  -1.954  0.00  0.00    +0.025 A 
ENDBRANCH  10  11
BRANCH  10  18
ATOM     17  C   UNL     1      -2.795  -4.693  -3.055  0.00  0.00    +0.026 C 
ATOM     18  C   UNL     1      -1.830  -3.535  -3.319  0.00  0.00    +0.128 C 
ENDBRANCH  10  18
ENDBRANCH   7  10
ENDBRANCH   1   7
BRANCH   5  19
ATOM     19  N   UNL     1       3.710  -2.168  -2.335  0.00  0.00    +0.058 N 
ATOM     20  O   UNL     1       3.623  -3.177  -3.013  0.00  0.00    -0.126 OA
ATOM     21  O   UNL     1       4.801  -1.777  -1.963  0.00  0.00    -0.126 OA
ENDBRANCH   5  19
BRANCH   4  22
ATOM     22  N   UNL     1       3.700   0.658  -2.176  0.00  0.00    -0.339 N 
ATOM     23  H   UNL     1       4.618   0.101  -2.415  0.00  0.00    +0.146 HD
BRANCH  22  24
ATOM     24  C   UNL     1       3.717   2.123  -2.150  0.00  0.00    +0.073 C 
ATOM     25  C   UNL     1       3.254   2.662  -3.505  0.00  0.00    +0.041 C 
ATOM     26  C   UNL     1       3.239   4.193  -3.463  0.00  0.00    +0.109 C 
ATOM     27  N   UNL     1       4.567   4.667  -3.048  0.00  0.00    -0.302 N 
ATOM     28  C   UNL     1       5.147   4.142  -1.804  0.00  0.00    +0.109 C 
ATOM     29  C   UNL     1       5.139   2.611  -1.865  0.00  0.00    +0.041 C 
ATOM     30  C   UNL     1       5.239   5.566  -3.793  0.00  0.00    +0.212 C 
ATOM     31  O   UNL     1       4.713   6.061  -4.768  0.00  0.00    -0.276 OA
ATOM     32  C   UNL     1       6.645   5.956  -3.417  0.00  0.00    +0.109 C 
ENDBRANCH  22  24
ENDBRANCH   4  22
TORSDOF 7
