REMARK  Name = ZINC10210879
REMARK  9 active torsions:
REMARK  status: ('A' for Active; 'I' for Inactive)
REMARK    1  A    between atoms: C_1  and  C_2
REMARK    2  A    between atoms: C_2  and  C_4
REMARK    3  A    between atoms: C_2  and  O_13
REMARK    4  A    between atoms: N_6  and  C_7
REMARK    5  A    between atoms: O_13  and  C_14
REMARK    6  A    between atoms: C_14  and  C_16
REMARK    7  A    between atoms: C_21  and  N_22
REMARK    8  A    between atoms: N_22  and  S_23
REMARK    9  A    between atoms: S_23  and  C_26
REMARK                            x       y       z     vdW  Elec       q    Type
REMARK                         _______ _______ _______ _____ _____    ______ ____
ROOT
ATOM      1  C   UNL     1       3.620   0.368  -3.966  0.00  0.00    +0.081 A 
ATOM      2  C   UNL     1       3.623   1.467  -4.830  0.00  0.00    +0.017 A 
ATOM      3  C   UNL     1       4.114   2.679  -4.399  0.00  0.00    +0.001 A 
ATOM      4  C   UNL     1       4.602   2.818  -3.109  0.00  0.00    +0.002 A 
ATOM      5  C   UNL     1       4.601   1.745  -2.242  0.00  0.00    +0.025 A 
ATOM      6  C   UNL     1       4.110   0.514  -2.658  0.00  0.00    +0.062 A 
ENDROOT
BRANCH   1   7
ATOM      7  C   UNL     1       3.102  -0.932  -4.423  0.00  0.00    +0.342 C 
ATOM      8  O   UNL     1       3.098  -1.884  -3.667  0.00  0.00    -0.245 OA
BRANCH   7   9
ATOM      9  O   UNL     1       2.633  -1.068  -5.679  0.00  0.00    -0.449 OA
BRANCH   9  11
ATOM     10  C   UNL     1       0.645  -2.473  -5.741  0.00  0.00    +0.062 C 
ATOM     11  C   UNL     1       2.138  -2.378  -6.061  0.00  0.00    +0.259 C 
BRANCH  11  12
ATOM     12  C   UNL     1       2.350  -2.585  -7.538  0.00  0.00    +0.258 C 
ATOM     13  O   UNL     1       2.867  -1.713  -8.204  0.00  0.00    -0.271 OA
ATOM     14  N   UNL     1       1.965  -3.738  -8.120  0.00  0.00    -0.282 N 
ATOM     15  H   UNL     1       1.483  -4.404  -7.604  0.00  0.00    +0.155 HD
BRANCH  14  16
ATOM     16  C   UNL     1       2.260  -3.975  -9.467  0.00  0.00    +0.033 A 
ATOM     17  C   UNL     1       1.384  -4.713 -10.252  0.00  0.00    +0.023 A 
ATOM     18  C   UNL     1       1.675  -4.940 -11.583  0.00  0.00    +0.002 A 
ATOM     19  C   UNL     1       2.844  -4.444 -12.130  0.00  0.00    +0.000 A 
ATOM     20  C   UNL     1       3.722  -3.714 -11.350  0.00  0.00    +0.002 A 
ATOM     21  C   UNL     1       3.433  -3.478 -10.020  0.00  0.00    +0.023 A 
ENDBRANCH  14  16
ENDBRANCH  11  12
ENDBRANCH   9  11
ENDBRANCH   7   9
ENDBRANCH   1   7
BRANCH   6  22
ATOM     22  N   UNL     1       4.108  -0.567  -1.788  0.00  0.00    -0.215 N 
ATOM     23  H   UNL     1       4.277  -1.461  -2.125  0.00  0.00    +0.174 HD
BRANCH  22  24
ATOM     24  S   UNL     1       3.819  -0.331  -0.175  0.00  0.00    +0.072 S 
ATOM     25  O   UNL     1       4.737   0.661   0.262  0.00  0.00    -0.150 OA
ATOM     26  O   UNL     1       3.751  -1.621   0.419  0.00  0.00    -0.150 OA
BRANCH  24  27
ATOM     27  C   UNL     1       2.210   0.374  -0.032  0.00  0.00    +0.112 A 
ATOM     28  C   UNL     1       1.106  -0.448   0.100  0.00  0.00    +0.032 A 
ATOM     29  C   UNL     1      -0.157   0.102   0.212  0.00  0.00    +0.051 A 
ATOM     30  C   UNL     1      -0.320   1.479   0.192  0.00  0.00    +0.162 A 
ATOM     31  C   UNL     1       0.790   2.305   0.062  0.00  0.00    +0.164 A 
ATOM     32  C   UNL     1       2.055   1.747  -0.051  0.00  0.00    +0.078 A 
ATOM     33  O   UNL     1       0.653   3.659   0.048  0.00  0.00    -0.485 OA
ATOM     34  C   UNL     1      -0.658   4.170  -0.212  0.00  0.00    +0.270 C 
ATOM     35  C   UNL     1      -1.659   3.389   0.650  0.00  0.00    +0.270 C 
ATOM     36  O   UNL     1      -1.571   2.005   0.294  0.00  0.00    -0.485 OA
ENDBRANCH  24  27
ENDBRANCH  22  24
ENDBRANCH   6  22
TORSDOF 8
