REMARK  Name = ZINC39574006
REMARK  5 active torsions:
REMARK  status: ('A' for Active; 'I' for Inactive)
REMARK    1  A    between atoms: C_5  and  C_7
REMARK    2  A    between atoms: N_8  and  N_9
REMARK    3  A    between atoms: C_10  and  C_12
REMARK    4  A    between atoms: C_15  and  C_18
REMARK    5  A    between atoms: C_22  and  N_24
REMARK                            x       y       z     vdW  Elec       q    Type
REMARK                         _______ _______ _______ _____ _____    ______ ____
ROOT
ATOM      1  C   UNL     1       3.622  -6.343  -0.071  0.00  0.00    +0.240 C 
ATOM      2  C   UNL     1       3.428  -6.875  -1.481  0.00  0.00    +0.041 C 
ATOM      3  C   UNL     1       4.568  -7.548  -1.731  0.00  0.00    +0.092 C 
ATOM      4  N   UNL     1       5.402  -7.483  -0.660  0.00  0.00    -0.153 NA
ATOM      5  N   UNL     1       4.957  -6.840   0.298  0.00  0.00    -0.170 NA
ENDROOT
BRANCH   3   6
ATOM      6  C   UNL     1       4.869  -8.261  -2.997  0.00  0.00    +0.004 A 
ATOM      7  C   UNL     1       3.942  -8.260  -4.038  0.00  0.00    +0.010 A 
ATOM      8  C   UNL     1       4.228  -8.925  -5.213  0.00  0.00    +0.003 A 
ATOM      9  C   UNL     1       5.432  -9.590  -5.359  0.00  0.00    +0.033 A 
ATOM     10  C   UNL     1       6.356  -9.594  -4.330  0.00  0.00    +0.127 A 
ATOM     11  C   UNL     1       6.083  -8.928  -3.152  0.00  0.00    +0.042 A 
BRANCH  10  12
ATOM     12  N   UNL     1       7.641 -10.309  -4.493  0.00  0.00    +0.056 N 
ATOM     13  O   UNL     1       7.883 -10.889  -5.526  0.00  0.00    -0.126 OA
ATOM     14  O   UNL     1       8.449 -10.313  -3.594  0.00  0.00    -0.126 OA
ENDBRANCH  10  12
ENDBRANCH   3   6
BRANCH   1  16
ATOM     15  N   UNL     1       2.413  -4.185  -0.046  0.00  0.00    -0.205 N 
ATOM     16  C   UNL     1       3.593  -4.837  -0.062  0.00  0.00    +0.263 C 
ATOM     17  O   UNL     1       4.632  -4.210  -0.069  0.00  0.00    -0.271 OA
ATOM     18  H   UNL     1       1.583  -4.686  -0.041  0.00  0.00    +0.177 HD
BRANCH  15  20
ATOM     19  C   UNL     1       1.251  -2.157  -0.023  0.00  0.00    +0.139 C 
ATOM     20  N   UNL     1       2.387  -2.784  -0.038  0.00  0.00    -0.188 NA
BRANCH  19  25
ATOM     21  C   UNL     1      -0.017   1.375   0.010  0.00  0.00    +0.001 A 
ATOM     22  C   UNL     1       1.170   2.087   0.002  0.00  0.00    +0.001 A 
ATOM     23  C   UNL     1       2.383   1.423  -0.013  0.00  0.00    +0.020 A 
ATOM     24  C   UNL     1       2.418   0.042  -0.021  0.00  0.00    +0.050 A 
ATOM     25  C   UNL     1       1.223  -0.683  -0.014  0.00  0.00    +0.013 A 
ATOM     26  C   UNL     1       0.002  -0.004   0.002  0.00  0.00    +0.011 A 
ATOM     27 CL   UNL     1       3.941  -0.790  -0.041  0.00  0.00    -0.083 Cl
ENDBRANCH  19  25
ENDBRANCH  15  20
ENDBRANCH   1  16
TORSDOF 5
