REMARK  Name = ZINC12775750
REMARK  9 active torsions:
REMARK  status: ('A' for Active; 'I' for Inactive)
REMARK    1  A    between atoms: C_1  and  C_2
REMARK    2  A    between atoms: C_2  and  C_3
REMARK    3  A    between atoms: C_3  and  C_4
REMARK    4  A    between atoms: C_4  and  N_5
REMARK    5  A    between atoms: C_6  and  N_30
REMARK    6  A    between atoms: C_7  and  N_14
REMARK    7  A    between atoms: N_14  and  C_15
REMARK    8  A    between atoms: C_15  and  C_16
REMARK    9  A    between atoms: C_21  and  C_23
REMARK                            x       y       z     vdW  Elec       q    Type
REMARK                         _______ _______ _______ _____ _____    ______ ____
ROOT
ATOM      1  N   UNL     1       0.599  -5.822   0.635  0.00  0.00    -0.280 N 
ATOM      2  C   UNL     1       0.881  -4.490   0.437  0.00  0.00    +0.127 A 
ATOM      3  C   UNL     1       2.194  -4.097   0.276  0.00  0.00    +0.140 A 
ATOM      4  C   UNL     1       3.206  -5.074   0.316  0.00  0.00    +0.277 A 
ATOM      5  O   UNL     1       4.374  -4.755   0.172  0.00  0.00    -0.266 OA
ATOM      6  N   UNL     1       2.876  -6.365   0.519  0.00  0.00    -0.273 N 
ATOM      7  H   UNL     1       3.595  -7.059   0.555  0.00  0.00    +0.173 HD
ATOM      8  C   UNL     1       1.591  -6.730   0.673  0.00  0.00    +0.331 A 
ATOM      9  O   UNL     1       1.321  -7.902   0.849  0.00  0.00    -0.246 OA
ENDROOT
BRANCH   3  10
ATOM     10  N   UNL     1       2.516  -2.739   0.070  0.00  0.00    -0.253 N 
ATOM     11  C   UNL     1       2.204  -1.823   1.008  0.00  0.00    +0.251 C 
ATOM     12  O   UNL     1       2.410  -0.643   0.797  0.00  0.00    -0.270 OA
BRANCH  11  13
ATOM     13  C   UNL     1       1.612  -2.252   2.292  0.00  0.00    +0.037 A 
ATOM     14  C   UNL     1       0.860  -1.354   3.052  0.00  0.00    +0.014 A 
ATOM     15  C   UNL     1       0.310  -1.761   4.249  0.00  0.00    +0.016 A 
ATOM     16  C   UNL     1       0.502  -3.056   4.699  0.00  0.00    +0.018 A 
ATOM     17  C   UNL     1       1.248  -3.951   3.950  0.00  0.00    +0.016 A 
ATOM     18  C   UNL     1       1.803  -3.557   2.751  0.00  0.00    +0.014 A 
ATOM     19 BR   UNL     1      -0.255  -3.605   6.342  0.00  0.00    -0.050 Br
ENDBRANCH  11  13
BRANCH  10  20
ATOM     20  C   UNL     1       3.188  -2.325  -1.164  0.00  0.00    +0.188 C 
BRANCH  20  21
ATOM     21  C   UNL     1       4.672  -2.223  -0.917  0.00  0.00    +0.122 A 
ATOM     22  C   UNL     1       5.587  -3.159  -1.227  0.00  0.00    +0.046 A 
ATOM     23  C   UNL     1       6.844  -2.653  -0.824  0.00  0.00    +0.041 A 
ATOM     24  C   UNL     1       6.622  -1.437  -0.292  0.00  0.00    +0.195 A 
ATOM     25  O   UNL     1       5.305  -1.180  -0.357  0.00  0.00    -0.466 OA
ENDBRANCH  20  21
ENDBRANCH  10  20
ENDBRANCH   3  10
BRANCH   2  26
ATOM     26  N   UNL     1      -0.132  -3.563   0.399  0.00  0.00    -0.343 N 
ATOM     27  H   UNL     1       0.064  -2.638   0.182  0.00  0.00    +0.144 HD
ATOM     28  H   UNL     1      -1.044  -3.833   0.588  0.00  0.00    +0.144 HD
ENDBRANCH   2  26
BRANCH   1  29
ATOM     29  C   UNL     1      -0.790  -6.254   0.807  0.00  0.00    +0.128 C 
BRANCH  29  30
ATOM     30  C   UNL     1      -1.392  -6.592  -0.558  0.00  0.00    +0.021 C 
BRANCH  30  32
ATOM     31  C   UNL     1      -3.444  -7.382  -1.744  0.00  0.00    +0.004 C 
ATOM     32  C   UNL     1      -2.843  -7.044  -0.378  0.00  0.00    -0.002 C 
ENDBRANCH  30  32
ENDBRANCH  29  30
ENDBRANCH   1  29
TORSDOF 8
