REMARK  Name = ZINC15236619
REMARK  11 active torsions:
REMARK  status: ('A' for Active; 'I' for Inactive)
REMARK    1  A    between atoms: C_1  and  C_2
REMARK    2  A    between atoms: C_2  and  C_28
REMARK    3  A    between atoms: N_5  and  C_9
REMARK    4  A    between atoms: C_9  and  C_10
REMARK    5  A    between atoms: C_10  and  C_12
REMARK    6  A    between atoms: C_10  and  O_27
REMARK    7  A    between atoms: C_12  and  O_13
REMARK    8  A    between atoms: O_13  and  C_14
REMARK    9  A    between atoms: C_14  and  C_15
REMARK   10  A    between atoms: C_14  and  C_21
REMARK   11  A    between atoms: C_31  and  N_34
REMARK                            x       y       z     vdW  Elec       q    Type
REMARK                         _______ _______ _______ _____ _____    ______ ____
ROOT
ATOM      1  C   UNL     1      -4.561   2.966  -4.324  0.00  0.00    +0.151 C 
ENDROOT
BRANCH   1   6
ATOM      2  C   UNL     1      -8.691   0.882  -5.154  0.00  0.00    +0.047 C 
ATOM      3  C   UNL     1      -7.517   1.431  -5.968  0.00  0.00    +0.135 C 
ATOM      4  C   UNL     1      -6.843   2.570  -5.230  0.00  0.00    +0.251 C 
ATOM      5  O   UNL     1      -7.339   3.626  -4.903  0.00  0.00    -0.272 OA
ATOM      6  N   UNL     1      -5.576   2.164  -5.013  0.00  0.00    -0.221 N 
ATOM      7  C   UNL     1      -5.357   0.942  -5.511  0.00  0.00    +0.310 C 
ATOM      8  O   UNL     1      -4.290   0.365  -5.441  0.00  0.00    -0.252 OA
ATOM      9  N   UNL     1      -6.452   0.420  -6.093  0.00  0.00    -0.281 N 
ATOM     10  H   UNL     1      -6.525  -0.450  -6.516  0.00  0.00    +0.152 HD
BRANCH   3  11
ATOM     11  C   UNL     1      -7.982   1.881  -7.328  0.00  0.00    -0.015 A 
ATOM     12  C   UNL     1      -8.356   3.197  -7.530  0.00  0.00    +0.008 A 
ATOM     13  C   UNL     1      -8.778   3.612  -8.779  0.00  0.00    +0.033 A 
ATOM     14  C   UNL     1      -8.837   2.709  -9.824  0.00  0.00    +0.126 A 
ATOM     15  C   UNL     1      -8.468   1.392  -9.621  0.00  0.00    +0.033 A 
ATOM     16  C   UNL     1      -8.041   0.978  -8.373  0.00  0.00    +0.008 A 
BRANCH  14  17
ATOM     17  N   UNL     1      -9.294   3.151 -11.161  0.00  0.00    +0.056 N 
ATOM     18  O   UNL     1      -9.345   2.356 -12.081  0.00  0.00    -0.126 OA
ATOM     19  O   UNL     1      -9.618   4.312 -11.340  0.00  0.00    -0.126 OA
ENDBRANCH  14  17
ENDBRANCH   3  11
ENDBRANCH   1   6
BRANCH   1  20
ATOM     20  C   UNL     1      -4.609   2.667  -2.824  0.00  0.00    +0.158 C 
BRANCH  20  21
ATOM     21  O   UNL     1      -5.903   2.995  -2.314  0.00  0.00    -0.388 OA
ATOM     22  H   UNL     1      -6.147   3.924  -2.428  0.00  0.00    +0.210 HD
ENDBRANCH  20  21
BRANCH  20  23
ATOM     23  C   UNL     1      -3.550   3.504  -2.104  0.00  0.00    +0.194 C 
BRANCH  23  24
ATOM     24  O   UNL     1      -3.514   3.142  -0.722  0.00  0.00    -0.365 OA
BRANCH  24  25
ATOM     25  C   UNL     1      -2.553   3.869   0.045  0.00  0.00    +0.178 C 
BRANCH  25  26
ATOM     26  C   UNL     1      -1.238   3.133   0.030  0.00  0.00    -0.015 A 
ATOM     27  C   UNL     1      -1.219   1.751   0.017  0.00  0.00    +0.006 A 
ATOM     28  C   UNL     1      -0.013   1.076   0.008  0.00  0.00    +0.000 A 
ATOM     29  C   UNL     1       1.175   1.783   0.000  0.00  0.00    +0.000 A 
ATOM     30  C   UNL     1       1.156   3.165   0.008  0.00  0.00    +0.000 A 
ATOM     31  C   UNL     1      -0.050   3.840   0.022  0.00  0.00    +0.006 A 
ENDBRANCH  25  26
BRANCH  25  32
ATOM     32  C   UNL     1      -3.039   3.999   1.466  0.00  0.00    -0.015 A 
ATOM     33  C   UNL     1      -3.672   2.935   2.080  0.00  0.00    +0.006 A 
ATOM     34  C   UNL     1      -4.114   3.053   3.385  0.00  0.00    +0.000 A 
ATOM     35  C   UNL     1      -3.931   4.239   4.072  0.00  0.00    +0.000 A 
ATOM     36  C   UNL     1      -3.302   5.304   3.456  0.00  0.00    +0.000 A 
ATOM     37  C   UNL     1      -2.856   5.185   2.153  0.00  0.00    +0.006 A 
ENDBRANCH  25  32
ENDBRANCH  24  25
ENDBRANCH  23  24
ENDBRANCH  20  23
ENDBRANCH   1  20
TORSDOF 10
