REMARK  Name = ZINC34699885
REMARK  3 active torsions:
REMARK  status: ('A' for Active; 'I' for Inactive)
REMARK    1  A    between atoms: C_10  and  C_21
REMARK    2  A    between atoms: N_14  and  C_15
REMARK    3  A    between atoms: C_15  and  C_16
REMARK                            x       y       z     vdW  Elec       q    Type
REMARK                         _______ _______ _______ _____ _____    ______ ____
ROOT
ATOM      1  C   UNL     1      -0.345   1.023   1.356  0.00  0.00    +0.001 A 
ATOM      2  C   UNL     1       0.611   1.498   2.243  0.00  0.00    +0.002 A 
ATOM      3  C   UNL     1       1.786   0.809   2.447  0.00  0.00    +0.028 A 
ATOM      4  C   UNL     1       2.022  -0.381   1.756  0.00  0.00    +0.078 A 
ATOM      5  C   UNL     1       1.046  -0.861   0.854  0.00  0.00    +0.045 A 
ATOM      6  C   UNL     1      -0.136  -0.149   0.662  0.00  0.00    +0.014 A 
ATOM      7  C   UNL     1       1.324  -2.114   0.144  0.00  0.00    +0.173 A 
ATOM      8  N   UNL     1       0.683  -2.844  -0.738  0.00  0.00    -0.128 NA
ATOM      9  N   UNL     1       1.386  -3.877  -1.048  0.00  0.00    -0.128 NA
ATOM     10  C   UNL     1       2.524  -3.869  -0.381  0.00  0.00    +0.178 A 
ATOM     11  N   UNL     1       2.524  -2.744   0.403  0.00  0.00    -0.246 N 
ATOM     12  C   UNL     1       3.407  -2.200   1.296  0.00  0.00    +0.204 A 
ATOM     13  N   UNL     1       3.170  -1.083   1.933  0.00  0.00    -0.215 NA
ATOM     14  N   UNL     1       4.592  -2.853   1.531  0.00  0.00    -0.307 N 
ATOM     15  H   UNL     1       4.754  -3.722   1.131  0.00  0.00    +0.149 HD
ENDROOT
BRANCH  10  16
ATOM     16  C   UNL     1       3.591  -4.878  -0.462  0.00  0.00    +0.057 A 
ATOM     17  C   UNL     1       3.505  -6.251  -0.323  0.00  0.00    +0.019 A 
ATOM     18  C   UNL     1       4.657  -6.994  -0.442  0.00  0.00    +0.008 A 
ATOM     19  C   UNL     1       5.833  -6.362  -0.691  0.00  0.00    +0.046 A 
ATOM     20  S   UNL     1       5.334  -4.650  -0.773  0.00  0.00    -0.094 S 
ENDBRANCH  10  16
BRANCH  14  21
ATOM     21  C   UNL     1       5.611  -2.238   2.385  0.00  0.00    +0.178 C 
BRANCH  21  22
ATOM     22  C   UNL     1       6.805  -3.152   2.480  0.00  0.00    +0.122 A 
ATOM     23  C   UNL     1       7.871  -3.142   1.659  0.00  0.00    +0.046 A 
ATOM     24  C   UNL     1       8.745  -4.157   2.110  0.00  0.00    +0.041 A 
ATOM     25  C   UNL     1       8.161  -4.728   3.179  0.00  0.00    +0.195 A 
ATOM     26  O   UNL     1       6.989  -4.111   3.402  0.00  0.00    -0.466 OA
ENDBRANCH  21  22
ENDBRANCH  14  21
TORSDOF 3
