REMARK  Name = ZINC58944376
REMARK  8 active torsions:
REMARK  status: ('A' for Active; 'I' for Inactive)
REMARK    1  A    between atoms: C_1  and  O_2
REMARK    2  A    between atoms: O_2  and  C_3
REMARK    3  A    between atoms: C_3  and  C_5
REMARK    4  A    between atoms: C_5  and  N_6
REMARK    5  A    between atoms: C_10  and  C_22
REMARK    6  A    between atoms: N_14  and  C_15
REMARK    7  A    between atoms: N_24  and  C_25
REMARK    8  A    between atoms: C_28  and  C_31
REMARK                            x       y       z     vdW  Elec       q    Type
REMARK                         _______ _______ _______ _____ _____    ______ ____
ROOT
ATOM      1  N   UNL     1      -2.650  -2.060  -0.088  0.00  0.00    -0.240 N 
ATOM      2  C   UNL     1      -3.154  -2.017   1.136  0.00  0.00    +0.223 C 
ATOM      3  O   UNL     1      -2.495  -1.410   1.954  0.00  0.00    -0.275 OA
ATOM      4  C   UNL     1      -4.422  -2.613   1.641  0.00  0.00    +0.120 C 
ATOM      5  C   UNL     1      -4.839  -3.856   0.853  0.00  0.00    +0.149 C 
ATOM      6  S   UNL     1      -4.829  -3.425  -0.919  0.00  0.00    -0.077 S 
ATOM      7  C   UNL     1      -3.179  -2.813  -1.121  0.00  0.00    +0.164 C 
ATOM      8  N   UNL     1      -2.486  -3.067  -2.206  0.00  0.00    -0.226 NA
ENDROOT
BRANCH   8   9
ATOM      9  C   UNL     1      -1.117  -3.037  -2.167  0.00  0.00    +0.067 A 
ATOM     10  C   UNL     1      -0.428  -3.755  -1.187  0.00  0.00    +0.030 A 
ATOM     11  C   UNL     1       0.951  -3.721  -1.153  0.00  0.00    +0.040 A 
ATOM     12  C   UNL     1       1.652  -2.976  -2.088  0.00  0.00    +0.124 A 
ATOM     13  C   UNL     1       0.973  -2.262  -3.062  0.00  0.00    +0.040 A 
ATOM     14  C   UNL     1      -0.405  -2.293  -3.110  0.00  0.00    +0.030 A 
ATOM     15  F   UNL     1       3.002  -2.946  -2.050  0.00  0.00    -0.205 F 
ENDBRANCH   8   9
BRANCH   5  16
ATOM     16  C   UNL     1      -6.224  -4.282   1.267  0.00  0.00    +0.231 C 
ATOM     17  O   UNL     1      -7.052  -3.447   1.562  0.00  0.00    -0.274 OA
ATOM     18  N   UNL     1      -6.541  -5.591   1.310  0.00  0.00    -0.285 N 
ATOM     19  H   UNL     1      -5.863  -6.261   1.130  0.00  0.00    +0.155 HD
BRANCH  18  20
ATOM     20  C   UNL     1      -7.844  -5.982   1.613  0.00  0.00    +0.033 A 
ATOM     21  C   UNL     1      -8.918  -5.201   1.196  0.00  0.00    +0.024 A 
ATOM     22  C   UNL     1     -10.201  -5.583   1.493  0.00  0.00    +0.017 A 
ATOM     23  C   UNL     1     -10.430  -6.759   2.215  0.00  0.00    +0.063 A 
ATOM     24  C   UNL     1      -9.348  -7.542   2.632  0.00  0.00    +0.017 A 
ATOM     25  C   UNL     1      -8.067  -7.156   2.327  0.00  0.00    +0.024 A 
BRANCH  23  26
ATOM     26  C   UNL     1     -11.806  -7.173   2.536  0.00  0.00    +0.387 C 
ATOM     27  O   UNL     1     -12.751  -6.487   2.171  0.00  0.00    -0.241 OA
ATOM     28  O   UNL     1     -12.004  -8.201   3.168  0.00  0.00    -0.241 OA
ENDBRANCH  23  26
ENDBRANCH  18  20
ENDBRANCH   5  16
BRANCH   1  29
ATOM     29  C   UNL     1      -1.459  -1.255  -0.368  0.00  0.00    +0.236 C 
BRANCH  29  30
ATOM     30  C   UNL     1      -1.773   0.202  -0.144  0.00  0.00    +0.325 C 
ATOM     31  O   UNL     1      -2.908   0.546   0.086  0.00  0.00    -0.249 OA
BRANCH  30  33
ATOM     32  C   UNL     1      -1.163   2.479   0.023  0.00  0.00    +0.280 C 
ATOM     33  O   UNL     1      -0.792   1.117  -0.200  0.00  0.00    -0.467 OA
ENDBRANCH  30  33
ENDBRANCH  29  30
ENDBRANCH   1  29
TORSDOF 7
