REMARK  Name = ZINC06190196
REMARK  8 active torsions:
REMARK  status: ('A' for Active; 'I' for Inactive)
REMARK    1  A    between atoms: C_1  and  C_2
REMARK    2  A    between atoms: C_5  and  C_8
REMARK    3  A    between atoms: N_10  and  C_11
REMARK    4  A    between atoms: C_11  and  C_22
REMARK    5  A    between atoms: C_12  and  C_13
REMARK    6  A    between atoms: C_17  and  N_19
REMARK    7  A    between atoms: N_24  and  C_25
REMARK    8  A    between atoms: C_25  and  C_26
REMARK                            x       y       z     vdW  Elec       q    Type
REMARK                         _______ _______ _______ _____ _____    ______ ____
ROOT
ATOM      1  C   UNL     1       1.090   6.011   0.125  0.00  0.00    +0.097 C 
ATOM      2  C   UNL     1      -0.063   5.332  -0.075  0.00  0.00    +0.036 C 
ENDROOT
BRANCH   2   3
ATOM      3  C   UNL     1      -0.023   3.921  -0.488  0.00  0.00    -0.021 A 
ATOM      4  C   UNL     1       1.132   3.392  -1.074  0.00  0.00    +0.008 A 
ATOM      5  C   UNL     1       1.161   2.068  -1.458  0.00  0.00    +0.003 A 
ATOM      6  C   UNL     1       0.052   1.263  -1.266  0.00  0.00    +0.033 A 
ATOM      7  C   UNL     1      -1.096   1.780  -0.692  0.00  0.00    +0.127 A 
ATOM      8  C   UNL     1      -1.139   3.100  -0.297  0.00  0.00    +0.040 A 
BRANCH   7   9
ATOM      9  N   UNL     1      -2.279   0.912  -0.496  0.00  0.00    +0.056 N 
ATOM     10  O   UNL     1      -2.241  -0.256  -0.841  0.00  0.00    -0.126 OA
ATOM     11  O   UNL     1      -3.290   1.365   0.009  0.00  0.00    -0.126 OA
ENDBRANCH   7   9
ENDBRANCH   2   3
BRANCH   1  14
ATOM     12  C   UNL     1       3.292   5.728  -0.726  0.00  0.00    +0.248 C 
ATOM     13  O   UNL     1       3.084   6.615  -1.530  0.00  0.00    -0.270 OA
ATOM     14  N   UNL     1       2.312   5.333   0.111  0.00  0.00    -0.277 N 
ATOM     15  H   UNL     1       2.455   4.578   0.703  0.00  0.00    +0.155 HD
BRANCH  12  20
ATOM     16  C   UNL     1       8.465   3.218  -0.485  0.00  0.00    +0.044 C 
ATOM     17  C   UNL     1       7.110   3.875  -0.548  0.00  0.00    -0.050 A 
ATOM     18  C   UNL     1       6.907   4.955  -1.389  0.00  0.00    +0.004 A 
ATOM     19  C   UNL     1       5.670   5.561  -1.451  0.00  0.00    +0.013 A 
ATOM     20  C   UNL     1       4.621   5.083  -0.664  0.00  0.00    +0.037 A 
ATOM     21  C   UNL     1       4.834   3.996   0.186  0.00  0.00    +0.013 A 
ATOM     22  C   UNL     1       6.075   3.396   0.235  0.00  0.00    +0.004 A 
ENDBRANCH  12  20
ENDBRANCH   1  14
BRANCH   1  23
ATOM     23  C   UNL     1       1.057   7.463   0.356  0.00  0.00    +0.258 C 
ATOM     24  O   UNL     1       2.094   8.074   0.535  0.00  0.00    -0.269 OA
ATOM     25  N   UNL     1      -0.121   8.117   0.369  0.00  0.00    -0.308 N 
ATOM     26  H   UNL     1      -0.948   7.630   0.226  0.00  0.00    +0.149 HD
BRANCH  25  27
ATOM     27  C   UNL     1      -0.154   9.563   0.600  0.00  0.00    +0.136 C 
BRANCH  27  28
ATOM     28  C   UNL     1      -1.603  10.053   0.566  0.00  0.00    +0.135 C 
ATOM     29  C   UNL     1      -1.648  11.574   0.807  0.00  0.00    +0.035 C 
ATOM     30  C   UNL     1      -2.341  12.139  -0.457  0.00  0.00    +0.031 C 
ATOM     31  C   UNL     1      -3.085  10.893  -1.003  0.00  0.00    +0.160 C 
ATOM     32  O   UNL     1      -2.171   9.809  -0.732  0.00  0.00    -0.375 OA
ENDBRANCH  27  28
ENDBRANCH  25  27
ENDBRANCH   1  23
TORSDOF 7
