REMARK  Name = ZINC67543244
REMARK  6 active torsions:
REMARK  status: ('A' for Active; 'I' for Inactive)
REMARK    1  A    between atoms: C_1  and  N_2
REMARK    2  A    between atoms: N_2  and  C_3
REMARK    3  A    between atoms: C_7  and  N_10
REMARK    4  A    between atoms: C_16  and  C_19
REMARK    5  A    between atoms: C_19  and  C_21
REMARK    6  A    between atoms: C_19  and  O_28
REMARK                            x       y       z     vdW  Elec       q    Type
REMARK                         _______ _______ _______ _____ _____    ______ ____
ROOT
ATOM      1  N   UNL     1       0.041  -2.655  -4.842  0.00  0.00    -0.268 N 
ATOM      2  C   UNL     1      -0.123  -1.933  -5.968  0.00  0.00    +0.306 C 
ATOM      3  O   UNL     1      -0.178  -0.720  -5.910  0.00  0.00    -0.252 OA
ATOM      4  N   UNL     1      -0.227  -2.556  -7.159  0.00  0.00    -0.285 N 
ATOM      5  C   UNL     1      -0.331  -4.020  -7.232  0.00  0.00    +0.109 C 
ATOM      6  C   UNL     1       0.757  -4.545  -8.175  0.00  0.00    +0.025 C 
ATOM      7  C   UNL     1       0.638  -3.838  -9.527  0.00  0.00    +0.025 C 
ATOM      8  C   UNL     1       0.847  -2.334  -9.339  0.00  0.00    +0.025 C 
ATOM      9  C   UNL     1      -0.245  -1.784  -8.409  0.00  0.00    +0.109 C 
ATOM     10  H   UNL     1       0.217  -3.608  -4.898  0.00  0.00    +0.156 HD
ENDROOT
BRANCH   1  17
ATOM     11  C   UNL     1      -0.012   1.371   0.081  0.00  0.00    +0.130 C 
ATOM     12  N   UNL     1      -0.257  -0.072   0.026  0.00  0.00    -0.323 N 
ATOM     13  C   UNL     1      -0.575  -0.809   1.252  0.00  0.00    +0.130 C 
ATOM     14  C   UNL     1      -0.187  -0.744  -1.192  0.00  0.00    +0.098 A 
ATOM     15  C   UNL     1      -0.426  -2.114  -1.236  0.00  0.00    +0.043 A 
ATOM     16  C   UNL     1      -0.355  -2.771  -2.451  0.00  0.00    +0.028 A 
ATOM     17  C   UNL     1      -0.043  -2.030  -3.590  0.00  0.00    +0.051 A 
ATOM     18  C   UNL     1       0.183  -0.668  -3.469  0.00  0.00    +0.107 A 
ATOM     19  N   UNL     1       0.101  -0.072  -2.295  0.00  0.00    -0.348 N 
ATOM     20  H   UNL     1       0.260   0.884  -2.238  0.00  0.00    +0.167 HD
ENDBRANCH   1  17
BRANCH   7  21
ATOM     21  C   UNL     1       1.700  -4.385 -10.483  0.00  0.00    +0.148 C 
BRANCH  21  22
ATOM     22  C   UNL     1       1.584  -3.689 -11.815  0.00  0.00    -0.019 A 
ATOM     23  C   UNL     1       2.219  -2.479 -12.020  0.00  0.00    +0.007 A 
ATOM     24  C   UNL     1       2.112  -1.840 -13.241  0.00  0.00    +0.020 A 
ATOM     25  C   UNL     1       1.369  -2.413 -14.258  0.00  0.00    +0.041 A 
ATOM     26  C   UNL     1       0.734  -3.624 -14.052  0.00  0.00    +0.020 A 
ATOM     27  C   UNL     1       0.846  -4.264 -12.832  0.00  0.00    +0.007 A 
ATOM     28 CL   UNL     1       1.234  -1.611 -15.792  0.00  0.00    -0.084 Cl
ENDBRANCH  21  22
BRANCH  21  29
ATOM     29  O   UNL     1       2.999  -4.150  -9.935  0.00  0.00    -0.387 OA
ATOM     30  H   UNL     1       3.201  -3.216  -9.788  0.00  0.00    +0.210 HD
ENDBRANCH  21  29
ENDBRANCH   7  21
TORSDOF 4
