REMARK  Name = ZINC57961602
REMARK  5 active torsions:
REMARK  status: ('A' for Active; 'I' for Inactive)
REMARK    1  A    between atoms: C_4  and  C_7
REMARK    2  A    between atoms: C_8  and  C_18
REMARK    3  A    between atoms: N_10  and  C_12
REMARK    4  A    between atoms: N_20  and  N_21
REMARK    5  A    between atoms: C_22  and  C_24
REMARK                            x       y       z     vdW  Elec       q    Type
REMARK                         _______ _______ _______ _____ _____    ______ ____
ROOT
ATOM      1  C   UNL     1       3.703  -0.679  -0.025  0.00  0.00    +0.105 A 
ATOM      2  C   UNL     1       4.026  -1.908   0.706  0.00  0.00    +0.084 A 
ATOM      3  C   UNL     1       5.328  -2.227   0.376  0.00  0.00    +0.128 A 
ATOM      4  N   UNL     1       5.778  -1.291  -0.477  0.00  0.00    -0.239 N 
ATOM      5  N   UNL     1       4.771  -0.352  -0.718  0.00  0.00    -0.166 NA
ENDROOT
BRANCH   1   9
ATOM      6  C   UNL     1       0.007   1.419   0.066  0.00  0.00    +0.000 A 
ATOM      7  C   UNL     1       0.559   0.945   1.242  0.00  0.00    +0.001 A 
ATOM      8  C   UNL     1       1.758   0.263   1.218  0.00  0.00    +0.010 A 
ATOM      9  C   UNL     1       2.414   0.052   0.006  0.00  0.00    +0.003 A 
ATOM     10  C   UNL     1       1.853   0.533  -1.176  0.00  0.00    +0.010 A 
ATOM     11  C   UNL     1       0.653   1.213  -1.140  0.00  0.00    +0.001 A 
ENDBRANCH   1   9
BRANCH   4  12
ATOM     12  C   UNL     1       7.059  -1.263  -1.043  0.00  0.00    +0.065 A 
ATOM     13  C   UNL     1       7.976  -2.260  -0.737  0.00  0.00    +0.028 A 
ATOM     14  C   UNL     1       9.238  -2.230  -1.297  0.00  0.00    +0.002 A 
ATOM     15  C   UNL     1       9.589  -1.209  -2.161  0.00  0.00    +0.000 A 
ATOM     16  C   UNL     1       8.678  -0.215  -2.467  0.00  0.00    +0.002 A 
ATOM     17  C   UNL     1       7.412  -0.242  -1.916  0.00  0.00    +0.028 A 
ENDBRANCH   4  12
BRANCH   2  18
ATOM     18  C   UNL     1       3.138  -2.655   1.613  0.00  0.00    +0.264 C 
ATOM     19  O   UNL     1       1.975  -2.322   1.735  0.00  0.00    -0.269 OA
ATOM     20  N   UNL     1       3.614  -3.708   2.306  0.00  0.00    -0.230 N 
ATOM     21  H   UNL     1       4.542  -3.974   2.209  0.00  0.00    +0.173 HD
BRANCH  20  22
ATOM     22  N   UNL     1       2.769  -4.418   3.169  0.00  0.00    -0.229 N 
ATOM     23  C   UNL     1       3.245  -5.471   3.863  0.00  0.00    +0.276 C 
ATOM     24  O   UNL     1       4.409  -5.805   3.740  0.00  0.00    -0.267 OA
ATOM     25  H   UNL     1       1.841  -4.152   3.267  0.00  0.00    +0.173 HD
BRANCH  23  26
ATOM     26  C   UNL     1       2.360  -6.215   4.766  0.00  0.00    +0.104 A 
ATOM     27  C   UNL     1       2.711  -7.302   5.538  0.00  0.00    +0.047 A 
ATOM     28  C   UNL     1       1.567  -7.694   6.240  0.00  0.00    +0.036 A 
ATOM     29  C   UNL     1       0.559  -6.858   5.892  0.00  0.00    +0.098 A 
ATOM     30  N   UNL     1       1.030  -5.951   5.001  0.00  0.00    -0.356 N 
ATOM     31  H   UNL     1       0.515  -5.236   4.596  0.00  0.00    +0.166 HD
ATOM     32 BR   UNL     1       1.447  -9.136   7.458  0.00  0.00    -0.049 Br
ENDBRANCH  23  26
ENDBRANCH  20  22
ENDBRANCH   2  18
TORSDOF 5
