REMARK  Name = ZINC39748825
REMARK  14 active torsions:
REMARK  status: ('A' for Active; 'I' for Inactive)
REMARK    1  A    between atoms: C_1  and  C_2
REMARK    2  A    between atoms: C_2  and  C_3
REMARK    3  A    between atoms: C_3  and  C_5
REMARK    4  A    between atoms: C_3  and  S_17
REMARK    5  A    between atoms: N_7  and  C_8
REMARK    6  A    between atoms: C_11  and  N_14
REMARK    7  A    between atoms: S_17  and  C_18
REMARK    8  A    between atoms: C_21  and  C_24
REMARK    9  A    between atoms: N_22  and  C_23
REMARK   10  A    between atoms: C_24  and  C_26
REMARK   11  A    between atoms: C_24  and  N_29
REMARK   12  A    between atoms: C_26  and  C_27
REMARK   13  A    between atoms: C_26  and  C_28
REMARK   14  A    between atoms: C_30  and  C_32
REMARK                            x       y       z     vdW  Elec       q    Type
REMARK                         _______ _______ _______ _____ _____    ______ ____
ROOT
ATOM      1  C   UNL     1      -1.709   1.856  -1.298  0.00  0.00    +0.192 A 
ATOM      2  N   UNL     1      -0.983   2.445  -0.377  0.00  0.00    -0.122 NA
ATOM      3  N   UNL     1      -1.020   3.719  -0.539  0.00  0.00    -0.132 NA
ATOM      4  C   UNL     1      -1.765   4.018  -1.565  0.00  0.00    +0.155 A 
ATOM      5  N   UNL     1      -2.227   2.842  -2.089  0.00  0.00    -0.308 N 
ATOM      6  C   UNL     1      -3.098   2.675  -3.255  0.00  0.00    +0.152 C 
ENDROOT
BRANCH   1   7
ATOM      7  S   UNL     1      -1.962   0.123  -1.485  0.00  0.00    -0.073 S 
BRANCH   7   8
ATOM      8  C   UNL     1      -1.137  -0.599  -0.040  0.00  0.00    +0.140 C 
BRANCH   8   9
ATOM      9  C   UNL     1      -1.908  -0.247   1.207  0.00  0.00    +0.231 C 
ATOM     10  O   UNL     1      -3.092   0.007   1.137  0.00  0.00    -0.274 OA
ATOM     11  N   UNL     1      -1.281  -0.213   2.400  0.00  0.00    -0.285 N 
ATOM     12  H   UNL     1      -0.352  -0.483   2.467  0.00  0.00    +0.155 HD
BRANCH  11  13
ATOM     13  C   UNL     1      -1.971   0.211   3.541  0.00  0.00    +0.034 A 
ATOM     14  C   UNL     1      -1.310   0.936   4.524  0.00  0.00    +0.025 A 
ATOM     15  C   UNL     1      -1.994   1.354   5.649  0.00  0.00    +0.034 A 
ATOM     16  C   UNL     1      -3.335   1.051   5.797  0.00  0.00    +0.126 A 
ATOM     17  C   UNL     1      -3.996   0.329   4.820  0.00  0.00    +0.034 A 
ATOM     18  C   UNL     1      -3.319  -0.086   3.690  0.00  0.00    +0.025 A 
BRANCH  16  19
ATOM     19  N   UNL     1      -4.064   1.500   7.004  0.00  0.00    +0.056 N 
ATOM     20  O   UNL     1      -3.488   2.131   7.859  0.00  0.00    -0.126 OA
ATOM     21  O   UNL     1      -5.237   1.236   7.135  0.00  0.00    -0.126 OA
ENDBRANCH  16  19
ENDBRANCH  11  13
ENDBRANCH   8   9
BRANCH   8  23
ATOM     22  C   UNL     1      -0.184  -2.482  -1.377  0.00  0.00    +0.005 C 
ATOM     23  C   UNL     1      -1.081  -2.121  -0.191  0.00  0.00    +0.020 C 
ENDBRANCH   8  23
ENDBRANCH   7   8
ENDBRANCH   1   7
BRANCH   4  24
ATOM     24  C   UNL     1      -2.060   5.402  -2.081  0.00  0.00    +0.144 C 
BRANCH  24  25
ATOM     25  N   UNL     1      -0.820   6.182  -2.124  0.00  0.00    -0.299 N 
ATOM     26  C   UNL     1      -0.704   7.217  -2.979  0.00  0.00    +0.280 C 
ATOM     27  O   UNL     1      -1.630   7.505  -3.715  0.00  0.00    -0.267 OA
ATOM     28  H   UNL     1      -0.082   5.952  -1.538  0.00  0.00    +0.150 HD
BRANCH  26  29
ATOM     29  C   UNL     1       0.537   7.997  -3.022  0.00  0.00    +0.189 A 
ATOM     30  C   UNL     1       0.784   9.068  -3.833  0.00  0.00    +0.054 A 
ATOM     31  C   UNL     1       2.086   9.503  -3.541  0.00  0.00    +0.042 A 
ATOM     32  C   UNL     1       2.571   8.688  -2.578  0.00  0.00    +0.196 A 
ATOM     33  O   UNL     1       1.633   7.786  -2.264  0.00  0.00    -0.458 OA
ENDBRANCH  26  29
ENDBRANCH  24  25
BRANCH  24  34
ATOM     34  C   UNL     1      -3.063   6.091  -1.153  0.00  0.00    +0.011 C 
ATOM     35  C   UNL     1      -3.362   7.497  -1.678  0.00  0.00    +0.009 C 
ATOM     36  C   UNL     1      -4.358   5.277  -1.108  0.00  0.00    +0.009 C 
ENDBRANCH  24  34
ENDBRANCH   4  24
TORSDOF 10
