REMARK  Name = ZINC04959500
REMARK  5 active torsions:
REMARK  status: ('A' for Active; 'I' for Inactive)
REMARK    1  A    between atoms: C_1  and  C_2
REMARK    2  A    between atoms: C_2  and  O_3
REMARK    3  A    between atoms: O_3  and  C_4
REMARK    4  A    between atoms: C_11  and  C_20
REMARK    5  A    between atoms: C_23  and  N_26
REMARK                            x       y       z     vdW  Elec       q    Type
REMARK                         _______ _______ _______ _____ _____    ______ ____
ROOT
ATOM      1  C   UNL     1       1.502   4.008   0.162  0.00  0.00    +0.142 A 
ATOM      2  C   UNL     1       0.550   5.005   0.249  0.00  0.00    +0.047 A 
ATOM      3  C   UNL     1       0.936   6.331   0.307  0.00  0.00    +0.004 A 
ATOM      4  C   UNL     1       2.278   6.656   0.260  0.00  0.00    +0.006 A 
ATOM      5  C   UNL     1       3.236   5.668   0.159  0.00  0.00    -0.016 A 
ATOM      6  C   UNL     1       2.865   4.323   0.114  0.00  0.00    +0.074 A 
ATOM      7  N   UNL     1       3.771   3.263   0.041  0.00  0.00    -0.334 N 
ATOM      8  C   UNL     1       5.194   3.616  -0.089  0.00  0.00    +0.105 C 
ATOM      9  C   UNL     1       5.435   4.823   0.794  0.00  0.00    +0.029 C 
ATOM     10  C   UNL     1       4.678   5.988   0.083  0.00  0.00    +0.049 C 
ATOM     11  C   UNL     1       5.262   7.199   0.710  0.00  0.00    -0.023 C 
ATOM     12  C   UNL     1       6.503   6.920   1.095  0.00  0.00    -0.030 C 
ATOM     13  C   UNL     1       6.830   5.458   0.778  0.00  0.00    +0.033 C 
ATOM     14  H   UNL     1       3.496   2.601  -0.670  0.00  0.00    +0.147 HD
ENDROOT
BRANCH   8  15
ATOM     15  C   UNL     1       5.509   3.958  -1.523  0.00  0.00    -0.027 A 
ATOM     16  C   UNL     1       4.505   4.397  -2.366  0.00  0.00    +0.008 A 
ATOM     17  C   UNL     1       4.796   4.715  -3.680  0.00  0.00    +0.033 A 
ATOM     18  C   UNL     1       6.088   4.583  -4.153  0.00  0.00    +0.126 A 
ATOM     19  C   UNL     1       7.091   4.139  -3.312  0.00  0.00    +0.033 A 
ATOM     20  C   UNL     1       6.801   3.826  -1.996  0.00  0.00    +0.008 A 
BRANCH  18  21
ATOM     21  N   UNL     1       6.398   4.918  -5.561  0.00  0.00    +0.056 N 
ATOM     22  O   UNL     1       7.536   4.801  -5.979  0.00  0.00    -0.126 OA
ATOM     23  O   UNL     1       5.514   5.309  -6.303  0.00  0.00    -0.126 OA
ENDBRANCH  18  21
ENDBRANCH   8  15
BRANCH   1  24
ATOM     24  O   UNL     1       1.110   2.706   0.117  0.00  0.00    -0.490 OA
BRANCH  24  26
ATOM     25  C   UNL     1      -0.539   0.940   0.108  0.00  0.00    +0.048 C 
ATOM     26  C   UNL     1      -0.294   2.449   0.170  0.00  0.00    +0.226 C 
ENDBRANCH  24  26
ENDBRANCH   1  24
TORSDOF 4
