REMARK  Name = ZINC08711321
REMARK  10 active torsions:
REMARK  status: ('A' for Active; 'I' for Inactive)
REMARK    1  A    between atoms: C_1  and  C_2
REMARK    2  A    between atoms: C_4  and  C_32
REMARK    3  A    between atoms: N_5  and  C_7
REMARK    4  A    between atoms: C_10  and  C_13
REMARK    5  A    between atoms: C_13  and  O_15
REMARK    6  A    between atoms: O_15  and  C_16
REMARK    7  A    between atoms: C_16  and  C_18
REMARK    8  A    between atoms: C_16  and  C_19
REMARK    9  A    between atoms: N_21  and  C_22
REMARK   10  A    between atoms: C_24  and  N_29
REMARK                            x       y       z     vdW  Elec       q    Type
REMARK                         _______ _______ _______ _____ _____    ______ ____
ROOT
ATOM      1  O   UNL     1       3.350   7.427  -0.182  0.00  0.00    -0.449 OA
ENDROOT
BRANCH   1   2
ATOM      2  C   UNL     1       4.306   8.224   0.333  0.00  0.00    +0.340 C 
ATOM      3  O   UNL     1       5.344   7.743   0.742  0.00  0.00    -0.245 OA
BRANCH   2   7
ATOM      4  C   UNL     1       3.695  12.422   0.521  0.00  0.00    +0.066 A 
ATOM      5  C   UNL     1       4.883  11.873   0.991  0.00  0.00    +0.028 A 
ATOM      6  C   UNL     1       5.085  10.512   0.932  0.00  0.00    +0.017 A 
ATOM      7  C   UNL     1       4.094   9.683   0.398  0.00  0.00    +0.059 A 
ATOM      8  C   UNL     1       2.904  10.239  -0.078  0.00  0.00    +0.017 A 
ATOM      9  C   UNL     1       2.707  11.601  -0.011  0.00  0.00    +0.028 A 
BRANCH   4  14
ATOM     10  C   UNL     1       3.847  17.110   2.123  0.00  0.00    +0.067 C 
ATOM     11  C   UNL     1       3.568  15.878   1.301  0.00  0.00    +0.061 A 
ATOM     12  C   UNL     1       2.857  15.841   0.096  0.00  0.00    +0.047 A 
ATOM     13  C   UNL     1       2.828  14.558  -0.332  0.00  0.00    +0.042 A 
ATOM     14  N   UNL     1       3.494  13.805   0.582  0.00  0.00    -0.237 N 
ATOM     15  N   UNL     1       3.950  14.661   1.592  0.00  0.00    -0.171 NA
ATOM     16  C   UNL     1       2.172  14.055  -1.591  0.00  0.00    +0.066 C 
ENDBRANCH   4  14
ENDBRANCH   2   7
ENDBRANCH   1   2
BRANCH   1  17
ATOM     17  C   UNL     1       3.627   6.002  -0.215  0.00  0.00    +0.259 C 
ATOM     18  C   UNL     1       4.310   5.646  -1.537  0.00  0.00    +0.062 C 
BRANCH  17  19
ATOM     19  C   UNL     1       2.336   5.236  -0.093  0.00  0.00    +0.258 C 
ATOM     20  O   UNL     1       1.278   5.829  -0.081  0.00  0.00    -0.271 OA
ATOM     21  N   UNL     1       2.356   3.891   0.001  0.00  0.00    -0.281 N 
ATOM     22  H   UNL     1       3.202   3.423   0.072  0.00  0.00    +0.155 HD
BRANCH  21  23
ATOM     23  C   UNL     1       1.155   3.171  -0.003  0.00  0.00    +0.054 A 
ATOM     24  C   UNL     1       0.022   3.711  -0.598  0.00  0.00    +0.057 A 
ATOM     25  C   UNL     1      -1.161   2.998  -0.600  0.00  0.00    +0.128 A 
ATOM     26  C   UNL     1      -1.217   1.746  -0.015  0.00  0.00    +0.034 A 
ATOM     27  C   UNL     1      -0.093   1.208   0.583  0.00  0.00    +0.024 A 
ATOM     28  C   UNL     1       1.095   1.915   0.588  0.00  0.00    +0.062 A 
ATOM     29 CL   UNL     1       2.508   1.236   1.334  0.00  0.00    -0.082 Cl
BRANCH  25  30
ATOM     30  N   UNL     1      -2.369   3.573  -1.234  0.00  0.00    +0.056 N 
ATOM     31  O   UNL     1      -2.319   4.673  -1.753  0.00  0.00    -0.126 OA
ATOM     32  O   UNL     1      -3.412   2.945  -1.236  0.00  0.00    -0.126 OA
ENDBRANCH  25  30
ENDBRANCH  21  23
ENDBRANCH  17  19
ENDBRANCH   1  17
TORSDOF 7
