REMARK  Name = ZINC35775239
REMARK  10 active torsions:
REMARK  status: ('A' for Active; 'I' for Inactive)
REMARK    1  A    between atoms: C_3  and  C_6
REMARK    2  A    between atoms: C_6  and  N_7
REMARK    3  A    between atoms: N_7  and  C_8
REMARK    4  A    between atoms: C_8  and  C_9
REMARK    5  A    between atoms: C_16  and  C_18
REMARK    6  A    between atoms: C_18  and  N_19
REMARK    7  A    between atoms: N_19  and  C_20
REMARK    8  A    between atoms: C_20  and  C_21
REMARK    9  A    between atoms: N_29  and  C_30
REMARK   10  A    between atoms: C_33  and  N_36
REMARK                            x       y       z     vdW  Elec       q    Type
REMARK                         _______ _______ _______ _____ _____    ______ ____
ROOT
ATOM      1  N   UNL     1       3.306   5.469   2.207  0.00  0.00    -0.274 N 
ATOM      2  C   UNL     1       2.239   5.628   3.014  0.00  0.00    +0.307 C 
ATOM      3  O   UNL     1       1.332   4.818   2.991  0.00  0.00    -0.252 OA
ATOM      4  N   UNL     1       2.176   6.686   3.847  0.00  0.00    -0.269 N 
ATOM      5  H   UNL     1       2.927   7.296   3.915  0.00  0.00    +0.156 HD
ENDROOT
BRANCH   4   6
ATOM      6  C   UNL     1       1.026   6.904   4.615  0.00  0.00    +0.035 A 
ATOM      7  C   UNL     1       0.599   8.200   4.874  0.00  0.00    +0.025 A 
ATOM      8  C   UNL     1      -0.537   8.412   5.632  0.00  0.00    +0.034 A 
ATOM      9  C   UNL     1      -1.247   7.337   6.132  0.00  0.00    +0.126 A 
ATOM     10  C   UNL     1      -0.823   6.045   5.876  0.00  0.00    +0.034 A 
ATOM     11  C   UNL     1       0.308   5.826   5.115  0.00  0.00    +0.025 A 
BRANCH   9  12
ATOM     12  N   UNL     1      -2.463   7.568   6.944  0.00  0.00    +0.056 N 
ATOM     13  O   UNL     1      -2.834   8.696   7.169  0.00  0.00    -0.126 OA
ATOM     14  O   UNL     1      -3.085   6.628   7.382  0.00  0.00    -0.126 OA
ENDBRANCH   9  12
ENDBRANCH   4   6
BRANCH   1  15
ATOM     15  C   UNL     1       3.374   4.319   1.301  0.00  0.00    +0.205 C 
BRANCH  15  17
ATOM     16  N   UNL     1       4.224   1.997   1.357  0.00  0.00    -0.291 N 
ATOM     17  C   UNL     1       4.049   3.168   2.001  0.00  0.00    +0.234 C 
ATOM     18  O   UNL     1       4.435   3.295   3.144  0.00  0.00    -0.274 OA
BRANCH  16  19
ATOM     19  C   UNL     1       3.758   1.843  -0.023  0.00  0.00    +0.150 C 
BRANCH  19  22
ATOM     20  C   UNL     1      -0.022   1.369  -0.012  0.00  0.00    +0.008 A 
ATOM     21  C   UNL     1       1.181   2.049  -0.011  0.00  0.00    +0.013 A 
ATOM     22  C   UNL     1       2.337   1.341  -0.021  0.00  0.00    +0.007 A 
ATOM     23  S   UNL     1       1.739  -0.341  -0.030  0.00  0.00    -0.100 S 
ATOM     24  C   UNL     1      -0.010   0.013  -0.021  0.00  0.00    +0.045 A 
ENDBRANCH  19  22
ENDBRANCH  16  19
BRANCH  16  25
ATOM     25  C   UNL     1       4.880   0.877   2.038  0.00  0.00    +0.143 C 
BRANCH  25  26
ATOM     26  C   UNL     1       6.365   0.943   1.796  0.00  0.00    -0.030 A 
ATOM     27  C   UNL     1       6.915   0.305   0.700  0.00  0.00    +0.008 A 
ATOM     28  C   UNL     1       8.278   0.365   0.477  0.00  0.00    +0.038 A 
ATOM     29  C   UNL     1       9.092   1.065   1.351  0.00  0.00    +0.123 A 
ATOM     30  C   UNL     1       8.540   1.704   2.448  0.00  0.00    +0.038 A 
ATOM     31  C   UNL     1       7.177   1.647   2.667  0.00  0.00    +0.008 A 
ATOM     32  F   UNL     1      10.424   1.124   1.134  0.00  0.00    -0.205 F 
ENDBRANCH  25  26
ENDBRANCH  16  25
ENDBRANCH  15  17
ENDBRANCH   1  15
BRANCH   1  33
ATOM     33  C   UNL     1       4.398   6.445   2.235  0.00  0.00    +0.141 C 
BRANCH  33  34
ATOM     34  C   UNL     1       4.117   7.554   1.219  0.00  0.00    +0.136 C 
ATOM     35  C   UNL     1       5.278   8.580   1.208  0.00  0.00    +0.035 C 
ATOM     36  C   UNL     1       5.138   9.168  -0.223  0.00  0.00    +0.031 C 
ATOM     37  C   UNL     1       4.657   7.946  -1.034  0.00  0.00    +0.160 C 
ATOM     38  O   UNL     1       4.079   7.013  -0.111  0.00  0.00    -0.375 OA
ENDBRANCH  33  34
ENDBRANCH   1  33
TORSDOF 10
