REMARK  Name = ZINC05725145
REMARK  6 active torsions:
REMARK  status: ('A' for Active; 'I' for Inactive)
REMARK    1  A    between atoms: C_1  and  C_2
REMARK    2  A    between atoms: C_2  and  C_10
REMARK    3  A    between atoms: C_3  and  C_4
REMARK    4  A    between atoms: N_11  and  N_12
REMARK    5  A    between atoms: C_13  and  C_15
REMARK    6  A    between atoms: C_18  and  N_21
REMARK                            x       y       z     vdW  Elec       q    Type
REMARK                         _______ _______ _______ _____ _____    ______ ____
ROOT
ATOM      1  N   UNL     1       2.501  -2.683  -0.160  0.00  0.00    -0.203 N 
ATOM      2  C   UNL     1       1.345  -1.990  -0.159  0.00  0.00    +0.263 C 
ATOM      3  O   UNL     1       0.282  -2.580  -0.132  0.00  0.00    -0.268 OA
ATOM      4  H   UNL     1       3.348  -2.212  -0.182  0.00  0.00    +0.178 HD
ENDROOT
BRANCH   2   5
ATOM      5  C   UNL     1       1.369  -0.513  -0.191  0.00  0.00    +0.038 A 
ATOM      6  C   UNL     1       0.173   0.208  -0.189  0.00  0.00    +0.015 A 
ATOM      7  C   UNL     1       0.203   1.587  -0.218  0.00  0.00    +0.033 A 
ATOM      8  C   UNL     1       1.413   2.256  -0.248  0.00  0.00    +0.126 A 
ATOM      9  C   UNL     1       2.602   1.548  -0.249  0.00  0.00    +0.033 A 
ATOM     10  C   UNL     1       2.587   0.168  -0.221  0.00  0.00    +0.015 A 
BRANCH   8  11
ATOM     11  N   UNL     1       1.438   3.736  -0.280  0.00  0.00    +0.056 N 
ATOM     12  O   UNL     1       0.393   4.362  -0.279  0.00  0.00    -0.126 OA
ATOM     13  O   UNL     1       2.502   4.327  -0.306  0.00  0.00    -0.126 OA
ENDBRANCH   8  11
ENDBRANCH   2   5
BRANCH   1  15
ATOM     14  C   UNL     1       3.595  -4.753  -0.132  0.00  0.00    +0.133 C 
ATOM     15  N   UNL     1       2.478  -4.083  -0.131  0.00  0.00    -0.188 NA
BRANCH  14  17
ATOM     16  C   UNL     1       2.255  -6.902  -0.069  0.00  0.00    +0.045 C 
ATOM     17  C   UNL     1       3.572  -6.170  -0.102  0.00  0.00    -0.030 C 
ATOM     18  C   UNL     1       4.729  -6.864  -0.103  0.00  0.00    +0.012 C 
BRANCH  18  19
ATOM     19  C   UNL     1       4.709  -8.329  -0.241  0.00  0.00    -0.025 A 
ATOM     20  C   UNL     1       5.679  -9.108   0.397  0.00  0.00    +0.008 A 
ATOM     21  C   UNL     1       5.650 -10.481   0.268  0.00  0.00    +0.001 A 
ATOM     22  C   UNL     1       4.670 -11.087  -0.500  0.00  0.00    +0.000 A 
ATOM     23  C   UNL     1       3.710 -10.322  -1.139  0.00  0.00    +0.001 A 
ATOM     24  C   UNL     1       3.723  -8.948  -1.015  0.00  0.00    +0.008 A 
ENDBRANCH  18  19
ENDBRANCH  14  17
ENDBRANCH   1  15
TORSDOF 5
