REMARK  Name = ZINC05602113
REMARK  8 active torsions:
REMARK  status: ('A' for Active; 'I' for Inactive)
REMARK    1  A    between atoms: C_1  and  C_2
REMARK    2  A    between atoms: C_7  and  C_14
REMARK    3  A    between atoms: C_9  and  C_12
REMARK    4  A    between atoms: C_14  and  C_15
REMARK    5  A    between atoms: C_15  and  O_16
REMARK    6  A    between atoms: O_16  and  C_17
REMARK    7  A    between atoms: N_19  and  C_20
REMARK    8  A    between atoms: C_23  and  N_26
REMARK                            x       y       z     vdW  Elec       q    Type
REMARK                         _______ _______ _______ _____ _____    ______ ____
ROOT
ATOM      1  O   UNL     1      -6.224   5.900   0.047  0.00  0.00    -0.450 OA
ENDROOT
BRANCH   1   2
ATOM      2  C   UNL     1      -5.053   5.244  -0.064  0.00  0.00    +0.405 C 
ATOM      3  O   UNL     1      -4.006   5.859  -0.019  0.00  0.00    -0.226 OA
ATOM      4  N   UNL     1      -5.043   3.906  -0.224  0.00  0.00    -0.251 N 
ATOM      5  H   UNL     1      -5.877   3.425  -0.338  0.00  0.00    +0.158 HD
BRANCH   4   6
ATOM      6  C   UNL     1      -3.828   3.211  -0.228  0.00  0.00    +0.037 A 
ATOM      7  C   UNL     1      -2.776   3.646   0.568  0.00  0.00    +0.025 A 
ATOM      8  C   UNL     1      -1.578   2.958   0.563  0.00  0.00    +0.034 A 
ATOM      9  C   UNL     1      -1.426   1.837  -0.233  0.00  0.00    +0.126 A 
ATOM     10  C   UNL     1      -2.470   1.405  -1.031  0.00  0.00    +0.034 A 
ATOM     11  C   UNL     1      -3.672   2.086  -1.026  0.00  0.00    +0.025 A 
BRANCH   9  12
ATOM     12  N   UNL     1      -0.141   1.102  -0.237  0.00  0.00    +0.056 N 
ATOM     13  O   UNL     1       0.781   1.485   0.461  0.00  0.00    -0.126 OA
ATOM     14  O   UNL     1      -0.008   0.113  -0.934  0.00  0.00    -0.126 OA
ENDBRANCH   9  12
ENDBRANCH   4   6
ENDBRANCH   1   2
BRANCH   1  15
ATOM     15  C   UNL     1      -6.160   7.340   0.218  0.00  0.00    +0.234 C 
BRANCH  15  16
ATOM     16  C   UNL     1      -7.577   7.905   0.324  0.00  0.00    +0.045 C 
BRANCH  16  23
ATOM     17  C   UNL     1     -10.003  13.701  -0.427  0.00  0.00    +0.109 C 
ATOM     18  C   UNL     1      -8.699  13.101  -0.886  0.00  0.00    +0.212 C 
ATOM     19  O   UNL     1      -8.154  13.525  -1.883  0.00  0.00    -0.276 OA
ATOM     20  N   UNL     1      -8.139  12.092  -0.190  0.00  0.00    -0.301 N 
ATOM     21  C   UNL     1      -6.813  11.575  -0.556  0.00  0.00    +0.108 C 
ATOM     22  C   UNL     1      -6.912  10.059  -0.753  0.00  0.00    +0.023 C 
ATOM     23  C   UNL     1      -7.510   9.423   0.504  0.00  0.00    +0.002 C 
ATOM     24  C   UNL     1      -8.919   9.973   0.736  0.00  0.00    +0.032 C 
ATOM     25  C   UNL     1      -8.843  11.488   0.950  0.00  0.00    +0.115 C 
BRANCH  24  26
ATOM     26  C   UNL     1      -9.519   9.321   1.955  0.00  0.00    -0.029 C 
ATOM     27  C   UNL     1     -10.625   8.627   1.849  0.00  0.00    +0.004 C 
ENDBRANCH  24  26
ENDBRANCH  16  23
ENDBRANCH  15  16
ENDBRANCH   1  15
TORSDOF 7
