REMARK  Name = ZINC17085341
REMARK  9 active torsions:
REMARK  status: ('A' for Active; 'I' for Inactive)
REMARK    1  A    between atoms: C_1  and  C_2
REMARK    2  A    between atoms: C_6  and  N_9
REMARK    3  A    between atoms: C_7  and  C_8
REMARK    4  A    between atoms: C_10  and  C_12
REMARK    5  A    between atoms: C_12  and  C_13
REMARK    6  A    between atoms: N_18  and  N_19
REMARK    7  A    between atoms: C_20  and  C_21
REMARK    8  A    between atoms: C_20  and  C_22
REMARK    9  A    between atoms: C_25  and  N_28
REMARK                            x       y       z     vdW  Elec       q    Type
REMARK                         _______ _______ _______ _____ _____    ______ ____
ROOT
ATOM      1  C   UNL     1       0.226   1.540  -0.274  0.00  0.00    +0.149 C 
ATOM      2  C   UNL     1       0.354   0.027  -0.408  0.00  0.00    +0.233 C 
ATOM      3  N   UNL     1       1.558  -0.387  -0.631  0.00  0.00    -0.263 N 
ATOM      4  C   UNL     1       2.618   0.409  -0.739  0.00  0.00    +0.183 C 
ATOM      5  N   UNL     1       3.919   0.047  -0.973  0.00  0.00    -0.126 NA
ATOM      6  S   UNL     1       1.985   2.011  -0.518  0.00  0.00    -0.075 S 
ATOM      7  O   UNL     1      -0.692  -0.802  -0.305  0.00  0.00    -0.274 OA
ATOM      8  H   UNL     1       1.757  -1.463  -0.744  0.00  0.00    +0.157 HD
ENDROOT
BRANCH   5   9
ATOM      9  N   UNL     1       4.836   0.951  -1.050  0.00  0.00    -0.152 NA
ATOM     10  C   UNL     1       6.118   0.594  -1.280  0.00  0.00    +0.068 C 
ATOM     11  C   UNL     1       7.175   1.653  -1.462  0.00  0.00    +0.068 C 
BRANCH  10  12
ATOM     12  C   UNL     1       6.466  -0.763  -1.349  0.00  0.00    -0.002 A 
ATOM     13  C   UNL     1       7.720  -1.204  -0.862  0.00  0.00    +0.012 A 
ATOM     14  C   UNL     1       8.043  -2.528  -0.931  0.00  0.00    +0.033 A 
ATOM     15  C   UNL     1       7.154  -3.439  -1.488  0.00  0.00    +0.126 A 
ATOM     16  C   UNL     1       5.922  -3.018  -1.974  0.00  0.00    +0.033 A 
ATOM     17  C   UNL     1       5.571  -1.702  -1.913  0.00  0.00    +0.012 A 
BRANCH  15  18
ATOM     18  N   UNL     1       7.522  -4.871  -1.562  0.00  0.00    +0.056 N 
ATOM     19  O   UNL     1       6.684  -5.740  -2.088  0.00  0.00    -0.126 OA
ATOM     20  O   UNL     1       8.688  -5.276  -1.102  0.00  0.00    -0.126 OA
ENDBRANCH  15  18
ENDBRANCH  10  12
ENDBRANCH   5   9
BRANCH   1  21
ATOM     21  C   UNL     1      -0.272   1.937   1.118  0.00  0.00    +0.120 C 
BRANCH  21  23
ATOM     22  N   UNL     1      -0.941   4.005   2.298  0.00  0.00    -0.285 N 
ATOM     23  C   UNL     1      -0.499   3.426   1.164  0.00  0.00    +0.219 C 
ATOM     24  O   UNL     1      -0.285   4.103   0.180  0.00  0.00    -0.275 OA
ATOM     25  H   UNL     1      -1.071   3.403   3.209  0.00  0.00    +0.155 HD
BRANCH  22  31
ATOM     26  C   UNL     1      -3.695   7.721   3.965  0.00  0.00    +0.044 C 
ATOM     27  C   UNL     1      -2.564   7.202   3.115  0.00  0.00    -0.046 A 
ATOM     28  C   UNL     1      -1.815   8.079   2.352  0.00  0.00    +0.004 A 
ATOM     29  C   UNL     1      -0.776   7.606   1.571  0.00  0.00    +0.002 A 
ATOM     30  C   UNL     1      -0.484   6.256   1.551  0.00  0.00    +0.023 A 
ATOM     31  C   UNL     1      -1.235   5.373   2.316  0.00  0.00    +0.037 A 
ATOM     32  C   UNL     1      -2.281   5.850   3.095  0.00  0.00    -0.026 A 
ATOM     33  C   UNL     1      -3.103   4.895   3.921  0.00  0.00    +0.046 C 
ENDBRANCH  22  31
ENDBRANCH  21  23
ENDBRANCH   1  21
TORSDOF 6
