REMARK  Name = ZINC36188703
REMARK  10 active torsions:
REMARK  status: ('A' for Active; 'I' for Inactive)
REMARK    1  A    between atoms: C_1  and  C_2
REMARK    2  A    between atoms: C_2  and  C_3
REMARK    3  A    between atoms: C_3  and  C_4
REMARK    4  A    between atoms: C_4  and  N_5
REMARK    5  A    between atoms: C_11  and  C_16
REMARK    6  A    between atoms: C_16  and  O_18
REMARK    7  A    between atoms: O_18  and  C_19
REMARK    8  A    between atoms: C_19  and  C_21
REMARK    9  A    between atoms: C_19  and  C_22
REMARK   10  A    between atoms: N_27  and  C_28
REMARK                            x       y       z     vdW  Elec       q    Type
REMARK                         _______ _______ _______ _____ _____    ______ ____
ROOT
ATOM      1  C   UNL     1      -8.309  -4.599  -1.369  0.00  0.00    +0.340 C 
ATOM      2  O   UNL     1      -8.324  -4.600  -2.583  0.00  0.00    -0.245 OA
ENDROOT
BRANCH   1   9
ATOM      3  N   UNL     1      -2.787  -2.571   0.015  0.00  0.00    -0.234 N 
ATOM      4  C   UNL     1      -3.492  -2.834   1.129  0.00  0.00    +0.254 C 
ATOM      5  O   UNL     1      -3.097  -2.693   2.269  0.00  0.00    -0.270 OA
ATOM      6  C   UNL     1      -4.832  -3.326   0.734  0.00  0.00    +0.049 A 
ATOM      7  C   UNL     1      -5.952  -3.742   1.436  0.00  0.00    +0.014 A 
ATOM      8  C   UNL     1      -7.082  -4.155   0.750  0.00  0.00    +0.016 A 
ATOM      9  C   UNL     1      -7.098  -4.156  -0.645  0.00  0.00    +0.060 A 
ATOM     10  C   UNL     1      -5.971  -3.739  -1.360  0.00  0.00    +0.028 A 
ATOM     11  C   UNL     1      -4.841  -3.325  -0.676  0.00  0.00    +0.050 A 
ATOM     12  C   UNL     1      -3.511  -2.828  -1.089  0.00  0.00    +0.254 C 
ATOM     13  O   UNL     1      -3.135  -2.679  -2.234  0.00  0.00    -0.270 OA
BRANCH   3  14
ATOM     14  C   UNL     1      -1.413  -2.063   0.004  0.00  0.00    +0.117 C 
BRANCH  14  15
ATOM     15  C   UNL     1      -1.433  -0.534   0.013  0.00  0.00    +0.019 C 
BRANCH  15  17
ATOM     16  C   UNL     1      -0.019   1.526   0.010  0.00  0.00    +0.004 C 
ATOM     17  C   UNL     1       0.002  -0.004   0.002  0.00  0.00    -0.002 C 
ENDBRANCH  15  17
ENDBRANCH  14  15
ENDBRANCH   3  14
ENDBRANCH   1   9
BRANCH   1  18
ATOM     18  O   UNL     1      -9.395  -5.002  -0.681  0.00  0.00    -0.449 OA
BRANCH  18  19
ATOM     19  C   UNL     1     -10.529  -5.417  -1.445  0.00  0.00    +0.259 C 
ATOM     20  C   UNL     1     -10.435  -6.918  -1.723  0.00  0.00    +0.062 C 
BRANCH  19  21
ATOM     21  C   UNL     1     -11.789  -5.127  -0.671  0.00  0.00    +0.261 C 
ATOM     22  O   UNL     1     -11.722  -4.615   0.426  0.00  0.00    -0.271 OA
ATOM     23  N   UNL     1     -12.990  -5.436  -1.199  0.00  0.00    -0.237 N 
ATOM     24  C   UNL     1     -14.117  -5.176  -0.507  0.00  0.00    +0.306 C 
ATOM     25  O   UNL     1     -14.050  -4.664   0.593  0.00  0.00    -0.252 OA
ATOM     26  N   UNL     1     -15.318  -5.486  -1.034  0.00  0.00    -0.296 N 
ATOM     27  H   UNL     1     -13.043  -5.845  -2.077  0.00  0.00    +0.159 HD
ATOM     28  H   UNL     1     -15.371  -5.895  -1.912  0.00  0.00    +0.151 HD
BRANCH  26  29
ATOM     29  C   UNL     1     -16.543  -5.204  -0.282  0.00  0.00    +0.074 C 
ATOM     30  C   UNL     1     -16.831  -6.361   0.677  0.00  0.00    +0.022 C 
ATOM     31  C   UNL     1     -18.110  -6.066   1.463  0.00  0.00    +0.002 C 
ATOM     32  C   UNL     1     -19.280  -5.907   0.490  0.00  0.00    +0.000 C 
ATOM     33  C   UNL     1     -18.993  -4.750  -0.469  0.00  0.00    +0.002 C 
ATOM     34  C   UNL     1     -17.714  -5.045  -1.254  0.00  0.00    +0.022 C 
ENDBRANCH  26  29
ENDBRANCH  19  21
ENDBRANCH  18  19
ENDBRANCH   1  18
TORSDOF 8
