REMARK  Name = ZINC43549226
REMARK  7 active torsions:
REMARK  status: ('A' for Active; 'I' for Inactive)
REMARK    1  A    between atoms: C_1  and  C_2
REMARK    2  A    between atoms: C_7  and  C_9
REMARK    3  A    between atoms: C_16  and  C_37
REMARK    4  A    between atoms: C_19  and  O_36
REMARK    5  A    between atoms: C_21  and  C_25
REMARK    6  A    between atoms: C_25  and  C_27
REMARK    7  A    between atoms: C_25  and  C_28
REMARK                            x       y       z     vdW  Elec       q    Type
REMARK                         _______ _______ _______ _____ _____    ______ ____
ROOT
ATOM      1  C   UNL     1      -0.332   1.494   0.013  0.00  0.00    +0.014 C 
ATOM      2  C   UNL     1      -0.341  -0.035   0.064  0.00  0.00    +0.042 C 
ATOM      3  C   UNL     1      -1.716  -0.522   0.510  0.00  0.00    +0.056 A 
ATOM      4  C   UNL     1      -1.905  -0.928   1.796  0.00  0.00    +0.014 A 
ATOM      5  S   UNL     1      -3.620  -1.384   1.814  0.00  0.00    -0.070 S 
ATOM      6  C   UNL     1      -3.953  -0.998   0.098  0.00  0.00    +0.128 A 
ATOM      7  N   UNL     1      -2.765  -0.574  -0.303  0.00  0.00    -0.242 NA
ATOM      8  C   UNL     1      -0.908  -0.973   2.901  0.00  0.00    +0.051 C 
ATOM      9  C   UNL     1       0.323  -0.143   2.493  0.00  0.00    -0.022 C 
ATOM     10  C   UNL     1       0.711  -0.518   1.056  0.00  0.00    +0.033 C 
ATOM     11  C   UNL     1       0.889  -2.032   0.963  0.00  0.00    +0.123 C 
ATOM     12  C   UNL     1       2.021  -2.462   1.900  0.00  0.00    +0.029 C 
ATOM     13  C   UNL     1       1.687  -2.055   3.336  0.00  0.00    +0.007 C 
ATOM     14  C   UNL     1       1.485  -0.538   3.417  0.00  0.00    +0.008 C 
ATOM     15  C   UNL     1       0.025   1.354   2.611  0.00  0.00    +0.012 C 
ENDROOT
BRANCH   6  16
ATOM     16  C   UNL     1      -5.213  -1.119  -0.665  0.00  0.00    +0.113 A 
ATOM     17  C   UNL     1      -6.405  -1.561  -0.179  0.00  0.00    +0.114 A 
ATOM     18  N   UNL     1      -7.293  -1.512  -1.216  0.00  0.00    -0.350 N 
ATOM     19  H   UNL     1      -8.229  -1.764  -1.182  0.00  0.00    +0.166 HD
ATOM     20  C   UNL     1      -6.625  -1.044  -2.300  0.00  0.00    +0.197 A 
ATOM     21  N   UNL     1      -5.389  -0.806  -1.966  0.00  0.00    -0.234 NA
ENDBRANCH   6  16
BRANCH  12  22
ATOM     22  C   UNL     1       2.192  -3.981   1.830  0.00  0.00    +0.078 C 
ATOM     23  C   UNL     1       3.323  -4.411   2.766  0.00  0.00    +0.017 C 
BRANCH  22  24
ATOM     24  C   UNL     1       2.528  -4.383   0.417  0.00  0.00    +0.219 C 
ATOM     25  O   UNL     1       3.048  -3.585  -0.334  0.00  0.00    -0.275 OA
ATOM     26  N   UNL     1       2.251  -5.630  -0.012  0.00  0.00    -0.300 N 
ATOM     27  C   UNL     1       1.523  -6.551   0.862  0.00  0.00    +0.118 C 
ATOM     28  C   UNL     1       0.154  -6.864   0.248  0.00  0.00    +0.088 C 
ATOM     29  S   UNL     1       0.407  -7.551  -1.417  0.00  0.00    -0.158 S 
ATOM     30  C   UNL     1       1.451  -6.301  -2.225  0.00  0.00    +0.088 C 
ATOM     31  C   UNL     1       2.677  -6.045  -1.350  0.00  0.00    +0.118 C 
ENDBRANCH  22  24
ENDBRANCH  12  22
BRANCH  11  32
ATOM     32  O   UNL     1      -0.325  -2.681   1.348  0.00  0.00    -0.391 OA
ATOM     33  H   UNL     1      -0.283  -3.647   1.312  0.00  0.00    +0.210 HD
ENDBRANCH  11  32
TORSDOF 4
