REMARK  Name = ZINC12445096
REMARK  7 active torsions:
REMARK  status: ('A' for Active; 'I' for Inactive)
REMARK    1  A    between atoms: C_8  and  N_62
REMARK    2  A    between atoms: C_12  and  C_15
REMARK    3  A    between atoms: C_15  and  N_64
REMARK    4  A    between atoms: C_16  and  C_17
REMARK    5  A    between atoms: C_16  and  N_64
REMARK    6  A    between atoms: C_23  and  C_24
REMARK    7  A    between atoms: C_23  and  N_64
REMARK                            x       y       z     vdW  Elec       q    Type
REMARK                         _______ _______ _______ _____ _____    ______ ____
ROOT
ATOM      1  C   UNL     1      -5.327   3.543  -0.460  0.00  0.00    -0.078 C 
ATOM      2  C   UNL     1      -6.685   3.539  -1.165  0.00  0.00    -0.017 C 
ATOM      3  C   UNL     1      -7.486   2.315  -0.712  0.00  0.00    -0.031 C 
ATOM      4  C   UNL     1      -6.686   1.047  -1.021  0.00  0.00    -0.017 C 
ATOM      5  C   UNL     1      -5.327   1.124  -0.320  0.00  0.00    -0.078 C 
ATOM      6  N   UNL     1      -4.596   2.308  -0.818  0.00  0.00    +0.382 N 
ATOM      7  H   UNL     1      -4.523   2.249  -1.840  0.00  0.00    -0.081 HD
ENDROOT
BRANCH   6  15
ATOM      8  C   UNL     1       1.338   3.231  -1.186  0.00  0.00    +0.000 A 
ATOM      9  C   UNL     1       1.388   1.850  -1.232  0.00  0.00    +0.000 A 
ATOM     10  C   UNL     1       0.225   1.114  -1.118  0.00  0.00    +0.004 A 
ATOM     11  C   UNL     1      -0.993   1.755  -0.964  0.00  0.00    -0.046 A 
ATOM     12  C   UNL     1      -1.043   3.135  -0.913  0.00  0.00    -0.046 A 
ATOM     13  C   UNL     1       0.125   3.872  -1.027  0.00  0.00    +0.004 A 
ATOM     14  C   UNL     1      -2.475   3.590  -0.735  0.00  0.00    +0.020 C 
ATOM     15  C   UNL     1      -3.237   2.341  -0.240  0.00  0.00    -0.060 C 
ATOM     16  C   UNL     1      -2.388   1.187  -0.815  0.00  0.00    +0.020 C 
ENDBRANCH   6  15
BRANCH   3  17
ATOM     17  C   UNL     1      -8.821   2.272  -1.459  0.00  0.00    -0.075 C 
BRANCH  17  18
ATOM     18  N   UNL     1      -9.622   3.453  -1.073  0.00  0.00    +0.385 N 
ATOM     19  H   UNL     1      -9.051   4.298  -1.194  0.00  0.00    -0.081 HD
BRANCH  18  20
ATOM     20  C   UNL     1     -10.026   3.347   0.345  0.00  0.00    -0.021 C 
BRANCH  20  21
ATOM     21  C   UNL     1     -10.504   4.697   0.814  0.00  0.00    +0.042 A 
ATOM     22  C   UNL     1     -11.784   5.116   0.848  0.00  0.00    +0.105 A 
ATOM     23  N   UNL     1     -11.769   6.393   1.341  0.00  0.00    -0.351 N 
ATOM     24  H   UNL     1     -12.565   6.979   1.494  0.00  0.00    +0.166 HD
ATOM     25  C   UNL     1     -10.480   6.713   1.583  0.00  0.00    +0.196 A 
ATOM     26  N   UNL     1      -9.729   5.694   1.266  0.00  0.00    -0.243 NA
ENDBRANCH  20  21
ENDBRANCH  18  20
BRANCH  18  27
ATOM     27  C   UNL     1     -10.819   3.555  -1.933  0.00  0.00    -0.046 C 
BRANCH  27  28
ATOM     28  C   UNL     1     -10.397   4.105  -3.297  0.00  0.00    +0.102 C 
ATOM     29  C   UNL     1     -11.607   4.125  -4.251  0.00  0.00    +0.032 C 
ATOM     30  C   UNL     1     -11.740   5.611  -4.664  0.00  0.00    +0.030 C 
ATOM     31  C   UNL     1     -10.322   6.160  -4.361  0.00  0.00    +0.160 C 
ATOM     32  O   UNL     1      -9.940   5.461  -3.158  0.00  0.00    -0.378 OA
ENDBRANCH  27  28
ENDBRANCH  18  27
ENDBRANCH  17  18
ENDBRANCH   3  17
TORSDOF 7
