REMARK  Name = ZINC45103359
REMARK  7 active torsions:
REMARK  status: ('A' for Active; 'I' for Inactive)
REMARK    1  A    between atoms: C_1  and  C_2
REMARK    2  A    between atoms: C_4  and  C_7
REMARK    3  A    between atoms: C_7  and  C_9
REMARK    4  A    between atoms: C_7  and  S_10
REMARK    5  A    between atoms: S_10  and  C_11
REMARK    6  A    between atoms: C_14  and  C_17
REMARK    7  A    between atoms: N_15  and  N_16
REMARK                            x       y       z     vdW  Elec       q    Type
REMARK                         _______ _______ _______ _____ _____    ______ ____
ROOT
ATOM      1  C   UNL     1       1.265  -5.639  -2.415  0.00  0.00    +0.209 A 
ATOM      2  N   UNL     1       0.530  -5.628  -3.505  0.00  0.00    -0.121 NA
ATOM      3  N   UNL     1       0.780  -6.669  -4.216  0.00  0.00    -0.127 NA
ATOM      4  C   UNL     1       1.690  -7.408  -3.625  0.00  0.00    +0.182 A 
ATOM      5  N   UNL     1       2.032  -6.769  -2.455  0.00  0.00    -0.224 N 
ENDROOT
BRANCH   4   6
ATOM      6  C   UNL     1       2.245  -8.684  -4.123  0.00  0.00    +0.022 A 
ATOM      7  C   UNL     1       2.960  -9.521  -3.264  0.00  0.00    +0.012 A 
ATOM      8  C   UNL     1       3.475 -10.710  -3.735  0.00  0.00    +0.002 A 
ATOM      9  C   UNL     1       3.287 -11.075  -5.057  0.00  0.00    +0.015 A 
ATOM     10  C   UNL     1       2.580 -10.250  -5.914  0.00  0.00    +0.019 A 
ATOM     11  C   UNL     1       2.053  -9.060  -5.454  0.00  0.00    +0.027 A 
ATOM     12 BR   UNL     1       2.328 -10.758  -7.718  0.00  0.00    -0.050 Br
ENDBRANCH   4   6
BRANCH   5  13
ATOM     13  N   UNL     1       2.947  -7.179  -1.528  0.00  0.00    -0.295 N 
ATOM     14  H   UNL     1       2.515  -7.762  -0.827  0.00  0.00    +0.163 HD
ATOM     15  H   UNL     1       3.720  -7.655  -1.968  0.00  0.00    +0.163 HD
ENDBRANCH   5  13
BRANCH   1  16
ATOM     16  S   UNL     1       1.266  -4.420  -1.143  0.00  0.00    -0.072 S 
BRANCH  16  17
ATOM     17  C   UNL     1       0.038  -3.206  -1.697  0.00  0.00    +0.140 C 
ATOM     18  C   UNL     1      -1.347  -3.856  -1.721  0.00  0.00    +0.029 C 
BRANCH  17  22
ATOM     19  C   UNL     1      -0.018   1.503   0.010  0.00  0.00    +0.091 C 
ATOM     20  C   UNL     1       0.002  -0.004   0.002  0.00  0.00    +0.169 A 
ATOM     21  N   UNL     1       0.008  -0.776  -1.091  0.00  0.00    -0.195 NA
ATOM     22  C   UNL     1       0.026  -2.034  -0.750  0.00  0.00    +0.240 A 
ATOM     23  O   UNL     1       0.033  -2.107   0.587  0.00  0.00    -0.337 OA
ATOM     24  N   UNL     1       0.023  -0.767   1.057  0.00  0.00    -0.062 NA
ENDBRANCH  17  22
ENDBRANCH  16  17
ENDBRANCH   1  16
TORSDOF 5
