REMARK  Name = ZINC22494362
REMARK  5 active torsions:
REMARK  status: ('A' for Active; 'I' for Inactive)
REMARK    1  A    between atoms: C_1  and  C_2
REMARK    2  A    between atoms: C_6  and  N_28
REMARK    3  A    between atoms: C_7  and  N_8
REMARK    4  A    between atoms: C_9  and  C_11
REMARK    5  A    between atoms: C_20  and  C_23
REMARK                            x       y       z     vdW  Elec       q    Type
REMARK                         _______ _______ _______ _____ _____    ______ ____
ROOT
ATOM      1  C   UNL     1       4.193   5.741   1.471  0.00  0.00    +0.078 C 
ATOM      2  C   UNL     1       2.926   6.584   1.302  0.00  0.00    +0.032 C 
ATOM      3  C   UNL     1       1.703   5.664   1.298  0.00  0.00    +0.107 C 
ATOM      4  N   UNL     1       1.820   4.697   0.199  0.00  0.00    -0.314 N 
ATOM      5  C   UNL     1       3.003   3.845   0.364  0.00  0.00    +0.107 C 
ATOM      6  C   UNL     1       4.265   4.711   0.341  0.00  0.00    +0.032 C 
ATOM      7  C   UNL     1       0.665   3.931   0.084  0.00  0.00    +0.144 A 
ATOM      8  C   UNL     1       0.573   2.949  -0.905  0.00  0.00    +0.047 A 
ATOM      9  C   UNL     1      -0.593   2.212  -0.982  0.00  0.00    +0.034 A 
ATOM     10  C   UNL     1      -1.614   2.499  -0.065  0.00  0.00    +0.100 A 
ATOM     11  N   UNL     1      -1.433   3.449   0.846  0.00  0.00    -0.147 NA
ATOM     12  N   UNL     1      -0.348   4.131   0.913  0.00  0.00    -0.134 NA
ENDROOT
BRANCH  10  13
ATOM     13  C   UNL     1      -2.883   1.745  -0.108  0.00  0.00    +0.039 A 
ATOM     14  C   UNL     1      -3.990   1.872   0.690  0.00  0.00    +0.018 A 
ATOM     15  C   UNL     1      -5.070   1.048   0.459  0.00  0.00    +0.008 A 
ATOM     16  C   UNL     1      -5.005   0.139  -0.548  0.00  0.00    +0.046 A 
ATOM     17  S   UNL     1      -3.377   0.436  -1.217  0.00  0.00    -0.095 S 
ENDBRANCH  10  13
BRANCH   1  19
ATOM     18  N   UNL     1       6.638   6.108   1.543  0.00  0.00    -0.283 N 
ATOM     19  C   UNL     1       5.404   6.635   1.416  0.00  0.00    +0.220 C 
ATOM     20  O   UNL     1       5.269   7.830   1.257  0.00  0.00    -0.275 OA
ATOM     21  H   UNL     1       6.758   5.034   1.747  0.00  0.00    +0.155 HD
BRANCH  18  28
ATOM     22  C   UNL     1       6.900   7.673  -0.819  0.00  0.00    +0.046 C 
ATOM     23  C   UNL     1       7.933   7.706   0.278  0.00  0.00    -0.027 A 
ATOM     24  C   UNL     1       9.044   8.518   0.157  0.00  0.00    +0.005 A 
ATOM     25  C   UNL     1       9.995   8.544   1.160  0.00  0.00    +0.003 A 
ATOM     26  C   UNL     1       9.834   7.764   2.290  0.00  0.00    +0.034 A 
ATOM     27  C   UNL     1       8.723   6.955   2.420  0.00  0.00    +0.148 A 
ATOM     28  C   UNL     1       7.766   6.926   1.414  0.00  0.00    +0.067 A 
BRANCH  27  29
ATOM     29  N   UNL     1       8.551   6.120   3.630  0.00  0.00    +0.058 N 
ATOM     30  O   UNL     1       9.338   6.219   4.555  0.00  0.00    -0.126 OA
ATOM     31  O   UNL     1       7.623   5.334   3.701  0.00  0.00    -0.126 OA
ENDBRANCH  27  29
ENDBRANCH  18  28
ENDBRANCH   1  19
TORSDOF 4
