REMARK  Name = ZINC32072078
REMARK  9 active torsions:
REMARK  status: ('A' for Active; 'I' for Inactive)
REMARK    1  A    between atoms: C_1  and  C_2
REMARK    2  A    between atoms: C_10  and  O_13
REMARK    3  A    between atoms: O_13  and  C_14
REMARK    4  A    between atoms: C_16  and  O_30
REMARK    5  A    between atoms: C_18  and  C_20
REMARK    6  A    between atoms: C_23  and  O_26
REMARK    7  A    between atoms: O_26  and  C_27
REMARK    8  A    between atoms: C_27  and  C_28
REMARK    9  A    between atoms: C_27  and  C_29
REMARK                            x       y       z     vdW  Elec       q    Type
REMARK                         _______ _______ _______ _____ _____    ______ ____
ROOT
ATOM      1  C   UNL     1       0.235   0.823  -0.505  0.00  0.00    +0.068 C 
ATOM      2  C   UNL     1       0.342  -0.657  -0.768  0.00  0.00    +0.066 A 
ATOM      3  C   UNL     1       0.369  -1.257  -2.013  0.00  0.00    +0.027 A 
ATOM      4  C   UNL     1       0.479  -2.628  -1.824  0.00  0.00    +0.165 A 
ATOM      5  N   UNL     1       0.511  -2.845  -0.488  0.00  0.00    -0.194 N 
ATOM      6  N   UNL     1       0.432  -1.595   0.148  0.00  0.00    -0.168 NA
ATOM      7  C   UNL     1       0.610  -4.089   0.144  0.00  0.00    +0.178 A 
ATOM      8  C   UNL     1       1.138  -4.179   1.431  0.00  0.00    +0.055 A 
ATOM      9  C   UNL     1       1.215  -5.431   2.015  0.00  0.00    +0.072 A 
ATOM     10  C   UNL     1       0.760  -6.525   1.280  0.00  0.00    +0.234 A 
ATOM     11  N   UNL     1       0.273  -6.344   0.064  0.00  0.00    -0.110 NA
ATOM     12  N   UNL     1       0.197  -5.182  -0.476  0.00  0.00    -0.126 NA
ATOM     13  N   UNL     1       0.543  -3.491  -2.878  0.00  0.00    -0.197 NA
ATOM     14  C   UNL     1       0.787  -3.022  -4.065  0.00  0.00    +0.190 C 
ATOM     15  C   UNL     1       1.068  -1.574  -4.345  0.00  0.00    +0.108 C 
ATOM     16  C   UNL     1       0.295  -0.654  -3.393  0.00  0.00    +0.063 C 
ENDROOT
BRANCH  16  17
ATOM     17  C   UNL     1       0.922   0.716  -3.386  0.00  0.00    -0.039 A 
ATOM     18  C   UNL     1       2.251   0.865  -3.037  0.00  0.00    +0.008 A 
ATOM     19  C   UNL     1       2.828   2.120  -3.030  0.00  0.00    +0.046 A 
ATOM     20  C   UNL     1       2.072   3.232  -3.373  0.00  0.00    +0.121 A 
ATOM     21  C   UNL     1       0.739   3.080  -3.723  0.00  0.00    +0.046 A 
ATOM     22  C   UNL     1       0.168   1.822  -3.734  0.00  0.00    +0.008 A 
BRANCH  20  23
ATOM     23  O   UNL     1       2.637   4.468  -3.366  0.00  0.00    -0.489 OA
BRANCH  23  24
ATOM     24  C   UNL     1       3.978   4.565  -2.882  0.00  0.00    +0.167 C 
ATOM     25  C   UNL     1       4.955   4.253  -4.018  0.00  0.00    +0.051 C 
ATOM     26  C   UNL     1       4.233   5.983  -2.366  0.00  0.00    +0.051 C 
ENDBRANCH  23  24
ENDBRANCH  20  23
ENDBRANCH  16  17
BRANCH  10  27
ATOM     27  O   UNL     1       0.816  -7.772   1.812  0.00  0.00    -0.479 OA
ATOM     28  C   UNL     1       0.332  -8.845   1.002  0.00  0.00    +0.279 C 
ENDBRANCH  10  27
BRANCH  14  29
ATOM     29  O   UNL     1       0.788  -3.883  -5.103  0.00  0.00    -0.495 OA
ATOM     30  H   UNL     1       0.600  -4.799  -4.854  0.00  0.00    +0.293 HD
ENDBRANCH  14  29
TORSDOF 5
