REMARK  Name = ZINC21715182
REMARK  10 active torsions:
REMARK  status: ('A' for Active; 'I' for Inactive)
REMARK    1  A    between atoms: C_1  and  C_2
REMARK    2  A    between atoms: C_6  and  O_8
REMARK    3  A    between atoms: O_8  and  C_9
REMARK    4  A    between atoms: C_9  and  C_10
REMARK    5  A    between atoms: N_12  and  C_13
REMARK    6  A    between atoms: C_16  and  C_32
REMARK    7  A    between atoms: C_18  and  O_19
REMARK    8  A    between atoms: O_19  and  C_20
REMARK    9  A    between atoms: C_20  and  C_21
REMARK   10  A    between atoms: C_29  and  C_31
REMARK                            x       y       z     vdW  Elec       q    Type
REMARK                         _______ _______ _______ _____ _____    ______ ____
ROOT
ATOM      1  C   UNL     1       1.887   9.584  -0.060  0.00  0.00    +0.076 A 
ATOM      2  C   UNL     1       0.621  10.151  -0.039  0.00  0.00    +0.027 A 
ATOM      3  C   UNL     1       0.477  11.523  -0.120  0.00  0.00    +0.005 A 
ATOM      4  C   UNL     1       1.593  12.334  -0.222  0.00  0.00    -0.047 A 
ATOM      5  C   UNL     1       2.858  11.776  -0.244  0.00  0.00    +0.051 A 
ATOM      6  C   UNL     1       3.011  10.402  -0.157  0.00  0.00    +0.142 A 
ATOM      7  C   UNL     1       1.429  13.829  -0.310  0.00  0.00    +0.044 C 
ENDROOT
BRANCH   1  10
ATOM      8  C   UNL     1       1.123   7.383  -0.550  0.00  0.00    +0.255 C 
ATOM      9  O   UNL     1       0.132   7.855  -1.066  0.00  0.00    -0.272 OA
ATOM     10  N   UNL     1       2.036   8.194   0.022  0.00  0.00    -0.280 N 
ATOM     11  H   UNL     1       2.897   7.763   0.554  0.00  0.00    +0.155 HD
BRANCH   8  12
ATOM     12  C   UNL     1       1.334   5.891  -0.548  0.00  0.00    +0.324 C 
BRANCH  12  13
ATOM     13  O   UNL     1       0.238   5.255  -1.209  0.00  0.00    -0.483 OA
BRANCH  13  19
ATOM     14  C   UNL     1      -1.832   1.096  -2.705  0.00  0.00    +0.044 C 
ATOM     15  C   UNL     1      -0.716   1.838  -2.016  0.00  0.00    -0.047 A 
ATOM     16  C   UNL     1       0.346   1.139  -1.472  0.00  0.00    +0.003 A 
ATOM     17  C   UNL     1       1.374   1.817  -0.844  0.00  0.00    +0.004 A 
ATOM     18  C   UNL     1       1.340   3.196  -0.755  0.00  0.00    +0.045 A 
ATOM     19  C   UNL     1       0.274   3.899  -1.295  0.00  0.00    +0.121 A 
ATOM     20  C   UNL     1      -0.757   3.215  -1.924  0.00  0.00    +0.049 A 
ENDBRANCH  13  19
ENDBRANCH  12  13
ENDBRANCH   8  12
ENDBRANCH   1  10
BRANCH   6  21
ATOM     21  O   UNL     1       4.254   9.852  -0.173  0.00  0.00    -0.484 OA
BRANCH  21  22
ATOM     22  C   UNL     1       5.360  10.752  -0.275  0.00  0.00    +0.284 C 
BRANCH  22  23
ATOM     23  C   UNL     1       6.647   9.968  -0.277  0.00  0.00    +0.086 A 
ATOM     24  C   UNL     1       7.456   9.969  -1.394  0.00  0.00    +0.100 A 
ATOM     25  C   UNL     1       8.648   9.233  -1.372  0.00  0.00    +0.287 A 
ATOM     26  O   UNL     1       9.384   9.215  -2.346  0.00  0.00    -0.265 OA
ATOM     27  N   UNL     1       8.971   8.542  -0.255  0.00  0.00    -0.119 N 
ATOM     28  C   UNL     1       8.134   8.578   0.817  0.00  0.00    +0.177 A 
ATOM     29  N   UNL     1       7.008   9.279   0.797  0.00  0.00    -0.228 NA
ATOM     30  C   UNL     1       8.740   7.770   1.810  0.00  0.00    +0.093 A 
ATOM     31  C   UNL     1       9.881   7.331   1.230  0.00  0.00    +0.134 A 
ATOM     32  O   UNL     1       9.933   7.844  -0.003  0.00  0.00    -0.373 OA
ATOM     33  C   UNL     1      10.908   6.427   1.861  0.00  0.00    +0.089 C 
ENDBRANCH  22  23
ENDBRANCH  21  22
ENDBRANCH   6  21
TORSDOF 7
