REMARK  Name = ZINC14033419
REMARK  7 active torsions:
REMARK  status: ('A' for Active; 'I' for Inactive)
REMARK    1  A    between atoms: C_1  and  C_2
REMARK    2  A    between atoms: C_3  and  N_9
REMARK    3  A    between atoms: C_10  and  C_12
REMARK    4  A    between atoms: C_12  and  C_14
REMARK    5  A    between atoms: C_12  and  O_15
REMARK    6  A    between atoms: O_15  and  C_16
REMARK    7  A    between atoms: C_21  and  N_22
REMARK                            x       y       z     vdW  Elec       q    Type
REMARK                         _______ _______ _______ _____ _____    ______ ____
ROOT
ATOM      1  N   UNL     1       1.117   1.915  -0.071  0.00  0.00    -0.282 N 
ATOM      2  C   UNL     1      -0.077   1.290  -0.035  0.00  0.00    +0.258 C 
ATOM      3  O   UNL     1      -0.127   0.079  -0.038  0.00  0.00    -0.271 OA
ATOM      4  H   UNL     1       1.157   2.881  -0.151  0.00  0.00    +0.155 HD
ENDROOT
BRANCH   1   7
ATOM      5  C   UNL     1       3.482   3.025  -1.198  0.00  0.00    +0.047 C 
ATOM      6  C   UNL     1       3.476   1.674  -0.530  0.00  0.00    -0.011 A 
ATOM      7  C   UNL     1       2.299   1.170   0.007  0.00  0.00    +0.038 A 
ATOM      8  C   UNL     1       2.296  -0.077   0.617  0.00  0.00    +0.023 A 
ATOM      9  C   UNL     1       3.464  -0.811   0.693  0.00  0.00    +0.003 A 
ATOM     10  C   UNL     1       4.636  -0.305   0.161  0.00  0.00    +0.020 A 
ATOM     11  C   UNL     1       4.643   0.938  -0.447  0.00  0.00    +0.046 A 
ATOM     12 CL   UNL     1       6.116   1.570  -1.112  0.00  0.00    -0.083 Cl
ENDBRANCH   1   7
BRANCH   2  13
ATOM     13  C   UNL     1      -1.349   2.098   0.003  0.00  0.00    +0.256 C 
ATOM     14  C   UNL     1      -1.488   2.890  -1.298  0.00  0.00    +0.062 C 
BRANCH  13  15
ATOM     15  O   UNL     1      -2.466   1.219   0.148  0.00  0.00    -0.478 OA
BRANCH  15  16
ATOM     16  C   UNL     1      -3.592   1.740   0.703  0.00  0.00    +0.152 A 
ATOM     17  C   UNL     1      -3.590   3.038   1.192  0.00  0.00    +0.048 A 
ATOM     18  C   UNL     1      -4.735   3.565   1.755  0.00  0.00    +0.004 A 
ATOM     19  C   UNL     1      -5.884   2.800   1.832  0.00  0.00    +0.002 A 
ATOM     20  C   UNL     1      -5.889   1.505   1.346  0.00  0.00    +0.036 A 
ATOM     21  C   UNL     1      -4.747   0.975   0.777  0.00  0.00    +0.168 A 
BRANCH  21  22
ATOM     22  N   UNL     1      -4.755  -0.408   0.252  0.00  0.00    +0.060 N 
ATOM     23  O   UNL     1      -5.770  -1.079   0.317  0.00  0.00    -0.126 OA
ATOM     24  O   UNL     1      -3.747  -0.876  -0.246  0.00  0.00    -0.126 OA
ENDBRANCH  21  22
ENDBRANCH  15  16
ENDBRANCH  13  15
ENDBRANCH   2  13
TORSDOF 5
