REMARK  Name = ZINC32911003
REMARK  11 active torsions:
REMARK  status: ('A' for Active; 'I' for Inactive)
REMARK    1  A    between atoms: C_1  and  C_2
REMARK    2  A    between atoms: C_2  and  N_3
REMARK    3  A    between atoms: N_3  and  C_4
REMARK    4  A    between atoms: N_3  and  S_6
REMARK    5  A    between atoms: C_4  and  C_5
REMARK    6  A    between atoms: S_6  and  C_9
REMARK    7  A    between atoms: C_17  and  C_19
REMARK    8  A    between atoms: C_19  and  S_20
REMARK    9  A    between atoms: S_20  and  C_21
REMARK   10  A    between atoms: C_26  and  O_31
REMARK   11  A    between atoms: O_31  and  C_32
REMARK                            x       y       z     vdW  Elec       q    Type
REMARK                         _______ _______ _______ _____ _____    ______ ____
ROOT
ATOM      1  C   UNL     1     -14.276  -0.408   5.101  0.00  0.00    +0.108 A 
ATOM      2  C   UNL     1     -13.817  -1.535   5.768  0.00  0.00    +0.031 A 
ATOM      3  C   UNL     1     -12.523  -1.951   5.625  0.00  0.00    +0.032 A 
ATOM      4  C   UNL     1     -11.650  -1.238   4.800  0.00  0.00    +0.089 A 
ATOM      5  C   UNL     1     -12.114  -0.097   4.124  0.00  0.00    +0.068 A 
ATOM      6  C   UNL     1     -13.432   0.311   4.282  0.00  0.00    +0.056 A 
ATOM      7  N   UNL     1     -11.040   0.382   3.402  0.00  0.00    -0.341 N 
ATOM      8  H   UNL     1     -11.152   1.283   2.780  0.00  0.00    +0.167 HD
ATOM      9  C   UNL     1      -9.988  -0.446   3.644  0.00  0.00    +0.118 A 
ATOM     10  N   UNL     1     -10.345  -1.396   4.458  0.00  0.00    -0.232 NA
ENDROOT
BRANCH   1  11
ATOM     11  S   UNL     1     -15.949   0.106   5.302  0.00  0.00    +0.061 S 
ATOM     12  O   UNL     1     -16.281   0.868   4.149  0.00  0.00    -0.153 OA
ATOM     13  O   UNL     1     -16.684  -1.045   5.692  0.00  0.00    -0.153 OA
BRANCH  11  14
ATOM     14  N   UNL     1     -15.989   1.151   6.587  0.00  0.00    -0.177 NA
BRANCH  14  16
ATOM     15  C   UNL     1     -17.166   3.267   6.244  0.00  0.00    +0.022 C 
ATOM     16  C   UNL     1     -15.801   2.587   6.370  0.00  0.00    +0.106 C 
ENDBRANCH  14  16
BRANCH  14  17
ATOM     17  C   UNL     1     -16.212   0.637   7.941  0.00  0.00    +0.106 C 
ATOM     18  C   UNL     1     -14.864   0.417   8.631  0.00  0.00    +0.022 C 
ENDBRANCH  14  17
ENDBRANCH  11  14
ENDBRANCH   1  11
BRANCH   9  19
ATOM     19  C   UNL     1      -8.611  -0.289   3.052  0.00  0.00    +0.151 C 
BRANCH  19  20
ATOM     20  S   UNL     1      -7.601   0.746   4.140  0.00  0.00    -0.080 S 
BRANCH  20  21
ATOM     21  C   UNL     1      -6.091   0.762   3.232  0.00  0.00    +0.168 A 
ATOM     22  N   UNL     1      -4.952   1.417   3.611  0.00  0.00    -0.333 N 
ATOM     23  H   UNL     1      -4.935   1.990   4.550  0.00  0.00    +0.168 HD
ATOM     24  C   UNL     1      -3.999   1.183   2.634  0.00  0.00    +0.070 A 
ATOM     25  C   UNL     1      -2.678   1.571   2.469  0.00  0.00    +0.073 A 
ATOM     26  C   UNL     1      -1.976   1.163   1.348  0.00  0.00    +0.122 A 
ATOM     27  C   UNL     1      -2.586   0.357   0.392  0.00  0.00    +0.048 A 
ATOM     28  C   UNL     1      -3.895  -0.039   0.546  0.00  0.00    +0.033 A 
ATOM     29  C   UNL     1      -4.617   0.370   1.670  0.00  0.00    +0.090 A 
ATOM     30  N   UNL     1      -5.892   0.148   2.092  0.00  0.00    -0.222 NA
BRANCH  26  31
ATOM     31  O   UNL     1      -0.682   1.547   1.184  0.00  0.00    -0.495 OA
ATOM     32  C   UNL     1      -0.013   1.086   0.008  0.00  0.00    +0.277 C 
ENDBRANCH  26  31
ENDBRANCH  20  21
ENDBRANCH  19  20
ENDBRANCH   9  19
TORSDOF 8
