REMARK  Name = ZINC64714016
REMARK  10 active torsions:
REMARK  status: ('A' for Active; 'I' for Inactive)
REMARK    1  A    between atoms: C_1  and  C_2
REMARK    2  A    between atoms: C_4  and  C_14
REMARK    3  A    between atoms: C_7  and  N_8
REMARK    4  A    between atoms: C_14  and  O_16
REMARK    5  A    between atoms: O_16  and  C_17
REMARK    6  A    between atoms: C_17  and  C_18
REMARK    7  A    between atoms: C_18  and  N_19
REMARK    8  A    between atoms: N_19  and  C_20
REMARK    9  A    between atoms: N_19  and  C_21
REMARK   10  A    between atoms: C_24  and  N_27
REMARK                            x       y       z     vdW  Elec       q    Type
REMARK                         _______ _______ _______ _____ _____    ______ ____
ROOT
ATOM      1  C   UNL     1       0.029  -2.816  -2.481  0.00  0.00    +0.339 C 
ATOM      2  O   UNL     1       0.015  -2.205  -3.531  0.00  0.00    -0.245 OA
ENDROOT
BRANCH   1   6
ATOM      3  C   UNL     1      -0.018   1.503   0.010  0.00  0.00    +0.046 C 
ATOM      4  C   UNL     1       0.002  -0.004   0.002  0.00  0.00    -0.028 A 
ATOM      5  C   UNL     1       0.006  -0.685  -1.194  0.00  0.00    +0.020 A 
ATOM      6  C   UNL     1       0.025  -2.083  -1.201  0.00  0.00    +0.059 A 
ATOM      7  C   UNL     1       0.041  -2.784   0.009  0.00  0.00    +0.017 A 
ATOM      8  C   UNL     1       0.037  -2.097   1.201  0.00  0.00    +0.024 A 
ATOM      9  C   UNL     1       0.023  -0.705   1.204  0.00  0.00    +0.041 A 
BRANCH   9  10
ATOM     10  N   UNL     1       0.025  -0.012   2.413  0.00  0.00    -0.254 N 
ATOM     11  C   UNL     1      -1.173   0.389   3.167  0.00  0.00    +0.134 C 
ATOM     12  C   UNL     1      -0.605   1.112   4.404  0.00  0.00    +0.125 C 
ATOM     13  N   UNL     1       0.852   1.041   4.216  0.00  0.00    -0.297 N 
ATOM     14  C   UNL     1       1.117   0.388   3.077  0.00  0.00    +0.307 C 
ATOM     15  O   UNL     1       2.247   0.182   2.679  0.00  0.00    -0.252 OA
ATOM     16  H   UNL     1       1.515   1.405   4.823  0.00  0.00    +0.150 HD
ENDBRANCH   9  10
ENDBRANCH   1   6
BRANCH   1  17
ATOM     17  O   UNL     1       0.047  -4.163  -2.485  0.00  0.00    -0.460 OA
BRANCH  17  18
ATOM     18  C   UNL     1       0.050  -4.808  -3.760  0.00  0.00    +0.251 C 
BRANCH  18  19
ATOM     19  C   UNL     1       0.072  -6.325  -3.565  0.00  0.00    +0.146 C 
BRANCH  19  20
ATOM     20  N   UNL     1      -1.171  -6.752  -2.917  0.00  0.00    -0.330 N 
ATOM     21  C   UNL     1      -2.332  -7.120  -3.731  0.00  0.00    +0.129 C 
BRANCH  20  22
ATOM     22  C   UNL     1      -1.248  -6.809  -1.524  0.00  0.00    +0.030 A 
ATOM     23  C   UNL     1      -0.150  -6.455  -0.751  0.00  0.00    +0.025 A 
ATOM     24  C   UNL     1      -0.230  -6.511   0.627  0.00  0.00    +0.034 A 
ATOM     25  C   UNL     1      -1.402  -6.920   1.236  0.00  0.00    +0.126 A 
ATOM     26  C   UNL     1      -2.497  -7.273   0.470  0.00  0.00    +0.034 A 
ATOM     27  C   UNL     1      -2.426  -7.213  -0.908  0.00  0.00    +0.025 A 
BRANCH  25  28
ATOM     28  N   UNL     1      -1.484  -6.979   2.713  0.00  0.00    +0.056 N 
ATOM     29  O   UNL     1      -0.527  -6.671   3.385  0.00  0.00    -0.126 OA
ATOM     30  O   UNL     1      -2.508  -7.336   3.248  0.00  0.00    -0.126 OA
ENDBRANCH  25  28
ENDBRANCH  20  22
ENDBRANCH  19  20
ENDBRANCH  18  19
ENDBRANCH  17  18
ENDBRANCH   1  17
TORSDOF 8
