REMARK  Name = ZINC49184366
REMARK  6 active torsions:
REMARK  status: ('A' for Active; 'I' for Inactive)
REMARK    1  A    between atoms: C_1  and  C_2
REMARK    2  A    between atoms: C_2  and  C_4
REMARK    3  A    between atoms: C_2  and  N_10
REMARK    4  A    between atoms: C_4  and  C_5
REMARK    5  A    between atoms: N_10  and  C_11
REMARK    6  A    between atoms: C_16  and  N_17
REMARK                            x       y       z     vdW  Elec       q    Type
REMARK                         _______ _______ _______ _____ _____    ______ ____
ROOT
ATOM      1  C   UNL     1      -0.020  -0.613  -2.403  0.00  0.00    +0.060 A 
ATOM      2  C   UNL     1      -1.376  -0.291  -2.437  0.00  0.00    +0.026 A 
ATOM      3  C   UNL     1      -2.076  -0.425  -3.620  0.00  0.00    +0.019 A 
ATOM      4  C   UNL     1      -1.428  -0.874  -4.745  0.00  0.00    +0.041 A 
ATOM      5  C   UNL     1      -0.056  -1.210  -4.747  0.00  0.00    +0.110 A 
ATOM      6  C   UNL     1       0.638  -1.058  -3.528  0.00  0.00    +0.173 A 
ATOM      7  N   UNL     1       0.391  -1.629  -5.949  0.00  0.00    -0.245 NA
ATOM      8  C   UNL     1      -0.387  -1.708  -6.989  0.00  0.00    +0.157 A 
ATOM      9  S   UNL     1      -1.888  -1.196  -6.428  0.00  0.00    -0.075 S 
ENDROOT
BRANCH   6  10
ATOM     10  N   UNL     1       2.080  -1.385  -3.456  0.00  0.00    +0.060 N 
ATOM     11  O   UNL     1       2.432  -2.507  -3.174  0.00  0.00    -0.126 OA
ATOM     12  O   UNL     1       2.905  -0.531  -3.679  0.00  0.00    -0.126 OA
ENDBRANCH   6  10
BRANCH   1  13
ATOM     13  N   UNL     1       0.688  -0.476  -1.203  0.00  0.00    -0.339 N 
ATOM     14  H   UNL     1       1.632  -0.695  -1.170  0.00  0.00    +0.146 HD
BRANCH  13  16
ATOM     15  C   UNL     1      -0.019   1.526   0.010  0.00  0.00    +0.028 C 
ATOM     16  C   UNL     1       0.002  -0.004   0.002  0.00  0.00    +0.072 C 
BRANCH  16  17
ATOM     17  C   UNL     1       0.742  -0.511   1.242  0.00  0.00    +0.057 C 
BRANCH  17  18
ATOM     18  C   UNL     1       0.657  -2.014   1.298  0.00  0.00    -0.039 A 
ATOM     19  C   UNL     1      -0.391  -2.634   1.953  0.00  0.00    +0.011 A 
ATOM     20  C   UNL     1      -0.438  -3.988   1.985  0.00  0.00    +0.045 A 
ATOM     21  S   UNL     1       1.030  -4.430   1.070  0.00  0.00    -0.105 S 
ATOM     22  C   UNL     1       1.603  -2.780   0.702  0.00  0.00    +0.049 A 
ENDBRANCH  17  18
ENDBRANCH  16  17
ENDBRANCH  13  16
ENDBRANCH   1  13
TORSDOF 5
