REMARK  Name = ZINC00109392
REMARK  6 active torsions:
REMARK  status: ('A' for Active; 'I' for Inactive)
REMARK    1  A    between atoms: C_1  and  C_2
REMARK    2  A    between atoms: C_5  and  N_8
REMARK    3  A    between atoms: N_8  and  N_9
REMARK    4  A    between atoms: C_10  and  C_11
REMARK    5  A    between atoms: C_10  and  S_13
REMARK    6  A    between atoms: S_13  and  C_16
REMARK                            x       y       z     vdW  Elec       q    Type
REMARK                         _______ _______ _______ _____ _____    ______ ____
ROOT
ATOM      1  N   UNL     1      -3.991   1.447   2.305  0.00  0.00    -0.152 NA
ATOM      2  C   UNL     1      -3.187   0.617   1.703  0.00  0.00    +0.275 C 
ENDROOT
BRANCH   2   3
ATOM      3  S   UNL     1      -2.742   0.886   0.019  0.00  0.00    +0.054 S 
ATOM      4  O   UNL     1      -3.716   1.768  -0.522  0.00  0.00    -0.162 OA
ATOM      5  O   UNL     1      -2.478  -0.394  -0.540  0.00  0.00    -0.162 OA
BRANCH   3   6
ATOM      6  C   UNL     1      -1.213   1.761   0.017  0.00  0.00    +0.103 A 
ATOM      7  C   UNL     1      -0.013   1.076   0.008  0.00  0.00    +0.035 A 
ATOM      8  C   UNL     1       1.146   1.780   0.001  0.00  0.00    +0.047 A 
ATOM      9  S   UNL     1       0.555   3.464   0.015  0.00  0.00    -0.103 S 
ATOM     10  C   UNL     1      -1.196   3.116   0.030  0.00  0.00    +0.072 A 
ENDBRANCH   3   6
ENDBRANCH   2   3
BRANCH   1  11
ATOM     11  N   UNL     1      -4.345   1.234   3.643  0.00  0.00    -0.235 N 
ATOM     12  H   UNL     1      -3.991   0.468   4.122  0.00  0.00    +0.174 HD
BRANCH  11  17
ATOM     13  C   UNL     1      -7.844   4.846   6.262  0.00  0.00    +0.044 C 
ATOM     14  C   UNL     1      -6.914   3.885   5.566  0.00  0.00    -0.050 A 
ATOM     15  C   UNL     1      -6.411   2.794   6.250  0.00  0.00    +0.005 A 
ATOM     16  C   UNL     1      -5.558   1.912   5.616  0.00  0.00    +0.025 A 
ATOM     17  C   UNL     1      -5.207   2.122   4.288  0.00  0.00    +0.048 A 
ATOM     18  C   UNL     1      -5.710   3.223   3.605  0.00  0.00    +0.025 A 
ATOM     19  C   UNL     1      -6.566   4.098   4.245  0.00  0.00    +0.005 A 
ENDBRANCH  11  17
ENDBRANCH   1  11
BRANCH   2  20
ATOM     20  C   UNL     1      -2.664  -0.513   2.410  0.00  0.00    +0.141 C 
ATOM     21  N   UNL     1      -2.249  -1.410   2.971  0.00  0.00    -0.188 NA
ENDBRANCH   2  20
TORSDOF 5
