REMARK  Name = ZINC49908073
REMARK  8 active torsions:
REMARK  status: ('A' for Active; 'I' for Inactive)
REMARK    1  A    between atoms: C_1  and  C_2
REMARK    2  A    between atoms: C_2  and  C_3
REMARK    3  A    between atoms: C_2  and  N_20
REMARK    4  A    between atoms: N_8  and  C_11
REMARK    5  A    between atoms: C_14  and  O_17
REMARK    6  A    between atoms: O_17  and  C_18
REMARK    7  A    between atoms: N_20  and  C_21
REMARK    8  A    between atoms: C_22  and  C_23
REMARK                            x       y       z     vdW  Elec       q    Type
REMARK                         _______ _______ _______ _____ _____    ______ ____
ROOT
ATOM      1  C   UNL     1      -0.814   3.274  -0.551  0.00  0.00    +0.100 A 
ATOM      2  C   UNL     1      -1.950   3.769  -1.117  0.00  0.00    +0.263 A 
ATOM      3  N   UNL     1      -1.905   4.967  -1.785  0.00  0.00    -0.274 N 
ATOM      4  C   UNL     1      -0.749   5.649  -1.884  0.00  0.00    +0.337 A 
ATOM      5  O   UNL     1      -0.728   6.708  -2.480  0.00  0.00    -0.246 OA
ATOM      6  N   UNL     1       0.383   5.176  -1.331  0.00  0.00    -0.229 N 
ATOM      7  C   UNL     1       0.381   4.007  -0.662  0.00  0.00    +0.270 A 
ATOM      8  O   UNL     1       1.409   3.585  -0.159  0.00  0.00    -0.267 OA
ATOM      9  O   UNL     1      -3.112   3.088  -1.021  0.00  0.00    -0.267 OA
ATOM     10  H   UNL     1      -2.711   5.324  -2.190  0.00  0.00    +0.173 HD
ENDROOT
BRANCH   6  11
ATOM     11  C   UNL     1       1.574   5.909  -1.449  0.00  0.00    +0.055 A 
ATOM     12  C   UNL     1       2.419   5.691  -2.529  0.00  0.00    +0.030 A 
ATOM     13  C   UNL     1       3.591   6.412  -2.645  0.00  0.00    +0.047 A 
ATOM     14  C   UNL     1       3.924   7.354  -1.682  0.00  0.00    +0.120 A 
ATOM     15  C   UNL     1       3.080   7.572  -0.603  0.00  0.00    +0.047 A 
ATOM     16  C   UNL     1       1.905   6.855  -0.489  0.00  0.00    +0.030 A 
BRANCH  14  17
ATOM     17  O   UNL     1       5.077   8.064  -1.796  0.00  0.00    -0.495 OA
ATOM     18  C   UNL     1       5.357   9.017  -0.769  0.00  0.00    +0.277 C 
ENDBRANCH  14  17
ENDBRANCH   6  11
BRANCH   1  20
ATOM     19  C   UNL     1      -0.536   2.204   1.669  0.00  0.00    +0.031 C 
ATOM     20  C   UNL     1      -0.839   1.961   0.189  0.00  0.00    +0.091 C 
BRANCH  20  21
ATOM     21  N   UNL     1       0.175   1.061  -0.376  0.00  0.00    -0.405 NA
ATOM     22  H   UNL     1       0.024   0.966  -1.369  0.00  0.00    +0.123 HD
ATOM     23  H   UNL     1       1.094   1.443  -0.211  0.00  0.00    +0.123 HD
BRANCH  21  24
ATOM     24  C   UNL     1       0.076  -0.194   0.232  0.00  0.00    +0.050 C 
ATOM     25  C   UNL     1      -0.084  -1.283  -0.512  0.00  0.00    +0.016 C 
BRANCH  25  26
ATOM     26  C   UNL     1      -0.188  -2.603   0.128  0.00  0.00    -0.050 C 
ATOM     27  C   UNL     1      -0.341  -3.655  -0.644  0.00  0.00    -0.023 C 
ATOM     28  C   UNL     1      -0.470  -5.059  -0.128  0.00  0.00    +0.027 C 
ATOM     29  C   UNL     1       0.018  -5.134   1.320  0.00  0.00    +0.004 C 
ATOM     30  C   UNL     1      -0.656  -4.013   2.120  0.00  0.00    +0.005 C 
ATOM     31  C   UNL     1      -0.109  -2.671   1.625  0.00  0.00    +0.035 C 
ENDBRANCH  25  26
ENDBRANCH  21  24
ENDBRANCH  20  21
ENDBRANCH   1  20
TORSDOF 6
