REMARK  Name = ZINC09097122
REMARK  8 active torsions:
REMARK  status: ('A' for Active; 'I' for Inactive)
REMARK    1  A    between atoms: C_1  and  C_2
REMARK    2  A    between atoms: C_2  and  C_22
REMARK    3  A    between atoms: N_3  and  N_4
REMARK    4  A    between atoms: C_5  and  C_7
REMARK    5  A    between atoms: C_10  and  N_13
REMARK    6  A    between atoms: N_13  and  S_14
REMARK    7  A    between atoms: S_14  and  C_17
REMARK    8  A    between atoms: C_25  and  N_28
REMARK                            x       y       z     vdW  Elec       q    Type
REMARK                         _______ _______ _______ _____ _____    ______ ____
ROOT
ATOM      1  N   UNL     1       2.173   0.946   0.188  0.00  0.00    -0.203 N 
ATOM      2  C   UNL     1       3.265   1.733   0.120  0.00  0.00    +0.263 C 
ATOM      3  O   UNL     1       3.142   2.943   0.102  0.00  0.00    -0.268 OA
ATOM      4  H   UNL     1       2.270  -0.019   0.202  0.00  0.00    +0.178 HD
ENDROOT
BRANCH   2   5
ATOM      5  C   UNL     1       4.608   1.127   0.067  0.00  0.00    +0.038 A 
ATOM      6  C   UNL     1       4.751  -0.264   0.093  0.00  0.00    +0.015 A 
ATOM      7  C   UNL     1       6.005  -0.827   0.038  0.00  0.00    +0.025 A 
ATOM      8  C   UNL     1       7.132  -0.013  -0.032  0.00  0.00    +0.048 A 
ATOM      9  C   UNL     1       6.994   1.373  -0.053  0.00  0.00    +0.025 A 
ATOM     10  C   UNL     1       5.742   1.941  -0.004  0.00  0.00    +0.015 A 
BRANCH   8  11
ATOM     11  N   UNL     1       8.399  -0.584  -0.082  0.00  0.00    -0.216 N 
ATOM     12  H   UNL     1       8.713  -0.996  -0.902  0.00  0.00    +0.174 HD
BRANCH  11  13
ATOM     13  S   UNL     1       9.371  -0.562   1.258  0.00  0.00    +0.079 S 
ATOM     14  O   UNL     1      10.562  -1.253   0.908  0.00  0.00    -0.149 OA
ATOM     15  O   UNL     1       9.380   0.778   1.731  0.00  0.00    -0.149 OA
BRANCH  13  16
ATOM     16  C   UNL     1       8.573  -1.528   2.497  0.00  0.00    +0.146 A 
ATOM     17  C   UNL     1       8.751  -2.836   2.805  0.00  0.00    +0.036 A 
ATOM     18  C   UNL     1       8.006  -3.391   3.829  0.00  0.00    +0.010 A 
ATOM     19  C   UNL     1       7.120  -2.610   4.494  0.00  0.00    +0.047 A 
ATOM     20  S   UNL     1       7.327  -1.037   3.676  0.00  0.00    -0.077 S 
ENDBRANCH  13  16
ENDBRANCH  11  13
ENDBRANCH   8  11
ENDBRANCH   2   5
BRANCH   1  23
ATOM     21  C   UNL     1      -0.004  -0.735   0.326  0.00  0.00    +0.068 C 
ATOM     22  C   UNL     1      -0.155   0.764   0.304  0.00  0.00    +0.063 C 
ATOM     23  N   UNL     1       0.896   1.522   0.239  0.00  0.00    -0.184 NA
BRANCH  22  24
ATOM     24  C   UNL     1      -1.499   1.370   0.351  0.00  0.00    -0.002 A 
ATOM     25  C   UNL     1      -2.634   0.558   0.410  0.00  0.00    +0.012 A 
ATOM     26  C   UNL     1      -3.887   1.131   0.461  0.00  0.00    +0.033 A 
ATOM     27  C   UNL     1      -4.022   2.508   0.440  0.00  0.00    +0.126 A 
ATOM     28  C   UNL     1      -2.903   3.319   0.376  0.00  0.00    +0.033 A 
ATOM     29  C   UNL     1      -1.643   2.760   0.331  0.00  0.00    +0.012 A 
BRANCH  27  30
ATOM     30  N   UNL     1      -5.371   3.117   0.488  0.00  0.00    +0.056 N 
ATOM     31  O   UNL     1      -5.493   4.328   0.470  0.00  0.00    -0.126 OA
ATOM     32  O   UNL     1      -6.358   2.406   0.545  0.00  0.00    -0.126 OA
ENDBRANCH  27  30
ENDBRANCH  22  24
ENDBRANCH   1  23
TORSDOF 7
