REMARK  Name = ZINC56238089
REMARK  5 active torsions:
REMARK  status: ('A' for Active; 'I' for Inactive)
REMARK    1  A    between atoms: C_6  and  O_7
REMARK    2  A    between atoms: O_7  and  C_8
REMARK    3  A    between atoms: C_15  and  C_17
REMARK    4  A    between atoms: C_17  and  N_18
REMARK    5  A    between atoms: N_21  and  C_22
REMARK                            x       y       z     vdW  Elec       q    Type
REMARK                         _______ _______ _______ _____ _____    ______ ____
ROOT
ATOM      1  C   UNL     1       7.190   1.481   0.163  0.00  0.00    +0.048 A 
ATOM      2  C   UNL     1       5.987   2.115  -0.079  0.00  0.00    +0.027 A 
ATOM      3  C   UNL     1       4.790   1.476   0.220  0.00  0.00    +0.040 A 
ATOM      4  C   UNL     1       4.798   0.199   0.759  0.00  0.00    -0.022 A 
ATOM      5  C   UNL     1       6.006  -0.433   1.003  0.00  0.00    +0.051 A 
ATOM      6  C   UNL     1       7.200   0.204   0.706  0.00  0.00    +0.127 A 
ATOM      7  C   UNL     1       3.519  -0.526   1.085  0.00  0.00    +0.038 C 
ATOM      8  C   UNL     1       2.365   0.464   1.233  0.00  0.00    +0.024 C 
ATOM      9  C   UNL     1       2.328   1.373  -0.002  0.00  0.00    +0.114 C 
ATOM     10  N   UNL     1       3.580   2.142  -0.031  0.00  0.00    -0.270 N 
ATOM     11  C   UNL     1       3.567   3.464  -0.293  0.00  0.00    +0.237 C 
ATOM     12  O   UNL     1       4.590   4.109  -0.205  0.00  0.00    -0.274 OA
ENDROOT
BRANCH   6  13
ATOM     13  O   UNL     1       8.383  -0.422   0.947  0.00  0.00    -0.434 OA
BRANCH  13  14
ATOM     14  C   UNL     1       9.575   0.294   0.616  0.00  0.00    +0.541 C 
ATOM     15  F   UNL     1       9.578   0.589  -0.751  0.00  0.00    -0.166 F 
ATOM     16  F   UNL     1       9.623   1.484   1.351  0.00  0.00    -0.166 F 
ENDBRANCH  13  14
ENDBRANCH   6  13
BRANCH  11  17
ATOM     17  C   UNL     1       2.281   4.140  -0.695  0.00  0.00    +0.202 C 
BRANCH  17  18
ATOM     18  N   UNL     1       2.553   5.536  -1.046  0.00  0.00    -0.291 N 
ATOM     19  C   UNL     1       1.545   6.340  -1.439  0.00  0.00    +0.300 C 
ATOM     20  O   UNL     1       0.410   5.907  -1.501  0.00  0.00    -0.253 OA
ATOM     21  N   UNL     1       1.794   7.624  -1.762  0.00  0.00    -0.297 N 
ATOM     22  H   UNL     1       3.458   5.881  -0.996  0.00  0.00    +0.151 HD
ATOM     23  H   UNL     1       2.700   7.970  -1.712  0.00  0.00    +0.151 HD
BRANCH  21  24
ATOM     24  C   UNL     1       0.699   8.498  -2.189  0.00  0.00    +0.074 C 
ATOM     25  C   UNL     1       0.460   8.321  -3.690  0.00  0.00    +0.022 C 
ATOM     26  C   UNL     1      -0.684   9.233  -4.135  0.00  0.00    +0.002 C 
ATOM     27  C   UNL     1      -0.316  10.690  -3.847  0.00  0.00    +0.000 C 
ATOM     28  C   UNL     1      -0.077  10.868  -2.346  0.00  0.00    +0.002 C 
ATOM     29  C   UNL     1       1.067   9.955  -1.900  0.00  0.00    +0.022 C 
ENDBRANCH  21  24
ENDBRANCH  17  18
ENDBRANCH  11  17
TORSDOF 5
