REMARK  Name = ZINC47552081
REMARK  9 active torsions:
REMARK  status: ('A' for Active; 'I' for Inactive)
REMARK    1  A    between atoms: C_1  and  C_2
REMARK    2  A    between atoms: C_2  and  C_3
REMARK    3  A    between atoms: C_3  and  C_4
REMARK    4  A    between atoms: C_4  and  N_5
REMARK    5  A    between atoms: N_5  and  C_6
REMARK    6  A    between atoms: C_7  and  C_9
REMARK    7  A    between atoms: N_17  and  C_18
REMARK    8  A    between atoms: C_25  and  C_27
REMARK    9  A    between atoms: C_25  and  C_28
REMARK                            x       y       z     vdW  Elec       q    Type
REMARK                         _______ _______ _______ _____ _____    ______ ____
ROOT
ATOM      1  C   UNL     1       3.937  -3.156   2.952  0.00  0.00    +0.078 C 
ATOM      2  C   UNL     1       3.880  -1.890   3.810  0.00  0.00    +0.032 C 
ATOM      3  C   UNL     1       4.276  -2.235   5.249  0.00  0.00    +0.110 C 
ATOM      4  N   UNL     1       5.589  -2.894   5.233  0.00  0.00    -0.285 N 
ATOM      5  C   UNL     1       5.779  -4.069   4.372  0.00  0.00    +0.110 C 
ATOM      6  C   UNL     1       5.366  -3.704   2.942  0.00  0.00    +0.032 C 
ATOM      7  C   UNL     1       6.599  -2.430   5.995  0.00  0.00    +0.306 C 
ATOM      8  O   UNL     1       6.460  -1.402   6.629  0.00  0.00    -0.252 OA
ATOM      9  N   UNL     1       7.765  -3.105   6.052  0.00  0.00    -0.269 N 
ATOM     10  H   UNL     1       7.906  -3.878   5.484  0.00  0.00    +0.156 HD
ENDROOT
BRANCH   9  11
ATOM     11  C   UNL     1       8.772  -2.690   6.933  0.00  0.00    +0.038 A 
ATOM     12  C   UNL     1       8.436  -2.126   8.157  0.00  0.00    +0.027 A 
ATOM     13  C   UNL     1       9.428  -1.716   9.027  0.00  0.00    +0.051 A 
ATOM     14  C   UNL     1      10.761  -1.867   8.681  0.00  0.00    +0.167 A 
ATOM     15  C   UNL     1      11.102  -2.432   7.454  0.00  0.00    +0.169 A 
ATOM     16  C   UNL     1      10.107  -2.847   6.585  0.00  0.00    +0.073 A 
ATOM     17  O   UNL     1      12.463  -2.469   7.354  0.00  0.00    -0.448 OA
ATOM     18  C   UNL     1      12.947  -1.550   8.350  0.00  0.00    +0.248 C 
ATOM     19  O   UNL     1      11.910  -1.550   9.349  0.00  0.00    -0.448 OA
ATOM     20  C   UNL     1      14.266  -2.048   8.945  0.00  0.00    +0.104 C 
ATOM     21  C   UNL     1      13.119  -0.151   7.754  0.00  0.00    +0.104 C 
ENDBRANCH   9  11
BRANCH   1  24
ATOM     22  N   UNL     1       2.216  -2.608   1.263  0.00  0.00    -0.304 N 
ATOM     23  C   UNL     1       1.229  -2.568   2.345  0.00  0.00    +0.132 C 
ATOM     24  C   UNL     1       3.515  -2.828   1.543  0.00  0.00    +0.219 C 
ATOM     25  O   UNL     1       4.346  -2.762   0.662  0.00  0.00    -0.275 OA
BRANCH  22  26
ATOM     26  C   UNL     1       1.789  -2.409  -0.124  0.00  0.00    +0.107 C 
BRANCH  26  27
ATOM     27  C   UNL     1       1.851  -0.920  -0.469  0.00  0.00    +0.019 C 
BRANCH  27  29
ATOM     28  C   UNL     1       1.467   0.777  -2.262  0.00  0.00    +0.004 C 
ATOM     29  C   UNL     1       1.405  -0.712  -1.917  0.00  0.00    -0.002 C 
ENDBRANCH  27  29
ENDBRANCH  26  27
ENDBRANCH  22  26
ENDBRANCH   1  24
TORSDOF 5
