REMARK  Name = ZINC01187696
REMARK  7 active torsions:
REMARK  status: ('A' for Active; 'I' for Inactive)
REMARK    1  A    between atoms: C_1  and  C_2
REMARK    2  A    between atoms: C_5  and  C_11
REMARK    3  A    between atoms: C_7  and  N_8
REMARK    4  A    between atoms: C_14  and  C_16
REMARK    5  A    between atoms: C_17  and  C_18
REMARK    6  A    between atoms: C_17  and  C_20
REMARK    7  A    between atoms: N_22  and  C_23
REMARK                            x       y       z     vdW  Elec       q    Type
REMARK                         _______ _______ _______ _____ _____    ______ ____
ROOT
ATOM      1  C   UNL     1      -6.468  -0.783  -0.075  0.00  0.00    +0.136 A 
ATOM      2  C   UNL     1      -7.266   0.323   0.129  0.00  0.00    +0.050 A 
ATOM      3  C   UNL     1      -6.450   1.446  -0.002  0.00  0.00    +0.050 A 
ATOM      4  C   UNL     1      -5.175   0.983  -0.291  0.00  0.00    +0.130 A 
ATOM      5  O   UNL     1      -5.215  -0.367  -0.326  0.00  0.00    -0.455 OA
ENDROOT
BRANCH   1  10
ATOM      6  C   UNL     1      -8.212  -6.261   0.113  0.00  0.00    +0.046 C 
ATOM      7  C   UNL     1      -7.755  -4.826   0.063  0.00  0.00    -0.020 A 
ATOM      8  C   UNL     1      -8.663  -3.806   0.289  0.00  0.00    +0.006 A 
ATOM      9  C   UNL     1      -8.252  -2.490   0.245  0.00  0.00    +0.012 A 
ATOM     10  C   UNL     1      -6.915  -2.188  -0.027  0.00  0.00    +0.019 A 
ATOM     11  C   UNL     1      -6.005  -3.223  -0.258  0.00  0.00    +0.044 A 
ATOM     12  C   UNL     1      -6.430  -4.534  -0.207  0.00  0.00    +0.130 A 
BRANCH  12  13
ATOM     13  N   UNL     1      -5.466  -5.632  -0.446  0.00  0.00    +0.057 N 
ATOM     14  O   UNL     1      -4.321  -5.536  -0.042  0.00  0.00    -0.126 OA
ATOM     15  O   UNL     1      -5.818  -6.630  -1.048  0.00  0.00    -0.126 OA
ENDBRANCH  12  13
ENDBRANCH   1  10
BRANCH   4  16
ATOM     16  C   UNL     1      -4.038   1.779  -0.505  0.00  0.00    +0.070 C 
ATOM     17  C   UNL     1      -2.815   1.183  -0.782  0.00  0.00    +0.117 C 
BRANCH  17  18
ATOM     18  C   UNL     1      -1.627   2.015  -1.006  0.00  0.00    +0.255 C 
ATOM     19  O   UNL     1      -1.714   3.227  -0.948  0.00  0.00    -0.269 OA
ATOM     20  N   UNL     1      -0.440   1.436  -1.275  0.00  0.00    -0.308 N 
ATOM     21  H   UNL     1      -0.371   0.470  -1.321  0.00  0.00    +0.149 HD
BRANCH  20  22
ATOM     22  C   UNL     1       0.745   2.267  -1.504  0.00  0.00    +0.073 C 
ATOM     23  C   UNL     1       0.785   2.705  -2.969  0.00  0.00    +0.022 C 
ATOM     24  C   UNL     1       2.023   3.572  -3.208  0.00  0.00    +0.002 C 
ATOM     25  C   UNL     1       3.281   2.766  -2.882  0.00  0.00    +0.000 C 
ATOM     26  C   UNL     1       3.241   2.329  -1.416  0.00  0.00    +0.002 C 
ATOM     27  C   UNL     1       2.004   1.461  -1.177  0.00  0.00    +0.022 C 
ENDBRANCH  20  22
ENDBRANCH  17  18
BRANCH  17  28
ATOM     28  C   UNL     1      -2.713  -0.244  -0.850  0.00  0.00    +0.104 C 
ATOM     29  N   UNL     1      -2.632  -1.376  -0.904  0.00  0.00    -0.191 NA
ENDBRANCH  17  28
ENDBRANCH   4  16
TORSDOF 6
