REMARK  Name = ZINC13233736
REMARK  4 active torsions:
REMARK  status: ('A' for Active; 'I' for Inactive)
REMARK    1  A    between atoms: C_3  and  N_23
REMARK    2  A    between atoms: C_6  and  C_7
REMARK    3  A    between atoms: N_8  and  C_9
REMARK    4  A    between atoms: C_17  and  C_19
REMARK                            x       y       z     vdW  Elec       q    Type
REMARK                         _______ _______ _______ _____ _____    ______ ____
ROOT
ATOM      1  C   UNL     1      -2.412  -2.767   0.011  0.00  0.00    +0.066 A 
ATOM      2  C   UNL     1      -3.448  -2.392   0.878  0.00  0.00    +0.030 A 
ATOM      3  C   UNL     1      -4.621  -3.084   0.895  0.00  0.00    +0.032 A 
ATOM      4  C   UNL     1      -4.802  -4.180   0.044  0.00  0.00    +0.090 A 
ATOM      5  C   UNL     1      -3.768  -4.563  -0.829  0.00  0.00    +0.068 A 
ATOM      6  C   UNL     1      -2.578  -3.853  -0.847  0.00  0.00    +0.055 A 
ATOM      7  N   UNL     1      -4.242  -5.657  -1.525  0.00  0.00    -0.335 N 
ATOM      8  H   UNL     1      -3.765  -6.157  -2.206  0.00  0.00    +0.167 HD
ATOM      9  C   UNL     1      -5.503  -5.905  -1.077  0.00  0.00    +0.213 A 
ATOM     10  N   UNL     1      -5.830  -5.041  -0.161  0.00  0.00    -0.224 NA
ENDROOT
BRANCH   9  11
ATOM     11  C   UNL     1      -6.392  -7.017  -1.572  0.00  0.00    +0.450 C 
ATOM     12  F   UNL     1      -7.708  -6.779  -1.162  0.00  0.00    -0.163 F 
ATOM     13  F   UNL     1      -6.341  -7.068  -2.970  0.00  0.00    -0.163 F 
ATOM     14  F   UNL     1      -5.952  -8.236  -1.045  0.00  0.00    -0.163 F 
ENDBRANCH   9  11
BRANCH   1  16
ATOM     15  C   UNL     1      -1.261  -0.761   0.011  0.00  0.00    +0.119 C 
ATOM     16  N   UNL     1      -1.239  -2.064   0.003  0.00  0.00    -0.255 NA
BRANCH  15  22
ATOM     17  C   UNL     1      -0.017   1.394   0.010  0.00  0.00    +0.011 A 
ATOM     18  C   UNL     1       1.170   2.096   0.002  0.00  0.00    +0.033 A 
ATOM     19  C   UNL     1       2.378   1.420  -0.013  0.00  0.00    +0.126 A 
ATOM     20  C   UNL     1       2.405   0.037  -0.021  0.00  0.00    +0.033 A 
ATOM     21  C   UNL     1       1.226  -0.679  -0.014  0.00  0.00    +0.011 A 
ATOM     22  C   UNL     1       0.002  -0.004   0.002  0.00  0.00    -0.007 A 
BRANCH  19  23
ATOM     23  N   UNL     1       3.647   2.182  -0.021  0.00  0.00    +0.056 N 
ATOM     24  O   UNL     1       3.627   3.390  -0.015  0.00  0.00    -0.126 OA
ATOM     25  O   UNL     1       4.704   1.594  -0.035  0.00  0.00    -0.126 OA
ENDBRANCH  19  23
ENDBRANCH  15  22
ENDBRANCH   1  16
TORSDOF 4
