REMARK  Name = ZINC15558735
REMARK  7 active torsions:
REMARK  status: ('A' for Active; 'I' for Inactive)
REMARK    1  A    between atoms: C_4  and  C_7
REMARK    2  A    between atoms: C_8  and  C_9
REMARK    3  A    between atoms: C_14  and  C_17
REMARK    4  A    between atoms: N_19  and  C_20
REMARK    5  A    between atoms: C_20  and  C_21
REMARK    6  A    between atoms: C_23  and  N_28
REMARK    7  A    between atoms: C_26  and  O_27
REMARK                            x       y       z     vdW  Elec       q    Type
REMARK                         _______ _______ _______ _____ _____    ______ ____
ROOT
ATOM      1  C   UNL     1       4.994  -2.739  -0.062  0.00  0.00    +0.239 C 
ATOM      2  O   UNL     1       6.035  -2.116  -0.164  0.00  0.00    -0.271 OA
ATOM      3  N   UNL     1       5.019  -4.083   0.032  0.00  0.00    -0.298 N 
ATOM      4  C   UNL     1       3.771  -4.857   0.036  0.00  0.00    +0.109 C 
ATOM      5  C   UNL     1       3.758  -5.765   1.270  0.00  0.00    +0.032 C 
ATOM      6  C   UNL     1       5.027  -6.620   1.282  0.00  0.00    +0.078 C 
ATOM      7  C   UNL     1       6.255  -5.711   1.364  0.00  0.00    +0.032 C 
ATOM      8  C   UNL     1       6.297  -4.803   0.126  0.00  0.00    +0.109 C 
ENDROOT
BRANCH   6   9
ATOM      9  C   UNL     1       5.002  -7.539   2.476  0.00  0.00    +0.216 C 
ATOM     10  O   UNL     1       4.061  -7.513   3.241  0.00  0.00    -0.276 OA
ATOM     11  N   UNL     1       6.024  -8.390   2.693  0.00  0.00    -0.311 N 
ATOM     12  H   UNL     1       6.776  -8.411   2.081  0.00  0.00    +0.149 HD
BRANCH  11  13
ATOM     13  C   UNL     1       5.999  -9.284   3.853  0.00  0.00    +0.143 C 
BRANCH  13  14
ATOM     14  C   UNL     1       7.249 -10.126   3.866  0.00  0.00    +0.013 A 
ATOM     15  C   UNL     1       8.260  -9.850   4.766  0.00  0.00    +0.041 A 
ATOM     16  C   UNL     1       9.407 -10.621   4.778  0.00  0.00    +0.127 A 
ATOM     17  C   UNL     1       9.545 -11.672   3.889  0.00  0.00    +0.036 A 
ATOM     18  C   UNL     1       8.537 -11.952   2.987  0.00  0.00    +0.048 A 
ATOM     19  C   UNL     1       7.383 -11.183   2.977  0.00  0.00    +0.122 A 
BRANCH  16  20
ATOM     20  N   UNL     1      10.488 -10.323   5.743  0.00  0.00    +0.056 N 
ATOM     21  O   UNL     1      10.368  -9.405   6.521  0.00  0.00    -0.126 OA
ATOM     22  O   UNL     1      11.492 -10.997   5.755  0.00  0.00    -0.126 OA
ENDBRANCH  16  20
BRANCH  19  23
ATOM     23  O   UNL     1       6.388 -11.460   2.094  0.00  0.00    -0.506 OA
ATOM     24  H   UNL     1       6.472 -10.997   1.249  0.00  0.00    +0.292 HD
ENDBRANCH  19  23
ENDBRANCH  13  14
ENDBRANCH  11  13
ENDBRANCH   6   9
BRANCH   1  26
ATOM     25  C   UNL     1       3.692  -0.680  -0.032  0.00  0.00    +0.013 C 
ATOM     26  C   UNL     1       3.714  -2.027  -0.043  0.00  0.00    +0.068 C 
BRANCH  25  30
ATOM     27  C   UNL     1      -0.016   1.381   0.023  0.00  0.00    +0.000 A 
ATOM     28  C   UNL     1       1.169   2.096   0.016  0.00  0.00    +0.001 A 
ATOM     29  C   UNL     1       2.378   1.433  -0.002  0.00  0.00    +0.008 A 
ATOM     30  C   UNL     1       2.405   0.035  -0.013  0.00  0.00    -0.025 A 
ATOM     31  C   UNL     1       1.204  -0.680  -0.005  0.00  0.00    +0.008 A 
ATOM     32  C   UNL     1       0.003  -0.003   0.012  0.00  0.00    +0.001 A 
ENDBRANCH  25  30
ENDBRANCH   1  26
TORSDOF 7
