REMARK  Name = ZINC35270949
REMARK  6 active torsions:
REMARK  status: ('A' for Active; 'I' for Inactive)
REMARK    1  A    between atoms: C_4  and  C_7
REMARK    2  A    between atoms: C_9  and  C_21
REMARK    3  A    between atoms: N_10  and  C_12
REMARK    4  A    between atoms: C_15  and  N_18
REMARK    5  A    between atoms: N_23  and  C_24
REMARK    6  A    between atoms: C_24  and  C_25
REMARK                            x       y       z     vdW  Elec       q    Type
REMARK                         _______ _______ _______ _____ _____    ______ ____
ROOT
ATOM      1  C   UNL     1       3.678  -0.787   0.049  0.00  0.00    +0.094 A 
ATOM      2  C   UNL     1       3.961  -2.159   0.180  0.00  0.00    +0.063 A 
ATOM      3  C   UNL     1       5.323  -2.273  -0.024  0.00  0.00    +0.130 A 
ATOM      4  N   UNL     1       5.786  -1.006  -0.262  0.00  0.00    -0.227 N 
ATOM      5  N   UNL     1       4.811  -0.171  -0.218  0.00  0.00    -0.166 NA
ENDROOT
BRANCH   1   9
ATOM      6  C   UNL     1      -0.144   1.038   0.425  0.00  0.00    +0.000 A 
ATOM      7  C   UNL     1       0.965   1.814   0.142  0.00  0.00    +0.001 A 
ATOM      8  C   UNL     1       2.208   1.227   0.019  0.00  0.00    +0.010 A 
ATOM      9  C   UNL     1       2.344  -0.150   0.181  0.00  0.00    +0.002 A 
ATOM     10  C   UNL     1       1.224  -0.927   0.466  0.00  0.00    +0.010 A 
ATOM     11  C   UNL     1      -0.015  -0.330   0.586  0.00  0.00    +0.001 A 
ENDBRANCH   1   9
BRANCH   4  12
ATOM     12  C   UNL     1       7.120  -0.673  -0.519  0.00  0.00    +0.066 A 
ATOM     13  C   UNL     1       7.710   0.397   0.143  0.00  0.00    +0.030 A 
ATOM     14  C   UNL     1       9.028   0.723  -0.113  0.00  0.00    +0.035 A 
ATOM     15  C   UNL     1       9.759  -0.013  -1.027  0.00  0.00    +0.126 A 
ATOM     16  C   UNL     1       9.175  -1.078  -1.688  0.00  0.00    +0.035 A 
ATOM     17  C   UNL     1       7.860  -1.414  -1.432  0.00  0.00    +0.030 A 
BRANCH  15  18
ATOM     18  N   UNL     1      11.171   0.340  -1.300  0.00  0.00    +0.056 N 
ATOM     19  O   UNL     1      11.682   1.272  -0.723  0.00  0.00    -0.126 OA
ATOM     20  O   UNL     1      11.811  -0.303  -2.098  0.00  0.00    -0.126 OA
ENDBRANCH  15  18
ENDBRANCH   4  12
BRANCH   3  21
ATOM     21  C   UNL     1       6.118  -3.510   0.008  0.00  0.00    +0.263 C 
ATOM     22  O   UNL     1       7.330  -3.456  -0.078  0.00  0.00    -0.269 OA
ATOM     23  N   UNL     1       5.504  -4.703   0.133  0.00  0.00    -0.303 N 
ATOM     24  H   UNL     1       4.535  -4.753   0.129  0.00  0.00    +0.150 HD
BRANCH  23  25
ATOM     25  C   UNL     1       6.299  -5.925   0.274  0.00  0.00    +0.179 C 
BRANCH  25  26
ATOM     26  C   UNL     1       5.379  -7.112   0.396  0.00  0.00    +0.122 A 
ATOM     27  C   UNL     1       4.913  -7.854  -0.625  0.00  0.00    +0.046 A 
ATOM     28  C   UNL     1       4.090  -8.856  -0.061  0.00  0.00    +0.041 A 
ATOM     29  C   UNL     1       4.103  -8.667   1.270  0.00  0.00    +0.195 A 
ATOM     30  O   UNL     1       4.889  -7.613   1.542  0.00  0.00    -0.466 OA
ENDBRANCH  25  26
ENDBRANCH  23  25
ENDBRANCH   3  21
TORSDOF 6
