REMARK  Name = ZINC54647743
REMARK  9 active torsions:
REMARK  status: ('A' for Active; 'I' for Inactive)
REMARK    1  A    between atoms: C_1  and  N_2
REMARK    2  A    between atoms: C_3  and  C_5
REMARK    3  A    between atoms: C_8  and  C_11
REMARK    4  A    between atoms: C_11  and  N_12
REMARK    5  A    between atoms: N_12  and  C_13
REMARK    6  A    between atoms: N_18  and  C_19
REMARK    7  A    between atoms: C_19  and  C_20
REMARK    8  A    between atoms: C_20  and  C_21
REMARK    9  A    between atoms: C_24  and  N_27
REMARK                            x       y       z     vdW  Elec       q    Type
REMARK                         _______ _______ _______ _____ _____    ______ ____
ROOT
ATOM      1  N   UNL     1      -0.524  -6.916  -1.738  0.00  0.00    -0.278 N 
ATOM      2  C   UNL     1      -1.655  -7.138  -1.040  0.00  0.00    +0.303 C 
ATOM      3  O   UNL     1      -1.706  -6.856   0.142  0.00  0.00    -0.253 OA
ATOM      4  N   UNL     1      -2.731  -7.674  -1.651  0.00  0.00    -0.299 N 
ATOM      5  H   UNL     1      -2.668  -7.966  -2.574  0.00  0.00    +0.150 HD
ENDROOT
BRANCH   1   6
ATOM      6  C   UNL     1      -0.497  -7.154  -3.183  0.00  0.00    +0.078 C 
ATOM      7  C   UNL     1       0.833  -6.940  -3.909  0.00  0.00    +0.024 C 
ATOM      8  C   UNL     1      -0.310  -5.940  -4.096  0.00  0.00    +0.024 C 
ENDBRANCH   1   6
BRANCH   1   9
ATOM      9  C   UNL     1       0.678  -6.436  -1.052  0.00  0.00    +0.144 C 
BRANCH   9  13
ATOM     10  C   UNL     1       0.698  -2.160  -1.033  0.00  0.00    +0.037 A 
ATOM     11  C   UNL     1       0.097  -2.863   0.013  0.00  0.00    +0.013 A 
ATOM     12  C   UNL     1       0.094  -4.242   0.000  0.00  0.00    +0.006 A 
ATOM     13  C   UNL     1       0.685  -4.929  -1.045  0.00  0.00    -0.030 A 
ATOM     14  C   UNL     1       1.283  -4.239  -2.084  0.00  0.00    +0.006 A 
ATOM     15  C   UNL     1       1.287  -2.859  -2.087  0.00  0.00    +0.013 A 
BRANCH  10  18
ATOM     16  C   UNL     1       0.141   1.456  -0.000  0.00  0.00    +0.128 C 
ATOM     17  N   UNL     1       0.134  -0.009  -0.007  0.00  0.00    -0.314 N 
ATOM     18  C   UNL     1       0.705  -0.681  -1.026  0.00  0.00    +0.244 C 
ATOM     19  O   UNL     1       1.224  -0.072  -1.941  0.00  0.00    -0.270 OA
ATOM     20  H   UNL     1      -0.280  -0.496   0.723  0.00  0.00    +0.149 HD
ENDBRANCH  10  18
ENDBRANCH   9  13
ENDBRANCH   1   9
BRANCH   4  21
ATOM     21  C   UNL     1      -3.994  -7.814  -0.922  0.00  0.00    +0.110 C 
BRANCH  21  22
ATOM     22  C   UNL     1      -5.044  -8.444  -1.839  0.00  0.00    +0.054 C 
BRANCH  22  23
ATOM     23  C   UNL     1      -6.343  -8.588  -1.089  0.00  0.00    -0.046 A 
ATOM     24  C   UNL     1      -6.604  -9.742  -0.372  0.00  0.00    +0.006 A 
ATOM     25  C   UNL     1      -7.795  -9.874   0.315  0.00  0.00    +0.033 A 
ATOM     26  C   UNL     1      -8.727  -8.852   0.287  0.00  0.00    +0.126 A 
ATOM     27  C   UNL     1      -8.466  -7.699  -0.429  0.00  0.00    +0.033 A 
ATOM     28  C   UNL     1      -7.272  -7.565  -1.113  0.00  0.00    +0.006 A 
BRANCH  26  29
ATOM     29  N   UNL     1     -10.003  -8.994   1.023  0.00  0.00    +0.056 N 
ATOM     30  O   UNL     1     -10.231 -10.003   1.648  0.00  0.00    -0.126 OA
ATOM     31  O   UNL     1     -10.818  -8.101   0.998  0.00  0.00    -0.126 OA
ENDBRANCH  26  29
ENDBRANCH  22  23
ENDBRANCH  21  22
ENDBRANCH   4  21
TORSDOF 8
