REMARK  Name = ZINC09367418
REMARK  7 active torsions:
REMARK  status: ('A' for Active; 'I' for Inactive)
REMARK    1  A    between atoms: C_6  and  C_7
REMARK    2  A    between atoms: C_9  and  C_12
REMARK    3  A    between atoms: C_12  and  C_13
REMARK    4  A    between atoms: C_13  and  C_14
REMARK    5  A    between atoms: N_16  and  C_17
REMARK    6  A    between atoms: C_20  and  S_23
REMARK    7  A    between atoms: S_23  and  N_26
REMARK                            x       y       z     vdW  Elec       q    Type
REMARK                         _______ _______ _______ _____ _____    ______ ____
ROOT
ATOM      1  C   UNL     1      -0.014   1.209   0.007  0.00  0.00    +0.218 C 
ATOM      2  O   UNL     1       0.002  -0.004  -0.008  0.00  0.00    -0.275 OA
ATOM      3  N   UNL     1      -1.191   1.867   0.018  0.00  0.00    -0.285 N 
ATOM      4  H   UNL     1      -1.205   2.833   0.098  0.00  0.00    +0.155 HD
ENDROOT
BRANCH   3   5
ATOM      5  C   UNL     1      -2.391   1.155  -0.086  0.00  0.00    +0.033 A 
ATOM      6  C   UNL     1      -3.468   1.704  -0.769  0.00  0.00    +0.025 A 
ATOM      7  C   UNL     1      -4.650   0.997  -0.875  0.00  0.00    +0.030 A 
ATOM      8  C   UNL     1      -4.764  -0.252  -0.292  0.00  0.00    +0.109 A 
ATOM      9  C   UNL     1      -3.696  -0.798   0.395  0.00  0.00    +0.030 A 
ATOM     10  C   UNL     1      -2.510  -0.099   0.499  0.00  0.00    +0.025 A 
BRANCH   8  11
ATOM     11  S   UNL     1      -6.276  -1.148  -0.422  0.00  0.00    +0.074 S 
ATOM     12  O   UNL     1      -6.941  -0.656  -1.578  0.00  0.00    -0.150 OA
ATOM     13  O   UNL     1      -5.950  -2.521  -0.258  0.00  0.00    -0.150 OA
BRANCH  11  14
ATOM     14  N   UNL     1      -7.210  -0.724   0.877  0.00  0.00    -0.194 N 
ATOM     15  C   UNL     1      -7.667   0.578   1.008  0.00  0.00    +0.177 A 
ATOM     16  N   UNL     1      -7.463   1.612   0.213  0.00  0.00    -0.232 NA
ATOM     17  C   UNL     1      -7.980   2.795   0.486  0.00  0.00    +0.120 A 
ATOM     18  C   UNL     1      -8.722   2.932   1.610  0.00  0.00    +0.068 A 
ATOM     19  S   UNL     1      -8.650   1.270   2.261  0.00  0.00    -0.059 S 
ATOM     20  H   UNL     1      -7.438  -1.387   1.548  0.00  0.00    +0.176 HD
ENDBRANCH  11  14
ENDBRANCH   8  11
ENDBRANCH   3   5
BRANCH   1  21
ATOM     21  C   UNL     1       1.280   1.980   0.007  0.00  0.00    +0.105 C 
BRANCH  21  22
ATOM     22  C   UNL     1       2.457   1.002  -0.013  0.00  0.00    +0.108 C 
BRANCH  22  25
ATOM     23  C   UNL     1       5.510   2.811   0.560  0.00  0.00    +0.202 A 
ATOM     24  N   UNL     1       4.427   2.158   1.041  0.00  0.00    -0.191 NA
ATOM     25  C   UNL     1       3.751   1.773  -0.013  0.00  0.00    +0.228 A 
ATOM     26  O   UNL     1       4.429   2.188  -1.088  0.00  0.00    -0.338 OA
ATOM     27  N   UNL     1       5.428   2.784  -0.745  0.00  0.00    -0.056 NA
BRANCH  23  33
ATOM     28  C   UNL     1       6.540   3.395   2.754  0.00  0.00    +0.014 A 
ATOM     29  C   UNL     1       7.547   3.975   3.496  0.00  0.00    +0.039 A 
ATOM     30  C   UNL     1       8.600   4.613   2.860  0.00  0.00    +0.123 A 
ATOM     31  C   UNL     1       8.649   4.665   1.476  0.00  0.00    +0.039 A 
ATOM     32  C   UNL     1       7.649   4.081   0.726  0.00  0.00    +0.014 A 
ATOM     33  C   UNL     1       6.588   3.439   1.362  0.00  0.00    +0.023 A 
ATOM     34  F   UNL     1       9.581   5.186   3.590  0.00  0.00    -0.205 F 
ENDBRANCH  23  33
ENDBRANCH  22  25
ENDBRANCH  21  22
ENDBRANCH   1  21
TORSDOF 7
