REMARK  Name = ZINC16739651
REMARK  7 active torsions:
REMARK  status: ('A' for Active; 'I' for Inactive)
REMARK    1  A    between atoms: C_4  and  C_7
REMARK    2  A    between atoms: C_8  and  C_9
REMARK    3  A    between atoms: N_10  and  N_11
REMARK    4  A    between atoms: C_16  and  C_19
REMARK    5  A    between atoms: C_19  and  C_20
REMARK    6  A    between atoms: N_22  and  C_23
REMARK    7  A    between atoms: C_26  and  N_29
REMARK                            x       y       z     vdW  Elec       q    Type
REMARK                         _______ _______ _______ _____ _____    ______ ____
ROOT
ATOM      1  N   UNL     1       6.117  -4.648  -0.094  0.00  0.00    -0.127 NA
ATOM      2  C   UNL     1       6.133  -5.967  -0.096  0.00  0.00    +0.183 C 
ATOM      3  N   UNL     1       5.059  -6.830  -0.088  0.00  0.00    -0.263 N 
ATOM      4  C   UNL     1       5.205  -8.144  -0.092  0.00  0.00    +0.233 C 
ATOM      5  O   UNL     1       4.255  -8.898  -0.086  0.00  0.00    -0.274 OA
ATOM      6  C   UNL     1       6.638  -8.651  -0.106  0.00  0.00    +0.149 C 
ATOM      7  S   UNL     1       7.551  -7.053  -0.118  0.00  0.00    -0.075 S 
ATOM      8  H   UNL     1       4.163  -6.460  -0.079  0.00  0.00    +0.157 HD
ENDROOT
BRANCH   1  10
ATOM      9  C   UNL     1       4.977  -2.706  -0.074  0.00  0.00    +0.135 C 
ATOM     10  N   UNL     1       4.992  -4.016  -0.077  0.00  0.00    -0.155 NA
BRANCH   9  12
ATOM     11  C   UNL     1       3.729  -0.663  -0.053  0.00  0.00    +0.009 C 
ATOM     12  C   UNL     1       3.746  -2.014  -0.055  0.00  0.00    +0.022 C 
BRANCH  11  16
ATOM     13  C   UNL     1       0.032   1.414   0.003  0.00  0.00    +0.000 A 
ATOM     14  C   UNL     1       1.220   2.124  -0.013  0.00  0.00    +0.001 A 
ATOM     15  C   UNL     1       2.426   1.456  -0.031  0.00  0.00    +0.008 A 
ATOM     16  C   UNL     1       2.447   0.058  -0.033  0.00  0.00    -0.025 A 
ATOM     17  C   UNL     1       1.242  -0.653  -0.018  0.00  0.00    +0.008 A 
ATOM     18  C   UNL     1       0.044   0.030   0.000  0.00  0.00    +0.001 A 
ENDBRANCH  11  16
ENDBRANCH   9  12
ENDBRANCH   1  10
BRANCH   6  19
ATOM     19  C   UNL     1       6.951  -9.466   1.151  0.00  0.00    +0.120 C 
BRANCH  19  20
ATOM     20  C   UNL     1       8.335 -10.050   1.040  0.00  0.00    +0.219 C 
ATOM     21  O   UNL     1       9.007  -9.835   0.052  0.00  0.00    -0.275 OA
ATOM     22  N   UNL     1       8.828 -10.810   2.037  0.00  0.00    -0.285 N 
ATOM     23  H   UNL     1       8.319 -10.926   2.855  0.00  0.00    +0.155 HD
BRANCH  22  24
ATOM     24  C   UNL     1      10.074 -11.431   1.894  0.00  0.00    +0.034 A 
ATOM     25  C   UNL     1      10.293 -12.687   2.446  0.00  0.00    +0.025 A 
ATOM     26  C   UNL     1      11.523 -13.297   2.302  0.00  0.00    +0.034 A 
ATOM     27  C   UNL     1      12.537 -12.660   1.610  0.00  0.00    +0.126 A 
ATOM     28  C   UNL     1      12.322 -11.409   1.060  0.00  0.00    +0.034 A 
ATOM     29  C   UNL     1      11.092 -10.796   1.194  0.00  0.00    +0.025 A 
BRANCH  27  30
ATOM     30  N   UNL     1      13.854 -13.317   1.458  0.00  0.00    +0.056 N 
ATOM     31  O   UNL     1      14.043 -14.410   1.939  0.00  0.00    -0.126 OA
ATOM     32  O   UNL     1      14.741 -12.761   0.854  0.00  0.00    -0.126 OA
ENDBRANCH  27  30
ENDBRANCH  22  24
ENDBRANCH  19  20
ENDBRANCH   6  19
TORSDOF 7
