REMARK  Name = ZINC63316291
REMARK  4 active torsions:
REMARK  status: ('A' for Active; 'I' for Inactive)
REMARK    1  A    between atoms: C_5  and  S_14
REMARK    2  A    between atoms: C_10  and  N_11
REMARK    3  A    between atoms: S_14  and  C_15
REMARK    4  A    between atoms: C_15  and  C_16
REMARK                            x       y       z     vdW  Elec       q    Type
REMARK                         _______ _______ _______ _____ _____    ______ ____
ROOT
ATOM      1  C   UNL     1      -0.017   1.402   0.010  0.00  0.00    +0.035 A 
ATOM      2  C   UNL     1       1.108   2.144   0.003  0.00  0.00    +0.029 A 
ATOM      3  C   UNL     1       2.417   1.476  -0.013  0.00  0.00    +0.061 A 
ATOM      4  N   UNL     1       3.639   1.924  -0.022  0.00  0.00    -0.355 N 
ATOM      5  C   UNL     1       4.535   0.761  -0.037  0.00  0.00    +0.236 C 
ATOM      6  N   UNL     1       3.671  -0.427  -0.035  0.00  0.00    -0.355 N 
ATOM      7  C   UNL     1       2.437  -0.012  -0.021  0.00  0.00    +0.063 A 
ATOM      8  C   UNL     1       1.147  -0.715  -0.013  0.00  0.00    +0.060 A 
ATOM      9  C   UNL     1       0.002  -0.004   0.002  0.00  0.00    +0.128 A 
ATOM     10  H   UNL     1       3.966  -1.351  -0.043  0.00  0.00    +0.162 HD
ATOM     11  H   UNL     1       3.909   2.856  -0.020  0.00  0.00    +0.162 HD
ENDROOT
BRANCH   9  12
ATOM     12  N   UNL     1      -1.286  -0.732   0.010  0.00  0.00    +0.056 N 
ATOM     13  O   UNL     1      -2.328  -0.118   0.024  0.00  0.00    -0.126 OA
ATOM     14  O   UNL     1      -1.298  -1.941   0.004  0.00  0.00    -0.126 OA
ENDBRANCH   9  12
BRANCH   5  15
ATOM     15  S   UNL     1       5.561   0.784  -1.533  0.00  0.00    -0.109 S 
BRANCH  15  16
ATOM     16  C   UNL     1       4.358   0.773  -2.890  0.00  0.00    +0.125 C 
BRANCH  16  17
ATOM     17  C   UNL     1       5.088   0.791  -4.209  0.00  0.00    +0.043 C 
ATOM     18  N   UNL     1       6.357   0.805  -4.340  0.00  0.00    -0.263 NA
ATOM     19  C   UNL     1       6.746   0.793  -5.745  0.00  0.00    +0.215 C 
ATOM     20  C   UNL     1       7.652   1.947  -6.095  0.00  0.00    +0.020 C 
ATOM     21  C   UNL     1       7.526   2.530  -7.289  0.00  0.00    +0.020 C 
ATOM     22  C   UNL     1       6.535   2.079  -8.274  0.00  0.00    +0.054 C 
ATOM     23  C   UNL     1       5.504   1.299  -7.869  0.00  0.00    +0.092 C 
ATOM     24  N   UNL     1       5.505   0.960  -6.528  0.00  0.00    -0.304 N 
ATOM     25  C   UNL     1       4.422   0.789  -5.567  0.00  0.00    +0.158 C 
ATOM     26 CL   UNL     1       6.683   2.541  -9.941  0.00  0.00    -0.082 Cl
ENDBRANCH  16  17
ENDBRANCH  15  16
ENDBRANCH   5  15
TORSDOF 4
