REMARK  Name = ZINC45330061
REMARK  6 active torsions:
REMARK  status: ('A' for Active; 'I' for Inactive)
REMARK    1  A    between atoms: C_3  and  C_15
REMARK    2  A    between atoms: C_5  and  S_7
REMARK    3  A    between atoms: S_7  and  N_10
REMARK    4  A    between atoms: N_17  and  N_18
REMARK    5  A    between atoms: C_19  and  C_20
REMARK    6  A    between atoms: C_23  and  C_25
REMARK                            x       y       z     vdW  Elec       q    Type
REMARK                         _______ _______ _______ _____ _____    ______ ____
ROOT
ATOM      1  C   UNL     1       3.656   2.160  -0.022  0.00  0.00    +0.263 C 
ATOM      2  O   UNL     1       4.716   1.563  -0.035  0.00  0.00    -0.268 OA
ATOM      3  N   UNL     1       3.642   3.507  -0.015  0.00  0.00    -0.203 N 
ATOM      4  H   UNL     1       2.796   3.983  -0.004  0.00  0.00    +0.178 HD
ENDROOT
BRANCH   1   7
ATOM      5  C   UNL     1      -0.017   1.379   0.010  0.00  0.00    +0.003 A 
ATOM      6  C   UNL     1       1.167   2.088   0.002  0.00  0.00    +0.013 A 
ATOM      7  C   UNL     1       2.385   1.407  -0.013  0.00  0.00    +0.040 A 
ATOM      8  C   UNL     1       2.397   0.011  -0.021  0.00  0.00    +0.041 A 
ATOM      9  C   UNL     1       1.206  -0.686  -0.013  0.00  0.00    +0.106 A 
ATOM     10  C   UNL     1       0.002  -0.004   0.002  0.00  0.00    +0.028 A 
BRANCH   9  11
ATOM     11  S   UNL     1       1.219  -2.448  -0.023  0.00  0.00    +0.061 S 
ATOM     12  O   UNL     1      -0.029  -2.860  -0.564  0.00  0.00    -0.153 OA
ATOM     13  O   UNL     1       2.461  -2.842  -0.588  0.00  0.00    -0.153 OA
BRANCH  11  14
ATOM     14  N   UNL     1       1.238  -2.946   1.556  0.00  0.00    -0.177 NA
ATOM     15  C   UNL     1       2.442  -3.190   2.363  0.00  0.00    +0.109 C 
ATOM     16  C   UNL     1       1.972  -3.662   3.756  0.00  0.00    +0.018 C 
ATOM     17  C   UNL     1       0.544  -4.200   3.477  0.00  0.00    +0.018 C 
ATOM     18  C   UNL     1       0.049  -3.214   2.387  0.00  0.00    +0.109 C 
ENDBRANCH  11  14
ENDBRANCH   9  11
ENDBRANCH   1   7
BRANCH   3  19
ATOM     19  N   UNL     1       4.847   4.221  -0.023  0.00  0.00    -0.184 NA
ATOM     20  C   UNL     1       4.833   5.523  -0.016  0.00  0.00    +0.176 C 
BRANCH  20  21
ATOM     21  C   UNL     1       6.093   6.269  -0.025  0.00  0.00    +0.148 A 
ATOM     22  C   UNL     1       6.221   7.641  -0.014  0.00  0.00    +0.051 A 
ATOM     23  C   UNL     1       7.594   7.919  -0.028  0.00  0.00    +0.050 A 
ATOM     24  C   UNL     1       8.245   6.721  -0.047  0.00  0.00    +0.136 A 
ATOM     25  O   UNL     1       7.330   5.733  -0.039  0.00  0.00    -0.454 OA
BRANCH  24  26
ATOM     26  C   UNL     1       9.710   6.538  -0.067  0.00  0.00    +0.017 A 
ATOM     27  C   UNL     1      10.556   7.650  -0.062  0.00  0.00    +0.013 A 
ATOM     28  C   UNL     1      11.923   7.472  -0.080  0.00  0.00    +0.021 A 
ATOM     29  C   UNL     1      12.458   6.194  -0.104  0.00  0.00    +0.041 A 
ATOM     30  C   UNL     1      11.624   5.088  -0.110  0.00  0.00    +0.021 A 
ATOM     31  C   UNL     1      10.255   5.252  -0.086  0.00  0.00    +0.013 A 
ATOM     32 CL   UNL     1      14.180   5.979  -0.129  0.00  0.00    -0.084 Cl
ENDBRANCH  24  26
ENDBRANCH  20  21
ENDBRANCH   3  19
TORSDOF 6
