REMARK  Name = ZINC36001565
REMARK  11 active torsions:
REMARK  status: ('A' for Active; 'I' for Inactive)
REMARK    1  A    between atoms: C_1  and  C_2
REMARK    2  A    between atoms: C_2  and  N_3
REMARK    3  A    between atoms: N_9  and  C_14
REMARK    4  A    between atoms: C_11  and  C_13
REMARK    5  A    between atoms: C_14  and  C_15
REMARK    6  A    between atoms: C_16  and  C_29
REMARK    7  A    between atoms: C_17  and  C_24
REMARK    8  A    between atoms: N_22  and  C_23
REMARK    9  A    between atoms: C_29  and  O_31
REMARK   10  A    between atoms: O_31  and  C_32
REMARK   11  A    between atoms: C_32  and  C_33
REMARK                            x       y       z     vdW  Elec       q    Type
REMARK                         _______ _______ _______ _____ _____    ______ ____
ROOT
ATOM      1  C   UNL     1      -7.655  -2.996  -0.998  0.00  0.00    +0.041 C 
ATOM      2  C   UNL     1      -8.130  -2.079  -1.867  0.00  0.00    +0.080 C 
ATOM      3  C   UNL     1      -9.379  -1.316  -1.474  0.00  0.00    +0.144 C 
ATOM      4  N   UNL     1      -9.977  -1.642  -0.169  0.00  0.00    -0.288 N 
ATOM      5  C   UNL     1      -9.385  -2.585   0.590  0.00  0.00    +0.307 C 
ATOM      6  O   UNL     1      -9.871  -2.861   1.670  0.00  0.00    -0.252 OA
ATOM      7  N   UNL     1      -8.283  -3.233   0.192  0.00  0.00    -0.260 N 
ATOM      8  C   UNL     1      -7.716  -4.247   1.084  0.00  0.00    +0.139 C 
ATOM      9  H   UNL     1     -10.777  -1.188   0.138  0.00  0.00    +0.151 HD
ENDROOT
BRANCH   3  10
ATOM     10  C   UNL     1      -9.048   0.154  -1.480  0.00  0.00    -0.015 A 
ATOM     11  C   UNL     1      -9.405   0.950  -2.551  0.00  0.00    +0.013 A 
ATOM     12  C   UNL     1      -9.092   2.268  -2.524  0.00  0.00    +0.045 A 
ATOM     13  S   UNL     1      -8.266   2.419  -0.949  0.00  0.00    -0.105 S 
ATOM     14  C   UNL     1      -8.399   0.716  -0.430  0.00  0.00    +0.051 A 
ENDBRANCH   3  10
BRANCH   2  15
ATOM     15  C   UNL     1      -7.483  -1.836  -3.101  0.00  0.00    +0.339 C 
ATOM     16  O   UNL     1      -6.697  -0.913  -3.205  0.00  0.00    -0.245 OA
BRANCH  15  17
ATOM     17  O   UNL     1      -7.737  -2.629  -4.163  0.00  0.00    -0.462 OA
BRANCH  17  18
ATOM     18  C   UNL     1      -7.048  -2.327  -5.378  0.00  0.00    +0.229 C 
ATOM     19  C   UNL     1      -7.461  -3.326  -6.461  0.00  0.00    +0.048 C 
ENDBRANCH  17  18
ENDBRANCH  15  17
ENDBRANCH   2  15
BRANCH   1  20
ATOM     20  C   UNL     1      -6.414  -3.777  -1.348  0.00  0.00    +0.136 C 
BRANCH  20  27
ATOM     21  N   UNL     1      -1.259  -0.933   0.611  0.00  0.00    -0.299 N 
ATOM     22  C   UNL     1      -1.554  -2.244   0.516  0.00  0.00    +0.303 C 
ATOM     23  O   UNL     1      -0.661  -3.062   0.408  0.00  0.00    -0.253 OA
ATOM     24  N   UNL     1      -2.840  -2.649   0.540  0.00  0.00    -0.280 N 
ATOM     25  C   UNL     1      -3.939  -1.672   0.552  0.00  0.00    +0.125 C 
ATOM     26  C   UNL     1      -4.926  -2.036  -0.562  0.00  0.00    +0.104 C 
ATOM     27  N   UNL     1      -5.339  -3.437  -0.406  0.00  0.00    -0.294 NA
ATOM     28  C   UNL     1      -4.198  -4.349  -0.559  0.00  0.00    +0.107 C 
ATOM     29  C   UNL     1      -3.180  -4.080   0.548  0.00  0.00    +0.088 C 
ATOM     30  C   UNL     1      -1.920  -4.910   0.299  0.00  0.00    +0.029 C 
ATOM     31  H   UNL     1      -1.971  -0.275   0.625  0.00  0.00    +0.150 HD
BRANCH  21  33
ATOM     32  C   UNL     1       0.196   1.025   0.794  0.00  0.00    +0.024 C 
ATOM     33  C   UNL     1       0.139  -0.501   0.694  0.00  0.00    +0.102 C 
ENDBRANCH  21  33
ENDBRANCH  20  27
ENDBRANCH   1  20
TORSDOF 7
