REMARK  Name = ZINC24093467
REMARK  11 active torsions:
REMARK  status: ('A' for Active; 'I' for Inactive)
REMARK    1  A    between atoms: C_1  and  C_2
REMARK    2  A    between atoms: C_2  and  C_3
REMARK    3  A    between atoms: C_3  and  N_4
REMARK    4  A    between atoms: C_5  and  C_7
REMARK    5  A    between atoms: C_7  and  N_8
REMARK    6  A    between atoms: N_11  and  C_14
REMARK    7  A    between atoms: C_14  and  N_15
REMARK    8  A    between atoms: C_21  and  C_24
REMARK    9  A    between atoms: C_24  and  C_25
REMARK   10  A    between atoms: C_24  and  C_26
REMARK   11  A    between atoms: C_24  and  C_27
REMARK                            x       y       z     vdW  Elec       q    Type
REMARK                         _______ _______ _______ _____ _____    ______ ____
ROOT
ATOM      1  N   UNL     1       1.264   5.969  -2.344  0.00  0.00    -0.211 N 
ATOM      2  C   UNL     1       0.627   5.614  -1.209  0.00  0.00    +0.248 C 
ATOM      3  O   UNL     1       0.148   6.352  -0.374  0.00  0.00    -0.273 OA
ATOM      4  C   UNL     1       0.636   4.103  -1.197  0.00  0.00    +0.113 C 
ATOM      5  C   UNL     1       1.395   3.586   0.020  0.00  0.00    +0.035 C 
ATOM      6  C   UNL     1       1.417   2.055  -0.000  0.00  0.00    +0.006 C 
ATOM      7  C   UNL     1      -0.019   1.526   0.010  0.00  0.00    -0.005 C 
ATOM      8  C   UNL     1      -0.759   2.033  -1.229  0.00  0.00    +0.006 C 
ATOM      9  C   UNL     1      -0.790   3.563  -1.213  0.00  0.00    +0.035 C 
ATOM     10  N   UNL     1       1.338   3.740  -2.434  0.00  0.00    -0.285 N 
ATOM     11  C   UNL     1       1.667   4.899  -3.038  0.00  0.00    +0.310 C 
ATOM     12  O   UNL     1       2.264   4.964  -4.095  0.00  0.00    -0.252 OA
ATOM     13  H   UNL     1       1.493   2.682  -2.689  0.00  0.00    +0.151 HD
ENDROOT
BRANCH   7  14
ATOM     14  C   UNL     1       0.002  -0.004   0.002  0.00  0.00    -0.035 C 
ATOM     15  C   UNL     1       0.742  -0.511   1.242  0.00  0.00    +0.011 C 
ATOM     16  C   UNL     1      -1.433  -0.534   0.013  0.00  0.00    +0.011 C 
ATOM     17  C   UNL     1       0.718  -0.497  -1.257  0.00  0.00    +0.011 C 
ENDBRANCH   7  14
BRANCH   1  18
ATOM     18  C   UNL     1       1.487   7.355  -2.764  0.00  0.00    +0.204 C 
BRANCH  18  22
ATOM     19  N   UNL     1       4.538   9.754  -1.098  0.00  0.00    +0.387 N 
ATOM     20  C   UNL     1       4.683   9.331  -2.497  0.00  0.00    -0.063 C 
ATOM     21  C   UNL     1       3.315   8.918  -3.046  0.00  0.00    +0.067 C 
ATOM     22  N   UNL     1       2.767   7.831  -2.223  0.00  0.00    -0.290 NA
ATOM     23  C   UNL     1       2.623   8.255  -0.824  0.00  0.00    +0.067 C 
ATOM     24  C   UNL     1       3.991   8.667  -0.275  0.00  0.00    -0.063 C 
ATOM     25  H   UNL     1       3.828  10.594  -1.068  0.00  0.00    -0.081 HD
BRANCH  19  26
ATOM     26  C   UNL     1       5.819  10.230  -0.557  0.00  0.00    +0.019 C 
BRANCH  26  28
ATOM     27  N   UNL     1       6.627  11.394   1.470  0.00  0.00    -0.317 N 
ATOM     28  C   UNL     1       5.588  10.880   0.783  0.00  0.00    +0.196 C 
ATOM     29  O   UNL     1       4.467  10.941   1.242  0.00  0.00    -0.278 OA
ATOM     30  H   UNL     1       7.644  11.338   1.054  0.00  0.00    +0.149 HD
BRANCH  27  31
ATOM     31  C   UNL     1       6.403  12.026   2.773  0.00  0.00    +0.104 C 
BRANCH  31  33
ATOM     32  C   UNL     1       7.502  13.181   4.696  0.00  0.00    +0.005 C 
ATOM     33  C   UNL     1       7.737  12.521   3.336  0.00  0.00    +0.015 C 
ENDBRANCH  31  33
ENDBRANCH  27  31
ENDBRANCH  26  28
ENDBRANCH  19  26
ENDBRANCH  18  22
ENDBRANCH   1  18
TORSDOF 7
