REMARK  Name = ZINC40800629
REMARK  6 active torsions:
REMARK  status: ('A' for Active; 'I' for Inactive)
REMARK    1  A    between atoms: C_1  and  O_2
REMARK    2  A    between atoms: O_2  and  C_3
REMARK    3  A    between atoms: C_3  and  C_5
REMARK    4  A    between atoms: C_12  and  N_25
REMARK    5  A    between atoms: C_13  and  N_17
REMARK    6  A    between atoms: N_17  and  C_18
REMARK                            x       y       z     vdW  Elec       q    Type
REMARK                         _______ _______ _______ _____ _____    ______ ____
ROOT
ATOM      1  C   UNL     1       0.091  -2.919  -0.051  0.00  0.00    +0.101 C 
ATOM      2  C   UNL     1       0.183  -4.440   0.086  0.00  0.00    +0.033 C 
ATOM      3  C   UNL     1       0.843  -5.023  -1.167  0.00  0.00    +0.107 C 
ATOM      4  N   UNL     1       0.099  -4.568  -2.349  0.00  0.00    -0.314 N 
ATOM      5  C   UNL     1      -0.126  -3.127  -2.531  0.00  0.00    +0.107 C 
ATOM      6  C   UNL     1      -0.775  -2.566  -1.262  0.00  0.00    +0.033 C 
ATOM      7  C   UNL     1      -0.383  -5.482  -3.278  0.00  0.00    +0.147 A 
ATOM      8  C   UNL     1       0.370  -5.811  -4.406  0.00  0.00    +0.105 A 
ATOM      9  C   UNL     1      -0.161  -6.735  -5.307  0.00  0.00    +0.145 A 
ATOM     10  N   UNL     1      -1.356  -7.265  -5.058  0.00  0.00    -0.219 NA
ATOM     11  C   UNL     1      -2.035  -6.928  -3.980  0.00  0.00    +0.225 A 
ATOM     12  N   UNL     1      -1.568  -6.063  -3.102  0.00  0.00    -0.219 NA
ENDROOT
BRANCH   8  13
ATOM     13  N   UNL     1       1.627  -5.226  -4.630  0.00  0.00    -0.353 N 
ATOM     14  H   UNL     1       2.024  -4.655  -3.953  0.00  0.00    +0.143 HD
ATOM     15  H   UNL     1       2.099  -5.394  -5.460  0.00  0.00    +0.143 HD
ENDBRANCH   8  13
BRANCH   1  16
ATOM     16  C   UNL     1      -0.527  -2.339   1.195  0.00  0.00    +0.310 C 
ATOM     17  O   UNL     1      -1.555  -1.708   1.122  0.00  0.00    -0.251 OA
BRANCH  16  19
ATOM     18  C   UNL     1      -0.577  -1.945   3.525  0.00  0.00    +0.280 C 
ATOM     19  O   UNL     1       0.064  -2.523   2.386  0.00  0.00    -0.468 OA
ENDBRANCH  16  19
ENDBRANCH   1  16
BRANCH   9  20
ATOM     20  N   UNL     1       0.547  -7.097  -6.447  0.00  0.00    -0.325 N 
ATOM     21  H   UNL     1       1.417  -6.706  -6.621  0.00  0.00    +0.148 HD
BRANCH  20  22
ATOM     22  C   UNL     1      -0.021  -8.069  -7.385  0.00  0.00    +0.072 C 
ATOM     23  C   UNL     1       0.253  -9.492  -6.856  0.00  0.00    +0.022 C 
ATOM     24  C   UNL     1      -0.728 -10.436  -7.498  0.00  0.00    +0.002 C 
ATOM     25  C   UNL     1      -0.159 -11.106  -8.763  0.00  0.00    +0.000 C 
ATOM     26  C   UNL     1       0.633 -10.128  -9.652  0.00  0.00    +0.000 C 
ATOM     27  C   UNL     1      -0.037  -8.786  -9.771  0.00  0.00    +0.002 C 
ATOM     28  C   UNL     1       0.556  -7.845  -8.702  0.00  0.00    +0.022 C 
ENDBRANCH  20  22
ENDBRANCH   9  20
TORSDOF 5
