REMARK  Name = ZINC12529149
REMARK  11 active torsions:
REMARK  status: ('A' for Active; 'I' for Inactive)
REMARK    1  A    between atoms: C_1  and  C_2
REMARK    2  A    between atoms: C_5  and  N_11
REMARK    3  A    between atoms: C_6  and  N_8
REMARK    4  A    between atoms: C_12  and  C_14
REMARK    5  A    between atoms: C_14  and  O_15
REMARK    6  A    between atoms: O_15  and  C_16
REMARK    7  A    between atoms: C_16  and  C_18
REMARK    8  A    between atoms: C_21  and  S_24
REMARK    9  A    between atoms: S_24  and  N_27
REMARK   10  A    between atoms: N_27  and  C_28
REMARK   11  A    between atoms: C_28  and  C_29
REMARK                            x       y       z     vdW  Elec       q    Type
REMARK                         _______ _______ _______ _____ _____    ______ ____
ROOT
ATOM      1  C   UNL     1      -0.014   1.209  -0.006  0.00  0.00    +0.340 C 
ATOM      2  O   UNL     1       0.003  -0.006  -0.028  0.00  0.00    -0.245 OA
ENDROOT
BRANCH   1   3
ATOM      3  C   UNL     1      -1.303   1.930   0.010  0.00  0.00    +0.059 A 
ATOM      4  C   UNL     1      -1.326   3.325   0.041  0.00  0.00    +0.017 A 
ATOM      5  C   UNL     1      -2.533   3.993   0.051  0.00  0.00    +0.029 A 
ATOM      6  C   UNL     1      -3.720   3.281   0.042  0.00  0.00    +0.105 A 
ATOM      7  C   UNL     1      -3.705   1.898   0.017  0.00  0.00    +0.029 A 
ATOM      8  C   UNL     1      -2.505   1.218   0.001  0.00  0.00    +0.017 A 
BRANCH   6   9
ATOM      9  S   UNL     1      -5.258   4.141   0.061  0.00  0.00    +0.059 S 
ATOM     10  O   UNL     1      -5.006   5.436  -0.467  0.00  0.00    -0.153 OA
ATOM     11  O   UNL     1      -6.222   3.263  -0.503  0.00  0.00    -0.153 OA
BRANCH   9  12
ATOM     12  N   UNL     1      -5.681   4.352   1.648  0.00  0.00    -0.183 NA
ATOM     13  H   UNL     1      -6.473   3.917   2.001  0.00  0.00    +0.148 HD
BRANCH  12  14
ATOM     14  C   UNL     1      -4.859   5.196   2.520  0.00  0.00    +0.180 C 
BRANCH  14  15
ATOM     15  C   UNL     1      -5.629   5.523   3.773  0.00  0.00    +0.120 A 
ATOM     16  C   UNL     1      -5.626   4.802   4.909  0.00  0.00    +0.046 A 
ATOM     17  C   UNL     1      -6.480   5.468   5.819  0.00  0.00    +0.041 A 
ATOM     18  C   UNL     1      -6.953   6.555   5.184  0.00  0.00    +0.195 A 
ATOM     19  O   UNL     1      -6.430   6.587   3.948  0.00  0.00    -0.466 OA
ENDBRANCH  14  15
ENDBRANCH  12  14
ENDBRANCH   9  12
ENDBRANCH   6   9
ENDBRANCH   1   3
BRANCH   1  20
ATOM     20  O   UNL     1       1.143   1.898  -0.003  0.00  0.00    -0.452 OA
BRANCH  20  21
ATOM     21  C   UNL     1       2.372   1.124  -0.027  0.00  0.00    +0.328 C 
BRANCH  21  23
ATOM     22  N   UNL     1       4.807   1.561  -0.038  0.00  0.00    -0.281 N 
ATOM     23  C   UNL     1       3.554   2.058  -0.019  0.00  0.00    +0.255 C 
ATOM     24  O   UNL     1       3.379   3.258   0.004  0.00  0.00    -0.272 OA
ATOM     25  H   UNL     1       4.949   0.603   0.025  0.00  0.00    +0.155 HD
BRANCH  22  30
ATOM     26  C   UNL     1       9.246   5.065  -0.484  0.00  0.00    +0.044 C 
ATOM     27  C   UNL     1       8.067   4.134  -0.366  0.00  0.00    -0.048 A 
ATOM     28  C   UNL     1       6.831   4.520  -0.853  0.00  0.00    +0.005 A 
ATOM     29  C   UNL     1       5.749   3.669  -0.746  0.00  0.00    +0.026 A 
ATOM     30  C   UNL     1       5.902   2.425  -0.148  0.00  0.00    +0.064 A 
ATOM     31  C   UNL     1       7.142   2.043   0.345  0.00  0.00    +0.148 A 
ATOM     32  C   UNL     1       8.222   2.896   0.230  0.00  0.00    +0.038 A 
BRANCH  31  33
ATOM     33  N   UNL     1       7.308   0.720   0.989  0.00  0.00    +0.058 N 
ATOM     34  O   UNL     1       8.372   0.421   1.501  0.00  0.00    -0.126 OA
ATOM     35  O   UNL     1       6.381  -0.070   1.006  0.00  0.00    -0.126 OA
ENDBRANCH  31  33
ENDBRANCH  22  30
ENDBRANCH  21  23
ENDBRANCH  20  21
ENDBRANCH   1  20
TORSDOF 10
