REMARK  Name = ZINC13033116
REMARK  11 active torsions:
REMARK  status: ('A' for Active; 'I' for Inactive)
REMARK    1  A    between atoms: C_1  and  C_2
REMARK    2  A    between atoms: C_7  and  C_15
REMARK    3  A    between atoms: C_13  and  C_14
REMARK    4  A    between atoms: C_15  and  N_67
REMARK    5  A    between atoms: C_16  and  C_17
REMARK    6  A    between atoms: C_16  and  N_67
REMARK    7  A    between atoms: N_21  and  C_22
REMARK    8  A    between atoms: C_22  and  C_23
REMARK    9  A    between atoms: C_23  and  C_24
REMARK   10  A    between atoms: C_30  and  C_31
REMARK   11  A    between atoms: C_30  and  N_67
REMARK                            x       y       z     vdW  Elec       q    Type
REMARK                         _______ _______ _______ _____ _____    ______ ____
ROOT
ATOM      1  N   UNL     1      -2.814   1.780   3.061  0.00  0.00    +0.389 N 
ATOM      2  H   UNL     1      -1.893   1.684   3.504  0.00  0.00    -0.081 HD
ENDROOT
BRANCH   1   3
ATOM      3  C   UNL     1      -3.536   0.495   3.170  0.00  0.00    -0.037 C 
BRANCH   3  10
ATOM      4  C   UNL     1      -3.667  -1.844  10.794  0.00  0.00    +0.044 C 
ATOM      5  C   UNL     1      -3.852  -1.309   9.397  0.00  0.00    -0.046 A 
ATOM      6  C   UNL     1      -5.010  -0.615   9.076  0.00  0.00    +0.004 A 
ATOM      7  C   UNL     1      -5.197  -0.121   7.816  0.00  0.00    +0.010 A 
ATOM      8  C   UNL     1      -4.213  -0.317   6.841  0.00  0.00    -0.001 A 
ATOM      9  C   UNL     1      -4.382   0.198   5.481  0.00  0.00    +0.017 A 
ATOM     10  C   UNL     1      -3.394  -0.022   4.578  0.00  0.00    +0.001 A 
ATOM     11  C   UNL     1      -2.237  -0.738   4.951  0.00  0.00    +0.251 A 
ATOM     12  O   UNL     1      -1.364  -0.929   4.123  0.00  0.00    -0.268 OA
ATOM     13  N   UNL     1      -2.071  -1.210   6.199  0.00  0.00    -0.322 N 
ATOM     14  H   UNL     1      -1.261  -1.696   6.423  0.00  0.00    +0.169 HD
ATOM     15  C   UNL     1      -3.038  -1.021   7.163  0.00  0.00    +0.052 A 
ATOM     16  C   UNL     1      -2.869  -1.514   8.453  0.00  0.00    -0.024 A 
ATOM     17  C   UNL     1      -1.617  -2.270   8.816  0.00  0.00    +0.046 C 
ENDBRANCH   3  10
ENDBRANCH   1   3
BRANCH   1  18
ATOM     18  C   UNL     1      -3.572   2.845   3.752  0.00  0.00    +0.001 C 
BRANCH  18  19
ATOM     19  C   UNL     1      -2.718   4.085   3.817  0.00  0.00    +0.135 A 
ATOM     20  N   UNL     1      -1.873   4.404   4.768  0.00  0.00    -0.115 NA
ATOM     21  N   UNL     1      -1.337   5.535   4.460  0.00  0.00    -0.023 NA
ATOM     22  N   UNL     1      -1.823   5.948   3.342  0.00  0.00    -0.044 NA
ATOM     23  N   UNL     1      -2.678   5.082   2.914  0.00  0.00    -0.231 N 
BRANCH  23  24
ATOM     24  C   UNL     1      -3.458   5.167   1.677  0.00  0.00    +0.152 C 
BRANCH  24  25
ATOM     25  C   UNL     1      -4.782   5.881   1.957  0.00  0.00    +0.058 C 
BRANCH  25  26
ATOM     26  C   UNL     1      -5.585   5.969   0.685  0.00  0.00    -0.046 A 
ATOM     27  C   UNL     1      -5.442   7.063  -0.149  0.00  0.00    +0.004 A 
ATOM     28  C   UNL     1      -6.175   7.141  -1.318  0.00  0.00    +0.000 A 
ATOM     29  C   UNL     1      -7.057   6.129  -1.650  0.00  0.00    +0.000 A 
ATOM     30  C   UNL     1      -7.203   5.038  -0.814  0.00  0.00    +0.000 A 
ATOM     31  C   UNL     1      -6.467   4.958   0.353  0.00  0.00    +0.004 A 
ENDBRANCH  25  26
ENDBRANCH  24  25
ENDBRANCH  23  24
ENDBRANCH  18  19
ENDBRANCH   1  18
BRANCH   1  32
ATOM     32  C   UNL     1      -2.628   2.136   1.638  0.00  0.00    -0.046 C 
BRANCH  32  33
ATOM     33  C   UNL     1      -1.594   1.190   1.026  0.00  0.00    +0.102 C 
ATOM     34  C   UNL     1      -1.358   1.540  -0.460  0.00  0.00    +0.032 C 
ATOM     35  C   UNL     1       0.156   1.306  -0.665  0.00  0.00    +0.030 C 
ATOM     36  C   UNL     1       0.655   0.842   0.721  0.00  0.00    +0.160 C 
ATOM     37  O   UNL     1      -0.306   1.374   1.659  0.00  0.00    -0.378 OA
ENDBRANCH  32  33
ENDBRANCH   1  32
TORSDOF 9
