REMARK  Name = ZINC39571218
REMARK  6 active torsions:
REMARK  status: ('A' for Active; 'I' for Inactive)
REMARK    1  A    between atoms: C_1  and  C_2
REMARK    2  A    between atoms: C_2  and  C_3
REMARK    3  A    between atoms: C_2  and  C_4
REMARK    4  A    between atoms: C_7  and  C_10
REMARK    5  A    between atoms: N_11  and  N_12
REMARK    6  A    between atoms: C_13  and  C_15
REMARK                            x       y       z     vdW  Elec       q    Type
REMARK                         _______ _______ _______ _____ _____    ______ ____
ROOT
ATOM      1  N   UNL     1      -7.129  -3.232  -0.917  0.00  0.00    -0.205 N 
ATOM      2  C   UNL     1      -7.567  -4.012  -1.925  0.00  0.00    +0.263 C 
ATOM      3  O   UNL     1      -6.824  -4.294  -2.841  0.00  0.00    -0.271 OA
ATOM      4  H   UNL     1      -7.724  -3.007  -0.184  0.00  0.00    +0.177 HD
ENDROOT
BRANCH   2   5
ATOM      5  C   UNL     1      -8.981  -4.535  -1.913  0.00  0.00    +0.243 C 
ATOM      6  C   UNL     1      -9.943  -3.493  -2.447  0.00  0.00    -0.012 C 
ATOM      7  C   UNL     1     -10.481  -4.051  -3.529  0.00  0.00    +0.065 C 
ATOM      8  C   UNL     1     -11.474  -3.092  -4.162  0.00  0.00    +0.057 C 
ATOM      9  C   UNL     1     -11.776  -2.045  -3.068  0.00  0.00    +0.011 C 
ATOM     10  C   UNL     1     -10.493  -2.110  -2.210  0.00  0.00    +0.035 C 
ATOM     11  N   UNL     1      -9.966  -5.297  -3.713  0.00  0.00    -0.158 NA
ATOM     12  N   UNL     1      -9.134  -5.645  -2.869  0.00  0.00    -0.170 NA
ENDBRANCH   2   5
BRANCH   1  14
ATOM     13  C   UNL     1      -5.393  -1.996   0.044  0.00  0.00    +0.138 C 
ATOM     14  N   UNL     1      -5.815  -2.747  -0.927  0.00  0.00    -0.188 NA
BRANCH  13  18
ATOM     15  C   UNL     1      -1.412  -0.526   0.013  0.00  0.00    -0.045 A 
ATOM     16  C   UNL     1      -2.257  -0.202   1.059  0.00  0.00    +0.004 A 
ATOM     17  C   UNL     1      -3.552  -0.676   1.076  0.00  0.00    +0.010 A 
ATOM     18  C   UNL     1      -4.010  -1.485   0.033  0.00  0.00    -0.005 A 
ATOM     19  C   UNL     1      -3.151  -1.807  -1.021  0.00  0.00    +0.010 A 
ATOM     20  C   UNL     1      -1.860  -1.321  -1.027  0.00  0.00    +0.004 A 
BRANCH  15  22
ATOM     21  C   UNL     1      -0.019   1.526   0.010  0.00  0.00    +0.012 C 
ATOM     22  C   UNL     1       0.002  -0.004   0.002  0.00  0.00    +0.013 C 
ATOM     23  C   UNL     1       0.742  -0.511   1.242  0.00  0.00    +0.012 C 
ENDBRANCH  15  22
ENDBRANCH  13  18
ENDBRANCH   1  14
TORSDOF 4
