REMARK  Name = ZINC09085475
REMARK  7 active torsions:
REMARK  status: ('A' for Active; 'I' for Inactive)
REMARK    1  A    between atoms: C_2  and  C_3
REMARK    2  A    between atoms: C_3  and  N_4
REMARK    3  A    between atoms: C_14  and  S_15
REMARK    4  A    between atoms: S_15  and  C_16
REMARK    5  A    between atoms: C_16  and  C_17
REMARK    6  A    between atoms: N_19  and  C_20
REMARK    7  A    between atoms: C_21  and  C_28
REMARK                            x       y       z     vdW  Elec       q    Type
REMARK                         _______ _______ _______ _____ _____    ______ ____
ROOT
ATOM      1  C   UNL     1      -4.320  -1.749  -0.244  0.00  0.00    +0.173 C 
ENDROOT
BRANCH   1   2
ATOM      2  C   UNL     1      -4.570  -2.558  -1.490  0.00  0.00    +0.228 C 
ATOM      3  O   UNL     1      -3.973  -2.296  -2.513  0.00  0.00    -0.275 OA
ATOM      4  N   UNL     1      -5.458  -3.572  -1.469  0.00  0.00    -0.279 N 
ATOM      5  H   UNL     1      -5.935  -3.781  -0.651  0.00  0.00    +0.155 HD
BRANCH   4   6
ATOM      6  C   UNL     1      -5.688  -4.316  -2.616  0.00  0.00    +0.084 A 
ATOM      7  C   UNL     1      -6.547  -5.388  -2.788  0.00  0.00    +0.068 A 
ATOM      8  C   UNL     1      -6.607  -6.002  -4.114  0.00  0.00    -0.023 A 
ATOM      9  C   UNL     1      -5.796  -5.451  -5.035  0.00  0.00    -0.004 A 
ATOM     10  S   UNL     1      -4.965  -4.136  -4.178  0.00  0.00    -0.077 S 
ATOM     11  C   UNL     1      -5.912  -6.136  -6.370  0.00  0.00    +0.043 C 
ATOM     12  C   UNL     1      -7.233  -6.932  -6.286  0.00  0.00    +0.010 C 
ATOM     13  C   UNL     1      -7.369  -7.156  -4.767  0.00  0.00    +0.037 C 
BRANCH   7  14
ATOM     14  C   UNL     1      -7.371  -5.887  -1.682  0.00  0.00    +0.244 C 
ATOM     15  O   UNL     1      -8.484  -5.431  -1.498  0.00  0.00    -0.270 OA
ATOM     16  N   UNL     1      -6.894  -6.850  -0.868  0.00  0.00    -0.325 N 
ATOM     17  H   UNL     1      -6.007  -7.213  -1.015  0.00  0.00    +0.145 HD
ATOM     18  H   UNL     1      -7.439  -7.180  -0.137  0.00  0.00    +0.145 HD
ENDBRANCH   7  14
ENDBRANCH   4   6
ENDBRANCH   1   2
BRANCH   1  19
ATOM     19  S   UNL     1      -3.086  -0.471  -0.591  0.00  0.00    -0.078 S 
BRANCH  19  30
ATOM     20  N   UNL     1      -2.135   1.352   1.151  0.00  0.00    -0.283 N 
ATOM     21  C   UNL     1      -2.032   1.978   2.346  0.00  0.00    +0.263 A 
ATOM     22  O   UNL     1      -1.278   2.921   2.501  0.00  0.00    -0.267 OA
ATOM     23  C   UNL     1      -2.864   1.479   3.449  0.00  0.00    +0.065 A 
ATOM     24  C   UNL     1      -2.828   2.058   4.717  0.00  0.00    +0.017 A 
ATOM     25  C   UNL     1      -3.620   1.557   5.712  0.00  0.00    +0.021 A 
ATOM     26  C   UNL     1      -4.463   0.478   5.474  0.00  0.00    +0.043 A 
ATOM     27  C   UNL     1      -4.519  -0.113   4.230  0.00  0.00    +0.048 A 
ATOM     28  C   UNL     1      -3.717   0.381   3.197  0.00  0.00    +0.080 A 
ATOM     29  N   UNL     1      -3.738  -0.168   1.960  0.00  0.00    -0.223 NA
ATOM     30  C   UNL     1      -2.990   0.300   0.991  0.00  0.00    +0.173 A 
ATOM     31 CL   UNL     1      -5.457  -0.134   6.759  0.00  0.00    -0.083 Cl
BRANCH  20  32
ATOM     32  C   UNL     1      -1.328   1.812   0.018  0.00  0.00    +0.154 C 
BRANCH  32  34
ATOM     33  C   UNL     1       1.113   1.746   0.001  0.00  0.00    +0.005 C 
ATOM     34  C   UNL     1      -0.013   1.076   0.008  0.00  0.00    -0.013 C 
ENDBRANCH  32  34
ENDBRANCH  20  32
ENDBRANCH  19  30
ENDBRANCH   1  19
TORSDOF 7
