REMARK  Name = ZINC00847698
REMARK  10 active torsions:
REMARK  status: ('A' for Active; 'I' for Inactive)
REMARK    1  A    between atoms: C_1  and  C_2
REMARK    2  A    between atoms: C_3  and  C_20
REMARK    3  A    between atoms: C_4  and  C_10
REMARK    4  A    between atoms: C_15  and  O_16
REMARK    5  A    between atoms: O_16  and  C_17
REMARK    6  A    between atoms: C_17  and  C_18
REMARK    7  A    between atoms: C_17  and  C_19
REMARK    8  A    between atoms: C_20  and  O_22
REMARK    9  A    between atoms: O_22  and  C_23
REMARK   10  A    between atoms: C_23  and  C_24
REMARK                            x       y       z     vdW  Elec       q    Type
REMARK                         _______ _______ _______ _____ _____    ______ ____
ROOT
ATOM      1  C   UNL     1       8.736  -0.466   5.631  0.00  0.00    +0.061 C 
ATOM      2  C   UNL     1       7.491   0.038   6.316  0.00  0.00    +0.021 C 
ATOM      3  C   UNL     1       6.387   0.296   5.582  0.00  0.00    +0.078 C 
ATOM      4  C   UNL     1       5.156   0.794   6.312  0.00  0.00    +0.147 C 
ATOM      5  N   UNL     1       5.267   0.963   7.770  0.00  0.00    -0.288 N 
ATOM      6  C   UNL     1       6.442   0.668   8.362  0.00  0.00    +0.304 C 
ATOM      7  O   UNL     1       6.544   0.804   9.566  0.00  0.00    -0.252 OA
ATOM      8  N   UNL     1       7.500   0.230   7.668  0.00  0.00    -0.273 N 
ATOM      9  H   UNL     1       4.513   1.279   8.292  0.00  0.00    +0.151 HD
ATOM     10  H   UNL     1       8.316   0.035   8.153  0.00  0.00    +0.156 HD
ENDROOT
BRANCH   4  11
ATOM     11  C   UNL     1       4.771   2.124   5.718  0.00  0.00    +0.019 A 
ATOM     12  C   UNL     1       3.679   2.216   4.877  0.00  0.00    +0.009 A 
ATOM     13  C   UNL     1       3.322   3.438   4.336  0.00  0.00    +0.001 A 
ATOM     14  C   UNL     1       4.064   4.568   4.626  0.00  0.00    +0.004 A 
ATOM     15  C   UNL     1       5.160   4.481   5.462  0.00  0.00    +0.046 A 
ATOM     16  C   UNL     1       5.517   3.257   6.010  0.00  0.00    +0.126 A 
BRANCH  16  17
ATOM     17  O   UNL     1       6.595   3.168   6.833  0.00  0.00    -0.489 OA
BRANCH  17  18
ATOM     18  C   UNL     1       7.244   4.392   7.186  0.00  0.00    +0.167 C 
ATOM     19  C   UNL     1       7.971   4.216   8.521  0.00  0.00    +0.051 C 
ATOM     20  C   UNL     1       8.254   4.765   6.100  0.00  0.00    +0.051 C 
ENDBRANCH  17  18
ENDBRANCH  16  17
ENDBRANCH   4  11
BRANCH   3  21
ATOM     21  C   UNL     1       6.379   0.102   4.181  0.00  0.00    +0.339 C 
ATOM     22  O   UNL     1       7.410  -0.178   3.599  0.00  0.00    -0.245 OA
BRANCH  21  23
ATOM     23  O   UNL     1       5.227   0.227   3.490  0.00  0.00    -0.457 OA
BRANCH  23  24
ATOM     24  C   UNL     1       5.268  -0.092   2.097  0.00  0.00    +0.268 C 
BRANCH  24  25
ATOM     25  C   UNL     1       3.933   0.219   1.471  0.00  0.00    -0.007 A 
ATOM     26  C   UNL     1       2.985  -0.777   1.336  0.00  0.00    +0.011 A 
ATOM     27  C   UNL     1       1.759  -0.497   0.762  0.00  0.00    +0.050 A 
ATOM     28  C   UNL     1       1.479   0.786   0.319  0.00  0.00    +0.166 A 
ATOM     29  C   UNL     1       2.434   1.790   0.454  0.00  0.00    +0.167 A 
ATOM     30  C   UNL     1       3.660   1.501   1.031  0.00  0.00    +0.056 A 
ATOM     31  O   UNL     1       1.923   2.950  -0.053  0.00  0.00    -0.453 OA
ATOM     32  C   UNL     1       0.500   2.743  -0.126  0.00  0.00    +0.466 C 
ATOM     33  O   UNL     1       0.369   1.317  -0.273  0.00  0.00    -0.453 OA
ENDBRANCH  24  25
ENDBRANCH  23  24
ENDBRANCH  21  23
ENDBRANCH   3  21
TORSDOF 7
