REMARK  Name = ZINC26952630
REMARK  8 active torsions:
REMARK  status: ('A' for Active; 'I' for Inactive)
REMARK    1  A    between atoms: C_1  and  C_2
REMARK    2  A    between atoms: C_4  and  C_28
REMARK    3  A    between atoms: C_9  and  C_10
REMARK    4  A    between atoms: C_10  and  N_11
REMARK    5  A    between atoms: C_12  and  C_14
REMARK    6  A    between atoms: C_15  and  C_27
REMARK    7  A    between atoms: C_17  and  N_19
REMARK    8  A    between atoms: C_20  and  C_22
REMARK                            x       y       z     vdW  Elec       q    Type
REMARK                         _______ _______ _______ _____ _____    ______ ____
ROOT
ATOM      1  N   UNL     1      -1.348   0.142   2.992  0.00  0.00    -0.307 N 
ATOM      2  C   UNL     1      -1.592   0.762   4.163  0.00  0.00    +0.251 C 
ATOM      3  O   UNL     1      -0.670   1.229   4.808  0.00  0.00    -0.270 OA
ATOM      4  H   UNL     1      -2.083  -0.230   2.478  0.00  0.00    +0.149 HD
ENDROOT
BRANCH   2   5
ATOM      5  C   UNL     1      -2.961   0.874   4.660  0.00  0.00    +0.078 A 
ATOM      6  C   UNL     1      -3.420   1.471   5.827  0.00  0.00    -0.029 A 
ATOM      7  C   UNL     1      -4.774   1.422   6.033  0.00  0.00    +0.035 A 
ATOM      8  C   UNL     1      -5.562   0.799   5.092  0.00  0.00    +0.073 A 
ATOM      9  S   UNL     1      -4.473   0.285   3.921  0.00  0.00    -0.069 S 
ATOM     10  C   UNL     1      -2.486   2.133   6.807  0.00  0.00    +0.045 C 
BRANCH   8  11
ATOM     11  N   UNL     1      -6.941   0.638   5.105  0.00  0.00    -0.273 N 
ATOM     12  C   UNL     1      -7.554  -0.004   4.091  0.00  0.00    +0.284 C 
ATOM     13  O   UNL     1      -6.898  -0.443   3.164  0.00  0.00    -0.266 OA
ATOM     14  H   UNL     1      -7.463   0.988   5.844  0.00  0.00    +0.156 HD
BRANCH  12  15
ATOM     15  C   UNL     1      -9.010  -0.175   4.104  0.00  0.00    +0.189 A 
ATOM     16  C   UNL     1      -9.753  -0.807   3.148  0.00  0.00    +0.054 A 
ATOM     17  C   UNL     1     -11.091  -0.734   3.564  0.00  0.00    +0.042 A 
ATOM     18  C   UNL     1     -11.107  -0.070   4.741  0.00  0.00    +0.196 A 
ATOM     19  O   UNL     1      -9.850   0.261   5.066  0.00  0.00    -0.458 OA
ENDBRANCH  12  15
ENDBRANCH   8  11
ENDBRANCH   2   5
BRANCH   1  20
ATOM     20  C   UNL     1       0.025   0.030   2.493  0.00  0.00    +0.145 C 
BRANCH  20  29
ATOM     21  C   UNL     1      -0.018   1.503   0.010  0.00  0.00    +0.044 C 
ATOM     22  C   UNL     1       0.002  -0.004   0.002  0.00  0.00    -0.039 A 
ATOM     23  C   UNL     1       0.006  -0.706  -1.212  0.00  0.00    +0.024 A 
ATOM     24  C   UNL     1       0.025  -2.059  -1.209  0.00  0.00    +0.016 A 
ATOM     25  N   UNL     1       0.040  -2.750  -0.040  0.00  0.00    -0.326 N 
ATOM     26  H   UNL     1       0.054  -3.720  -0.057  0.00  0.00    +0.169 HD
ATOM     27  C   UNL     1       0.037  -2.105   1.141  0.00  0.00    +0.254 A 
ATOM     28  O   UNL     1       0.051  -2.740   2.183  0.00  0.00    -0.268 OA
ATOM     29  C   UNL     1       0.023  -0.700   1.175  0.00  0.00    +0.037 A 
ATOM     30  C   UNL     1       0.029  -2.807  -2.517  0.00  0.00    +0.063 C 
ENDBRANCH  20  29
ENDBRANCH   1  20
TORSDOF 5
