REMARK  Name = ZINC13802186
REMARK  6 active torsions:
REMARK  status: ('A' for Active; 'I' for Inactive)
REMARK    1  A    between atoms: C_6  and  C_7
REMARK    2  A    between atoms: N_12  and  C_14
REMARK    3  A    between atoms: C_14  and  C_15
REMARK    4  A    between atoms: C_15  and  C_16
REMARK    5  A    between atoms: C_16  and  N_17
REMARK    6  A    between atoms: N_20  and  C_21
REMARK                            x       y       z     vdW  Elec       q    Type
REMARK                         _______ _______ _______ _____ _____    ______ ____
ROOT
ATOM      1  C   UNL     1       8.387  -2.882   4.759  0.00  0.00    +0.042 C 
ENDROOT
BRANCH   1   2
ATOM      2  C   UNL     1       8.819  -4.170   5.465  0.00  0.00    +0.149 C 
BRANCH   2   8
ATOM      3  C   UNL     1      12.404  -4.121   5.818  0.00  0.00    +0.092 A 
ATOM      4  C   UNL     1      12.614  -3.640   7.132  0.00  0.00    +0.035 A 
ATOM      5  C   UNL     1      11.522  -3.335   7.889  0.00  0.00    +0.074 A 
ATOM      6  C   UNL     1      10.245  -3.514   7.311  0.00  0.00    +0.267 A 
ATOM      7  O   UNL     1       9.239  -3.250   7.950  0.00  0.00    -0.266 OA
ATOM      8  N   UNL     1      10.147  -3.983   6.053  0.00  0.00    -0.229 N 
ATOM      9  N   UNL     1      11.185  -4.265   5.354  0.00  0.00    -0.168 NA
BRANCH   3  15
ATOM     10  C   UNL     1      14.863  -4.308   5.449  0.00  0.00    +0.013 A 
ATOM     11  C   UNL     1      15.941  -4.632   4.652  0.00  0.00    +0.039 A 
ATOM     12  C   UNL     1      15.736  -5.104   3.365  0.00  0.00    +0.123 A 
ATOM     13  C   UNL     1      14.449  -5.256   2.875  0.00  0.00    +0.039 A 
ATOM     14  C   UNL     1      13.365  -4.939   3.668  0.00  0.00    +0.013 A 
ATOM     15  C   UNL     1      13.566  -4.464   4.963  0.00  0.00    +0.002 A 
ATOM     16  F   UNL     1      16.795  -5.415   2.586  0.00  0.00    -0.205 F 
ENDBRANCH   3  15
ENDBRANCH   2   8
ENDBRANCH   1   2
BRANCH   1  17
ATOM     17  C   UNL     1       7.000  -3.078   4.145  0.00  0.00    +0.107 C 
BRANCH  17  18
ATOM     18  N   UNL     1       6.587  -1.845   3.469  0.00  0.00    -0.299 N 
ATOM     19  C   UNL     1       5.391  -1.783   2.852  0.00  0.00    +0.304 C 
ATOM     20  O   UNL     1       4.654  -2.751   2.854  0.00  0.00    -0.253 OA
ATOM     21  N   UNL     1       5.011  -0.649   2.230  0.00  0.00    -0.269 N 
ATOM     22  H   UNL     1       7.174  -1.073   3.467  0.00  0.00    +0.150 HD
ATOM     23  H   UNL     1       5.628   0.096   2.161  0.00  0.00    +0.156 HD
BRANCH  21  24
ATOM     24  C   UNL     1       3.724  -0.546   1.685  0.00  0.00    +0.038 A 
ATOM     25  C   UNL     1       2.657  -1.190   2.296  0.00  0.00    +0.027 A 
ATOM     26  C   UNL     1       1.388  -1.089   1.760  0.00  0.00    +0.051 A 
ATOM     27  C   UNL     1       1.176  -0.346   0.610  0.00  0.00    +0.166 A 
ATOM     28  C   UNL     1       2.245   0.302  -0.006  0.00  0.00    +0.168 A 
ATOM     29  C   UNL     1       3.517   0.200   0.533  0.00  0.00    +0.073 A 
ATOM     30  O   UNL     1       1.780   0.960  -1.108  0.00  0.00    -0.453 OA
ATOM     31  C   UNL     1       0.353   1.046  -0.931  0.00  0.00    +0.466 C 
ATOM     32  O   UNL     1       0.041  -0.093  -0.107  0.00  0.00    -0.453 OA
ENDBRANCH  21  24
ENDBRANCH  17  18
ENDBRANCH   1  17
TORSDOF 6
