REMARK  Name = ZINC28052009
REMARK  7 active torsions:
REMARK  status: ('A' for Active; 'I' for Inactive)
REMARK    1  A    between atoms: C_1  and  C_2
REMARK    2  A    between atoms: C_5  and  C_8
REMARK    3  A    between atoms: C_13  and  C_22
REMARK    4  A    between atoms: C_16  and  C_21
REMARK    5  A    between atoms: C_25  and  C_28
REMARK    6  A    between atoms: C_28  and  O_30
REMARK    7  A    between atoms: O_30  and  C_31
REMARK                            x       y       z     vdW  Elec       q    Type
REMARK                         _______ _______ _______ _____ _____    ______ ____
ROOT
ATOM      1  C   UNL     1      -1.332   2.114   0.020  0.00  0.00    +0.032 C 
ATOM      2  C   UNL     1      -1.430   3.011  -1.215  0.00  0.00    +0.059 C 
ATOM      3  C   UNL     1      -2.736   3.773  -1.186  0.00  0.00    +0.019 C 
ATOM      4  C   UNL     1      -3.296   4.135  -0.013  0.00  0.00    +0.024 C 
ATOM      5  C   UNL     1      -4.594   4.913   0.059  0.00  0.00    +0.091 C 
ATOM      6  C   UNL     1      -5.257   4.898  -1.280  0.00  0.00    +0.049 A 
ATOM      7  C   UNL     1      -6.540   5.243  -1.698  0.00  0.00    +0.087 A 
ATOM      8  N   UNL     1      -6.571   5.032  -2.990  0.00  0.00    -0.081 NA
ATOM      9  O   UNL     1      -5.508   4.615  -3.408  0.00  0.00    -0.339 OA
ATOM     10  C   UNL     1      -4.621   4.493  -2.426  0.00  0.00    +0.226 A 
ATOM     11  N   UNL     1      -3.309   4.066  -2.401  0.00  0.00    -0.286 N 
ATOM     12  C   UNL     1      -7.665   5.755  -0.836  0.00  0.00    +0.069 C 
ATOM     13  C   UNL     1      -2.692   3.796   1.212  0.00  0.00    +0.162 C 
ATOM     14  O   UNL     1      -3.213   4.155   2.250  0.00  0.00    -0.292 OA
ATOM     15  C   UNL     1      -1.419   2.999   1.268  0.00  0.00    +0.088 C 
ATOM     16  H   UNL     1      -2.724   3.957  -3.326  0.00  0.00    +0.155 HD
ENDROOT
BRANCH   1  21
ATOM     17  C   UNL     1       3.711  -0.707  -0.039  0.00  0.00    +0.044 C 
ATOM     18  C   UNL     1       2.396   0.029  -0.022  0.00  0.00    -0.050 A 
ATOM     19  C   UNL     1       1.208  -0.679  -0.014  0.00  0.00    +0.003 A 
ATOM     20  C   UNL     1       0.002  -0.004   0.002  0.00  0.00    +0.004 A 
ATOM     21  C   UNL     1      -0.017   1.378   0.010  0.00  0.00    -0.043 A 
ATOM     22  C   UNL     1       1.171   2.086   0.002  0.00  0.00    +0.004 A 
ATOM     23  C   UNL     1       2.377   1.411  -0.014  0.00  0.00    +0.003 A 
ENDBRANCH   1  21
BRANCH   5  24
ATOM     24  C   UNL     1      -4.306   6.337   0.461  0.00  0.00    -0.035 A 
ATOM     25  C   UNL     1      -3.482   7.121  -0.327  0.00  0.00    +0.005 A 
ATOM     26  C   UNL     1      -3.218   8.427   0.032  0.00  0.00    +0.015 A 
ATOM     27  C   UNL     1      -3.775   8.953   1.199  0.00  0.00    +0.059 A 
ATOM     28  C   UNL     1      -4.601   8.154   1.993  0.00  0.00    +0.015 A 
ATOM     29  C   UNL     1      -4.861   6.852   1.619  0.00  0.00    +0.005 A 
BRANCH  27  30
ATOM     30  C   UNL     1      -3.491  10.348   1.593  0.00  0.00    +0.339 C 
ATOM     31  O   UNL     1      -3.977  10.802   2.610  0.00  0.00    -0.245 OA
BRANCH  30  32
ATOM     32  O   UNL     1      -2.694  11.116   0.826  0.00  0.00    -0.464 OA
ATOM     33  C   UNL     1      -2.459  12.476   1.274  0.00  0.00    +0.280 C 
ENDBRANCH  30  32
ENDBRANCH  27  30
ENDBRANCH   5  24
TORSDOF 4
