REMARK  Name = ZINC39440383
REMARK  5 active torsions:
REMARK  status: ('A' for Active; 'I' for Inactive)
REMARK    1  A    between atoms: C_3  and  C_6
REMARK    2  A    between atoms: C_10  and  C_21
REMARK    3  A    between atoms: C_15  and  C_17
REMARK    4  A    between atoms: N_23  and  C_24
REMARK    5  A    between atoms: C_24  and  C_25
REMARK                            x       y       z     vdW  Elec       q    Type
REMARK                         _______ _______ _______ _____ _____    ______ ____
ROOT
ATOM      1  C   UNL     1       3.569   0.619  -0.029  0.00  0.00    +0.105 C 
ATOM      2  N   UNL     1       4.234   1.752  -0.024  0.00  0.00    -0.251 NA
ATOM      3  C   UNL     1       5.699   1.742  -0.042  0.00  0.00    +0.246 C 
ATOM      4  C   UNL     1       6.239   2.833  -0.938  0.00  0.00    +0.073 C 
ATOM      5  H   UNL     1       7.669   0.272  -2.129  0.00  0.00    +0.170 HD
ATOM      6  C   UNL     1       7.033   2.232  -1.849  0.00  0.00    +0.100 C 
ATOM      7  N   UNL     1       7.068   0.879  -1.669  0.00  0.00    -0.269 N 
ATOM      8  N   UNL     1       6.117   0.490  -0.710  0.00  0.00    -0.220 N 
ATOM      9  C   UNL     1       5.557  -0.728  -0.415  0.00  0.00    +0.132 C 
ATOM     10  C   UNL     1       4.250  -0.681  -0.042  0.00  0.00    +0.060 C 
ENDROOT
BRANCH   1  13
ATOM     11  C   UNL     1      -0.016   1.345   0.009  0.00  0.00    +0.042 A 
ATOM     12  C   UNL     1       1.322   1.776  -0.001  0.00  0.00    +0.051 A 
ATOM     13  C   UNL     1       2.095   0.655  -0.014  0.00  0.00    +0.153 A 
ATOM     14  O   UNL     1       1.278  -0.417  -0.012  0.00  0.00    -0.461 OA
ATOM     15  C   UNL     1       0.002  -0.004   0.002  0.00  0.00    +0.196 A 
ENDBRANCH   1  13
BRANCH   9  16
ATOM     16  C   UNL     1       6.332  -2.018  -0.493  0.00  0.00    +0.432 C 
ATOM     17  F   UNL     1       5.500  -3.085  -0.138  0.00  0.00    -0.165 F 
ATOM     18  F   UNL     1       6.797  -2.205  -1.800  0.00  0.00    -0.165 F 
ATOM     19  F   UNL     1       7.420  -1.963   0.385  0.00  0.00    -0.165 F 
ENDBRANCH   9  16
BRANCH   4  20
ATOM     20  C   UNL     1       5.965   4.217  -0.841  0.00  0.00    +0.245 C 
ATOM     21  O   UNL     1       6.468   4.994  -1.631  0.00  0.00    -0.270 OA
ATOM     22  N   UNL     1       5.146   4.675   0.127  0.00  0.00    -0.306 N 
ATOM     23  H   UNL     1       4.745   4.056   0.756  0.00  0.00    +0.149 HD
BRANCH  22  24
ATOM     24  C   UNL     1       4.862   6.109   0.227  0.00  0.00    +0.157 C 
BRANCH  24  25
ATOM     25  C   UNL     1       3.927   6.356   1.383  0.00  0.00    +0.034 A 
ATOM     26  H   UNL     1       2.054   6.039   0.529  0.00  0.00    +0.166 HD
ATOM     27  C   UNL     1       4.309   6.699   2.623  0.00  0.00    +0.032 A 
ATOM     28  C   UNL     1       3.090   6.838   3.424  0.00  0.00    +0.001 A 
ATOM     29  C   UNL     1       2.838   7.170   4.757  0.00  0.00    +0.030 A 
ATOM     30  C   UNL     1       1.539   7.214   5.213  0.00  0.00    +0.042 A 
ATOM     31  C   UNL     1       0.483   6.932   4.356  0.00  0.00    +0.022 A 
ATOM     32  C   UNL     1       0.717   6.603   3.039  0.00  0.00    +0.027 A 
ATOM     33  C   UNL     1       2.020   6.552   2.557  0.00  0.00    +0.047 A 
ATOM     34  N   UNL     1       2.563   6.269   1.322  0.00  0.00    -0.357 N 
ATOM     35 CL   UNL     1       1.220   7.625   6.869  0.00  0.00    -0.084 Cl
ENDBRANCH  24  25
ENDBRANCH  22  24
ENDBRANCH   4  20
TORSDOF 5
