REMARK  Name = ZINC14647646
REMARK  13 active torsions:
REMARK  status: ('A' for Active; 'I' for Inactive)
REMARK    1  A    between atoms: C_1  and  C_2
REMARK    2  A    between atoms: C_2  and  C_3
REMARK    3  A    between atoms: C_3  and  O_4
REMARK    4  A    between atoms: O_4  and  C_5
REMARK    5  A    between atoms: C_8  and  C_12
REMARK    6  A    between atoms: N_14  and  C_15
REMARK    7  A    between atoms: C_15  and  N_17
REMARK    8  A    between atoms: C_23  and  C_25
REMARK    9  A    between atoms: C_25  and  C_26
REMARK   10  A    between atoms: C_26  and  O_28
REMARK   11  A    between atoms: O_28  and  C_29
REMARK   12  A    between atoms: C_29  and  C_30
REMARK   13  A    between atoms: C_29  and  C_31
REMARK                            x       y       z     vdW  Elec       q    Type
REMARK                         _______ _______ _______ _____ _____    ______ ____
ROOT
ATOM      1  C   UNL     1      -2.131  -1.104   1.221  0.00  0.00    +0.140 C 
ATOM      2  S   UNL     1      -2.401  -2.021   2.642  0.00  0.00    -0.018 S 
ENDROOT
BRANCH   1   3
ATOM      3  N   UNL     1      -2.587   0.162   1.139  0.00  0.00    -0.299 N 
ATOM      4  C   UNL     1      -3.280   0.801   2.270  0.00  0.00    +0.126 C 
ATOM      5  C   UNL     1      -4.700   1.155   1.822  0.00  0.00    +0.123 C 
ATOM      6  N   UNL     1      -4.682   1.807   0.519  0.00  0.00    -0.312 N 
ATOM      7  C   UNL     1      -3.691   1.702  -0.367  0.00  0.00    +0.234 C 
ATOM      8  O   UNL     1      -3.826   2.228  -1.451  0.00  0.00    -0.274 OA
ATOM      9  C   UNL     1      -2.413   0.960  -0.083  0.00  0.00    +0.171 C 
ATOM     10  H   UNL     1      -5.445   2.356   0.280  0.00  0.00    +0.149 HD
BRANCH   9  11
ATOM     11  C   UNL     1      -1.273   1.961   0.116  0.00  0.00    +0.152 C 
BRANCH  11  12
ATOM     12  C   UNL     1       0.032   1.218   0.239  0.00  0.00    +0.310 C 
ATOM     13  O   UNL     1       0.040   0.011   0.266  0.00  0.00    -0.251 OA
BRANCH  12  14
ATOM     14  O   UNL     1       1.187   1.899   0.315  0.00  0.00    -0.462 OA
BRANCH  14  15
ATOM     15  C   UNL     1       2.406   1.118   0.425  0.00  0.00    +0.170 C 
ATOM     16  C   UNL     1       3.561   1.881  -0.225  0.00  0.00    +0.052 C 
ATOM     17  C   UNL     1       2.723   0.874   1.902  0.00  0.00    +0.052 C 
ENDBRANCH  14  15
ENDBRANCH  12  14
ENDBRANCH  11  12
ENDBRANCH   9  11
ENDBRANCH   1   3
BRANCH   1  20
ATOM     18  C   UNL     1      -0.914  -2.873   0.305  0.00  0.00    +0.250 C 
ATOM     19  O   UNL     1      -1.024  -3.488   1.348  0.00  0.00    -0.270 OA
ATOM     20  N   UNL     1      -1.462  -1.647   0.185  0.00  0.00    -0.264 N 
ATOM     21  H   UNL     1      -1.375  -1.157  -0.647  0.00  0.00    +0.157 HD
BRANCH  18  25
ATOM     22  C   UNL     1       1.194  -4.585  -2.959  0.00  0.00    +0.134 A 
ATOM     23  C   UNL     1       0.629  -3.321  -3.085  0.00  0.00    +0.047 A 
ATOM     24  C   UNL     1      -0.060  -2.765  -2.030  0.00  0.00    +0.017 A 
ATOM     25  C   UNL     1      -0.182  -3.468  -0.829  0.00  0.00    +0.038 A 
ATOM     26  C   UNL     1       0.386  -4.739  -0.706  0.00  0.00    +0.032 A 
ATOM     27  C   UNL     1       1.069  -5.291  -1.768  0.00  0.00    +0.060 A 
ATOM     28 BR   UNL     1       1.839  -7.010  -1.604  0.00  0.00    -0.046 Br
BRANCH  22  29
ATOM     29  O   UNL     1       1.867  -5.132  -4.003  0.00  0.00    -0.491 OA
BRANCH  29  30
ATOM     30  C   UNL     1       1.957  -4.352  -5.197  0.00  0.00    +0.229 C 
BRANCH  30  32
ATOM     31  C   UNL     1       2.843  -4.292  -7.533  0.00  0.00    +0.007 C 
ATOM     32  C   UNL     1       2.747  -5.127  -6.254  0.00  0.00    +0.038 C 
ENDBRANCH  30  32
ENDBRANCH  29  30
ENDBRANCH  22  29
ENDBRANCH  18  25
ENDBRANCH   1  20
TORSDOF 10
