REMARK  Name = ZINC37773590
REMARK  5 active torsions:
REMARK  status: ('A' for Active; 'I' for Inactive)
REMARK    1  A    between atoms: C_1  and  C_2
REMARK    2  A    between atoms: C_2  and  C_4
REMARK    3  A    between atoms: C_2  and  N_10
REMARK    4  A    between atoms: N_10  and  C_11
REMARK    5  A    between atoms: C_13  and  N_18
REMARK                            x       y       z     vdW  Elec       q    Type
REMARK                         _______ _______ _______ _____ _____    ______ ____
ROOT
ATOM      1  C   UNL     1       0.026  -0.639   2.399  0.00  0.00    +0.065 A 
ATOM      2  C   UNL     1      -1.325  -0.333   2.476  0.00  0.00    +0.053 A 
ATOM      3  C   UNL     1      -2.000  -0.483   3.678  0.00  0.00    +0.071 A 
ATOM      4  C   UNL     1      -1.324  -0.939   4.802  0.00  0.00    +0.031 A 
ATOM      5  C   UNL     1       0.022  -1.243   4.725  0.00  0.00    +0.042 A 
ATOM      6  C   UNL     1       0.698  -1.100   3.527  0.00  0.00    +0.144 A 
ATOM      7  F   UNL     1       2.013  -1.403   3.453  0.00  0.00    -0.204 F 
ENDROOT
BRANCH   3   8
ATOM      8  N   UNL     1      -3.367  -0.175   3.759  0.00  0.00    -0.200 N 
ATOM      9  C   UNL     1      -4.164  -0.260   4.845  0.00  0.00    +0.250 A 
ATOM     10  N   UNL     1      -5.360   0.122   4.480  0.00  0.00    -0.116 NA
ATOM     11  N   UNL     1      -5.373   0.442   3.236  0.00  0.00    -0.023 NA
ATOM     12  N   UNL     1      -4.198   0.295   2.726  0.00  0.00    -0.039 NA
ENDBRANCH   3   8
BRANCH   1  13
ATOM     13  N   UNL     1       0.711  -0.489   1.189  0.00  0.00    -0.339 N 
ATOM     14  H   UNL     1       1.654  -0.707   1.135  0.00  0.00    +0.146 HD
BRANCH  13  16
ATOM     15  C   UNL     1      -0.019   1.526   0.010  0.00  0.00    +0.028 C 
ATOM     16  C   UNL     1       0.002  -0.004   0.002  0.00  0.00    +0.070 C 
BRANCH  16  17
ATOM     17  C   UNL     1       0.718  -0.497  -1.257  0.00  0.00    +0.009 C 
ATOM     18  C   UNL     1       0.739  -2.027  -1.265  0.00  0.00    +0.005 C 
ATOM     19  C   UNL     1       1.455  -2.521  -2.524  0.00  0.00    +0.000 C 
ATOM     20  C   UNL     1       0.715  -2.014  -3.764  0.00  0.00    +0.000 C 
ATOM     21  C   UNL     1       0.694  -0.484  -3.755  0.00  0.00    +0.000 C 
ATOM     22  C   UNL     1      -0.022   0.009  -2.496  0.00  0.00    +0.005 C 
ENDBRANCH  16  17
ENDBRANCH  13  16
ENDBRANCH   1  13
TORSDOF 4
