REMARK  Name = ZINC06747159
REMARK  4 active torsions:
REMARK  status: ('A' for Active; 'I' for Inactive)
REMARK    1  A    between atoms: C_4  and  C_7
REMARK    2  A    between atoms: C_9  and  N_20
REMARK    3  A    between atoms: N_20  and  C_21
REMARK    4  A    between atoms: C_21  and  C_22
REMARK                            x       y       z     vdW  Elec       q    Type
REMARK                         _______ _______ _______ _____ _____    ______ ____
ROOT
ATOM      1  C   UNL     1       1.107   2.038   0.002  0.00  0.00    +0.078 A 
ATOM      2  C   UNL     1       2.349   1.385  -0.013  0.00  0.00    +0.070 A 
ATOM      3  C   UNL     1       2.381   0.017  -0.021  0.00  0.00    +0.108 A 
ATOM      4  N   UNL     1       1.200  -0.677  -0.013  0.00  0.00    -0.264 N 
ATOM      5  C   UNL     1       0.915  -2.031  -0.018  0.00  0.00    +0.077 A 
ATOM      6  C   UNL     1       1.696  -3.178  -0.032  0.00  0.00    +0.028 A 
ATOM      7  C   UNL     1       1.092  -4.418  -0.033  0.00  0.00    +0.002 A 
ATOM      8  C   UNL     1      -0.291  -4.526  -0.020  0.00  0.00    +0.002 A 
ATOM      9  C   UNL     1      -1.077  -3.409  -0.005  0.00  0.00    +0.030 A 
ATOM     10  C   UNL     1      -0.487  -2.140  -0.005  0.00  0.00    +0.092 A 
ATOM     11  N   UNL     1      -0.990  -0.883   0.007  0.00  0.00    -0.210 NA
ATOM     12  C   UNL     1       0.002  -0.004   0.002  0.00  0.00    +0.238 A 
ATOM     13  N   UNL     1      -0.016   1.336   0.009  0.00  0.00    -0.212 NA
ENDROOT
BRANCH   1  17
ATOM     14  C   UNL     1       0.949   6.285   0.028  0.00  0.00    +0.000 A 
ATOM     15  C   UNL     1      -0.224   5.552   0.035  0.00  0.00    +0.001 A 
ATOM     16  C   UNL     1      -0.179   4.173   0.026  0.00  0.00    +0.010 A 
ATOM     17  C   UNL     1       1.052   3.519   0.011  0.00  0.00    +0.001 A 
ATOM     18  C   UNL     1       2.231   4.263   0.009  0.00  0.00    +0.010 A 
ATOM     19  C   UNL     1       2.174   5.642   0.013  0.00  0.00    +0.001 A 
ENDBRANCH   1  17
BRANCH   3  20
ATOM     20  N   UNL     1       3.583  -0.652  -0.035  0.00  0.00    -0.323 N 
ATOM     21  H   UNL     1       3.598  -1.622  -0.040  0.00  0.00    +0.148 HD
BRANCH  20  22
ATOM     22  C   UNL     1       4.840   0.100  -0.043  0.00  0.00    +0.177 C 
BRANCH  22  23
ATOM     23  C   UNL     1       6.001  -0.861  -0.059  0.00  0.00    +0.122 A 
ATOM     24  C   UNL     1       6.596  -1.357  -1.158  0.00  0.00    +0.046 A 
ATOM     25  C   UNL     1       7.630  -2.212  -0.713  0.00  0.00    +0.041 A 
ATOM     26  C   UNL     1       7.605  -2.188   0.632  0.00  0.00    +0.195 A 
ATOM     27  O   UNL     1       6.619  -1.363   1.022  0.00  0.00    -0.466 OA
ENDBRANCH  22  23
ENDBRANCH  20  22
ENDBRANCH   3  20
TORSDOF 4
