REMARK  Name = ZINC17320526
REMARK  6 active torsions:
REMARK  status: ('A' for Active; 'I' for Inactive)
REMARK    1  A    between atoms: C_6  and  S_7
REMARK    2  A    between atoms: S_7  and  C_8
REMARK    3  A    between atoms: C_11  and  N_27
REMARK    4  A    between atoms: C_13  and  C_14
REMARK    5  A    between atoms: N_16  and  C_17
REMARK    6  A    between atoms: C_17  and  C_18
REMARK                            x       y       z     vdW  Elec       q    Type
REMARK                         _______ _______ _______ _____ _____    ______ ____
ROOT
ATOM      1  C   UNL     1       9.368  -1.801   0.922  0.00  0.00    +0.025 A 
ATOM      2  C   UNL     1      10.043  -2.234  -0.214  0.00  0.00    +0.018 A 
ATOM      3  C   UNL     1       9.354  -2.441  -1.390  0.00  0.00    +0.034 A 
ATOM      4  C   UNL     1       7.985  -2.227  -1.449  0.00  0.00    +0.127 A 
ATOM      5  C   UNL     1       7.298  -1.804  -0.333  0.00  0.00    +0.047 A 
ATOM      6  C   UNL     1       7.981  -1.589   0.867  0.00  0.00    +0.053 A 
ENDROOT
BRANCH   6   7
ATOM      7  C   UNL     1       7.251  -1.135   2.064  0.00  0.00    +0.245 C 
ATOM      8  O   UNL     1       7.850  -0.949   3.107  0.00  0.00    -0.270 OA
ATOM      9  N   UNL     1       5.921  -0.927   2.005  0.00  0.00    -0.307 N 
ATOM     10  H   UNL     1       5.444  -1.076   1.173  0.00  0.00    +0.149 HD
BRANCH   9  11
ATOM     11  C   UNL     1       5.196  -0.477   3.196  0.00  0.00    +0.140 C 
BRANCH  11  12
ATOM     12  C   UNL     1       3.734  -0.322   2.865  0.00  0.00    -0.027 A 
ATOM     13  C   UNL     1       2.873  -1.391   3.027  0.00  0.00    +0.009 A 
ATOM     14  C   UNL     1       1.531  -1.253   2.724  0.00  0.00    +0.050 A 
ATOM     15  C   UNL     1       1.046  -0.042   2.257  0.00  0.00    +0.166 A 
ATOM     16  C   UNL     1       1.914   1.035   2.094  0.00  0.00    +0.167 A 
ATOM     17  C   UNL     1       3.257   0.890   2.399  0.00  0.00    +0.054 A 
ATOM     18  O   UNL     1       1.202   2.102   1.627  0.00  0.00    -0.453 OA
ATOM     19  C   UNL     1      -0.178   1.790   1.894  0.00  0.00    +0.466 C 
ATOM     20  O   UNL     1      -0.210   0.350   1.893  0.00  0.00    -0.453 OA
ENDBRANCH  11  12
ENDBRANCH   9  11
ENDBRANCH   6   7
BRANCH   4  21
ATOM     21  N   UNL     1       7.259  -2.454  -2.719  0.00  0.00    +0.056 N 
ATOM     22  O   UNL     1       6.057  -2.267  -2.775  0.00  0.00    -0.126 OA
ATOM     23  O   UNL     1       7.864  -2.829  -3.708  0.00  0.00    -0.126 OA
ENDBRANCH   4  21
BRANCH   1  24
ATOM     24  S   UNL     1      10.246  -1.527   2.425  0.00  0.00    -0.089 S 
BRANCH  24  30
ATOM     25  C   UNL     1       9.989   1.016   1.449  0.00  0.00    +0.016 A 
ATOM     26  C   UNL     1      10.107   2.390   1.524  0.00  0.00    +0.021 A 
ATOM     27  C   UNL     1      10.646   2.979   2.655  0.00  0.00    +0.041 A 
ATOM     28  C   UNL     1      11.064   2.193   3.715  0.00  0.00    +0.021 A 
ATOM     29  C   UNL     1      10.943   0.819   3.648  0.00  0.00    +0.016 A 
ATOM     30  C   UNL     1      10.402   0.226   2.514  0.00  0.00    +0.013 A 
ATOM     31 CL   UNL     1      10.798   4.706   2.744  0.00  0.00    -0.084 Cl
ENDBRANCH  24  30
ENDBRANCH   1  24
TORSDOF 6
