REMARK  Name = ZINC07298527
REMARK  9 active torsions:
REMARK  status: ('A' for Active; 'I' for Inactive)
REMARK    1  A    between atoms: C_1  and  C_2
REMARK    2  A    between atoms: C_5  and  C_8
REMARK    3  A    between atoms: C_11  and  S_14
REMARK    4  A    between atoms: N_12  and  N_13
REMARK    5  A    between atoms: S_14  and  C_15
REMARK    6  A    between atoms: C_15  and  C_17
REMARK    7  A    between atoms: C_15  and  C_18
REMARK    8  A    between atoms: N_20  and  C_21
REMARK    9  A    between atoms: C_24  and  C_28
REMARK                            x       y       z     vdW  Elec       q    Type
REMARK                         _______ _______ _______ _____ _____    ______ ____
ROOT
ATOM      1  C   UNL     1       0.040  -4.250  -0.004  0.00  0.00    +0.182 A 
ATOM      2  N   UNL     1      -0.228  -5.025  -1.029  0.00  0.00    -0.127 NA
ATOM      3  N   UNL     1      -0.112  -6.259  -0.687  0.00  0.00    -0.121 NA
ATOM      4  C   UNL     1       0.237  -6.346   0.577  0.00  0.00    +0.209 A 
ATOM      5  N   UNL     1       0.351  -5.071   1.054  0.00  0.00    -0.224 N 
ENDROOT
BRANCH   1  10
ATOM      6  C   UNL     1      -0.048   1.504   0.043  0.00  0.00    +0.044 C 
ATOM      7  C   UNL     1      -0.025  -0.003   0.030  0.00  0.00    -0.050 A 
ATOM      8  C   UNL     1      -0.028  -0.681  -1.175  0.00  0.00    +0.004 A 
ATOM      9  C   UNL     1      -0.007  -2.061  -1.194  0.00  0.00    +0.012 A 
ATOM     10  C   UNL     1       0.018  -2.771   0.008  0.00  0.00    +0.021 A 
ATOM     11  C   UNL     1       0.021  -2.080   1.220  0.00  0.00    +0.012 A 
ATOM     12  C   UNL     1       0.005  -0.701   1.224  0.00  0.00    +0.004 A 
ENDBRANCH   1  10
BRANCH   5  13
ATOM     13  N   UNL     1       0.700  -4.692   2.319  0.00  0.00    -0.295 N 
ATOM     14  H   UNL     1      -0.115  -4.607   2.909  0.00  0.00    +0.163 HD
ATOM     15  H   UNL     1       1.369  -5.333   2.718  0.00  0.00    +0.163 HD
ENDBRANCH   5  13
BRANCH   4  16
ATOM     16  S   UNL     1       0.513  -7.830   1.485  0.00  0.00    -0.072 S 
BRANCH  16  17
ATOM     17  C   UNL     1       0.204  -9.148   0.277  0.00  0.00    +0.137 C 
ATOM     18  C   UNL     1       1.254  -9.077  -0.834  0.00  0.00    +0.029 C 
BRANCH  17  19
ATOM     19  C   UNL     1       0.288 -10.487   0.962  0.00  0.00    +0.230 C 
ATOM     20  O   UNL     1       0.870 -10.592   2.021  0.00  0.00    -0.274 OA
ATOM     21  N   UNL     1      -0.285 -11.569   0.399  0.00  0.00    -0.285 N 
ATOM     22  H   UNL     1      -0.808 -11.474  -0.413  0.00  0.00    +0.155 HD
BRANCH  21  23
ATOM     23  C   UNL     1      -0.126 -12.830   0.984  0.00  0.00    +0.036 A 
ATOM     24  C   UNL     1      -0.019 -13.961   0.184  0.00  0.00    +0.024 A 
ATOM     25  C   UNL     1       0.138 -15.204   0.764  0.00  0.00    +0.008 A 
ATOM     26  C   UNL     1       0.190 -15.326   2.140  0.00  0.00    -0.015 A 
ATOM     27  C   UNL     1       0.084 -14.202   2.942  0.00  0.00    +0.128 A 
ATOM     28  C   UNL     1      -0.068 -12.953   2.366  0.00  0.00    +0.062 A 
ATOM     29  F   UNL     1       0.135 -14.324   4.286  0.00  0.00    -0.205 F 
ATOM     30  C   UNL     1       0.361 -16.685   2.769  0.00  0.00    +0.047 C 
ENDBRANCH  21  23
ENDBRANCH  17  19
ENDBRANCH  16  17
ENDBRANCH   4  16
TORSDOF 6
