REMARK  Name = ZINC10075450
REMARK  7 active torsions:
REMARK  status: ('A' for Active; 'I' for Inactive)
REMARK    1  A    between atoms: C_1  and  C_2
REMARK    2  A    between atoms: C_20  and  C_30
REMARK    3  A    between atoms: C_20  and  C_31
REMARK    4  A    between atoms: C_22  and  C_23
REMARK    5  A    between atoms: C_22  and  C_24
REMARK    6  A    between atoms: C_32  and  C_36
REMARK    7  A    between atoms: C_33  and  N_35
REMARK                            x       y       z     vdW  Elec       q    Type
REMARK                         _______ _______ _______ _____ _____    ______ ____
ROOT
ATOM      1  C   UNL     1       3.510  13.871  -2.383  0.00  0.00    +0.008 C 
ATOM      2  C   UNL     1       2.771  12.550  -2.601  0.00  0.00    +0.001 C 
ATOM      3  C   UNL     1       1.872  12.660  -3.834  0.00  0.00    +0.078 C 
ATOM      4  C   UNL     1       1.112  11.369  -4.026  0.00  0.00    +0.116 C 
ATOM      5  C   UNL     1       0.757  10.617  -2.967  0.00  0.00    +0.058 C 
ATOM      6  C   UNL     1       1.101  10.993  -1.655  0.00  0.00    +0.164 C 
ATOM      7  O   UNL     1       0.755  10.294  -0.724  0.00  0.00    -0.292 OA
ATOM      8  C   UNL     1       1.891  12.245  -1.384  0.00  0.00    +0.083 C 
ATOM      9  C   UNL     1      -0.024   9.344  -3.164  0.00  0.00    +0.144 C 
ATOM     10  C   UNL     1       0.844   8.146  -2.949  0.00  0.00    -0.001 A 
ATOM     11  C   UNL     1       1.972   7.648  -3.564  0.00  0.00    +0.007 A 
ATOM     12  C   UNL     1       2.502   6.465  -3.052  0.00  0.00    +0.001 A 
ATOM     13  C   UNL     1       1.938   5.803  -1.971  0.00  0.00    +0.006 A 
ATOM     14  C   UNL     1       0.814   6.297  -1.355  0.00  0.00    -0.015 A 
ATOM     15  C   UNL     1       0.281   7.479  -1.870  0.00  0.00    +0.046 A 
ATOM     16  N   UNL     1      -0.851   8.126  -1.382  0.00  0.00    -0.264 N 
ATOM     17  C   UNL     1      -1.098   9.238  -2.092  0.00  0.00    +0.241 C 
ATOM     18  O   UNL     1      -2.010  10.016  -1.912  0.00  0.00    -0.273 OA
ATOM     19  C   UNL     1      -1.591   7.566  -0.238  0.00  0.00    +0.038 C 
ATOM     20  C   UNL     1      -1.377   6.048  -0.221  0.00  0.00    +0.041 C 
ATOM     21  C   UNL     1       0.110   5.682  -0.180  0.00  0.00    +0.022 C 
ATOM     22  C   UNL     1       0.729   6.210   1.116  0.00  0.00    +0.021 C 
ATOM     23  C   UNL     1      -3.082   7.875  -0.389  0.00  0.00    +0.032 C 
ATOM     24  C   UNL     1      -1.067   8.175   1.064  0.00  0.00    +0.032 C 
ATOM     25  C   UNL     1      -0.660   9.317  -4.524  0.00  0.00    +0.110 C 
ATOM     26  C   UNL     1      -0.214  10.147  -5.500  0.00  0.00    +0.199 C 
ATOM     27  O   UNL     1       0.798  11.000  -5.282  0.00  0.00    -0.445 OA
ENDROOT
BRANCH  21  28
ATOM     28  C   UNL     1       0.260   4.184  -0.234  0.00  0.00    -0.037 A 
ATOM     29  C   UNL     1       0.761   3.500   0.857  0.00  0.00    +0.004 A 
ATOM     30  C   UNL     1       0.897   2.125   0.808  0.00  0.00    +0.000 A 
ATOM     31  C   UNL     1       0.532   1.434  -0.332  0.00  0.00    +0.000 A 
ATOM     32  C   UNL     1       0.036   2.119  -1.425  0.00  0.00    +0.000 A 
ATOM     33  C   UNL     1      -0.104   3.493  -1.375  0.00  0.00    +0.004 A 
ENDBRANCH  21  28
BRANCH  26  34
ATOM     34  N   UNL     1      -0.810  10.112  -6.736  0.00  0.00    -0.328 N 
ATOM     35  H   UNL     1      -1.543   9.499  -6.904  0.00  0.00    +0.145 HD
ATOM     36  H   UNL     1      -0.499  10.701  -7.441  0.00  0.00    +0.145 HD
ENDBRANCH  26  34
BRANCH  25  37
ATOM     37  C   UNL     1      -1.738   8.414  -4.790  0.00  0.00    +0.102 C 
ATOM     38  N   UNL     1      -2.594   7.697  -5.002  0.00  0.00    -0.191 NA
ENDBRANCH  25  37
TORSDOF 3
