REMARK  Name = ZINC39662681
REMARK  6 active torsions:
REMARK  status: ('A' for Active; 'I' for Inactive)
REMARK    1  A    between atoms: C_3  and  C_33
REMARK    2  A    between atoms: C_6  and  C_7
REMARK    3  A    between atoms: C_11  and  C_20
REMARK    4  A    between atoms: N_22  and  C_23
REMARK    5  A    between atoms: C_23  and  C_24
REMARK    6  A    between atoms: C_27  and  C_30
REMARK                            x       y       z     vdW  Elec       q    Type
REMARK                         _______ _______ _______ _____ _____    ______ ____
ROOT
ATOM      1  C   UNL     1      -1.274  -0.765   0.013  0.00  0.00    +0.247 C 
ATOM      2  O   UNL     1      -2.333  -0.182   0.137  0.00  0.00    -0.270 OA
ATOM      3  N   UNL     1      -1.252  -2.108  -0.097  0.00  0.00    -0.296 N 
ATOM      4  C   UNL     1      -0.068  -2.999  -0.126  0.00  0.00    +0.121 C 
ATOM      5  C   UNL     1      -0.486  -4.231   0.708  0.00  0.00    +0.100 C 
ATOM      6  C   UNL     1      -2.022  -4.246   0.643  0.00  0.00    -0.004 C 
ATOM      7  C   UNL     1      -2.409  -3.029  -0.210  0.00  0.00    +0.115 C 
ATOM      8  C   UNL     1      -2.612  -4.109   2.043  0.00  0.00    -0.010 C 
ATOM      9  C   UNL     1      -4.139  -4.184   1.958  0.00  0.00    -0.082 C 
ATOM     10  N   UNL     1      -4.536  -5.465   1.362  0.00  0.00    +0.379 N 
ATOM     11  C   UNL     1      -4.043  -5.549  -0.018  0.00  0.00    -0.082 C 
ATOM     12  C   UNL     1      -2.511  -5.531  -0.017  0.00  0.00    -0.010 C 
ATOM     13  H   UNL     1      -4.146  -6.222   1.903  0.00  0.00    -0.086 HD
ATOM     14  H   UNL     1      -5.542  -5.538   1.363  0.00  0.00    -0.086 HD
ENDROOT
BRANCH   1  20
ATOM     15  C   UNL     1       1.118  -0.534  -0.645  0.00  0.00    +0.013 A 
ATOM     16  C   UNL     1       2.296   0.184  -0.669  0.00  0.00    +0.013 A 
ATOM     17  C   UNL     1       2.362   1.431  -0.072  0.00  0.00    +0.055 A 
ATOM     18  C   UNL     1       1.249   1.965   0.553  0.00  0.00    +0.013 A 
ATOM     19  C   UNL     1       0.065   1.257   0.584  0.00  0.00    +0.013 A 
ATOM     20  C   UNL     1      -0.008  -0.001  -0.017  0.00  0.00    +0.037 A 
BRANCH  17  21
ATOM     21  C   UNL     1       3.652   2.209  -0.102  0.00  0.00    +0.417 C 
ATOM     22  F   UNL     1       3.684   3.014  -1.246  0.00  0.00    -0.166 F 
ATOM     23  F   UNL     1       3.736   3.016   1.038  0.00  0.00    -0.166 F 
ATOM     24  F   UNL     1       4.732   1.321  -0.126  0.00  0.00    -0.166 F 
ENDBRANCH  17  21
ENDBRANCH   1  20
BRANCH   5  25
ATOM     25  C   UNL     1      -0.020  -4.082   2.134  0.00  0.00    +0.218 C 
ATOM     26  O   UNL     1      -0.003  -2.987   2.655  0.00  0.00    -0.275 OA
ATOM     27  N   UNL     1       0.377  -5.166   2.829  0.00  0.00    -0.315 N 
ATOM     28  H   UNL     1       0.362  -6.042   2.412  0.00  0.00    +0.149 HD
BRANCH  27  29
ATOM     29  C   UNL     1       0.829  -5.022   4.215  0.00  0.00    +0.107 C 
BRANCH  29  30
ATOM     30  C   UNL     1       1.220  -6.394   4.769  0.00  0.00    +0.006 C 
ATOM     31  C   UNL     1      -0.020  -7.287   4.839  0.00  0.00    +0.006 C 
ATOM     32  C   UNL     1       0.371  -8.659   5.394  0.00  0.00    +0.015 C 
ATOM     33  C   UNL     1       0.960  -8.493   6.796  0.00  0.00    +0.102 C 
ATOM     34  C   UNL     1       2.200  -7.599   6.726  0.00  0.00    +0.015 C 
ATOM     35  C   UNL     1       1.809  -6.228   6.171  0.00  0.00    +0.006 C 
BRANCH  33  36
ATOM     36  C   UNL     1       1.345  -9.844   7.342  0.00  0.00    +0.359 C 
ATOM     37  O   UNL     1       2.274  -9.943   8.125  0.00  0.00    -0.246 OA
ATOM     38  O   UNL     1       0.728 -10.838   7.000  0.00  0.00    -0.246 OA
ENDBRANCH  33  36
ENDBRANCH  29  30
ENDBRANCH  27  29
ENDBRANCH   5  25
TORSDOF 6
