REMARK  Name = ZINC36597248
REMARK  15 active torsions:
REMARK  status: ('A' for Active; 'I' for Inactive)
REMARK    1  A    between atoms: C_1  and  C_2
REMARK    2  A    between atoms: C_2  and  C_3
REMARK    3  A    between atoms: C_3  and  C_4
REMARK    4  A    between atoms: C_5  and  C_6
REMARK    5  A    between atoms: C_6  and  C_8
REMARK    6  A    between atoms: C_6  and  N_22
REMARK    7  A    between atoms: N_10  and  C_11
REMARK    8  A    between atoms: C_11  and  S_12
REMARK    9  A    between atoms: S_12  and  C_15
REMARK   10  A    between atoms: C_18  and  C_21
REMARK   11  A    between atoms: N_22  and  C_23
REMARK   12  A    between atoms: C_23  and  C_24
REMARK   13  A    between atoms: C_27  and  C_29
REMARK   14  A    between atoms: C_30  and  C_32
REMARK   15  A    between atoms: C_35  and  O_38
REMARK                            x       y       z     vdW  Elec       q    Type
REMARK                         _______ _______ _______ _____ _____    ______ ____
ROOT
ATOM      1  C   UNL     1       1.693  -5.566   1.571  0.00  0.00    +0.186 C 
ENDROOT
BRANCH   1   2
ATOM      2  C   UNL     1       2.535  -6.496   0.736  0.00  0.00    +0.239 C 
ATOM      3  O   UNL     1       2.051  -7.051  -0.228  0.00  0.00    -0.273 OA
ATOM      4  N   UNL     1       3.825  -6.711   1.060  0.00  0.00    -0.294 N 
ATOM      5  H   UNL     1       4.212  -6.268   1.832  0.00  0.00    +0.150 HD
BRANCH   4   6
ATOM      6  C   UNL     1       4.644  -7.615   0.248  0.00  0.00    +0.278 C 
BRANCH   6   7
ATOM      7  S   UNL     1       5.564  -6.654  -0.984  0.00  0.00    +0.013 S 
ATOM      8  O   UNL     1       6.412  -7.510  -1.738  0.00  0.00    -0.168 OA
ATOM      9  O   UNL     1       4.698  -5.735  -1.635  0.00  0.00    -0.168 OA
BRANCH   7  10
ATOM     10  C   UNL     1       6.664  -5.648  -0.044  0.00  0.00    +0.090 A 
ATOM     11  C   UNL     1       6.262  -4.395   0.380  0.00  0.00    +0.027 A 
ATOM     12  C   UNL     1       7.125  -3.605   1.117  0.00  0.00    +0.005 A 
ATOM     13  C   UNL     1       8.388  -4.069   1.431  0.00  0.00    -0.050 A 
ATOM     14  C   UNL     1       8.790  -5.322   1.008  0.00  0.00    +0.005 A 
ATOM     15  C   UNL     1       7.926  -6.113   0.274  0.00  0.00    +0.027 A 
ATOM     16  C   UNL     1       9.329  -3.208   2.234  0.00  0.00    +0.044 C 
ENDBRANCH   7  10
ENDBRANCH   6   7
ENDBRANCH   4   6
ENDBRANCH   1   2
BRANCH   1  17
ATOM     17  N   UNL     1       0.314  -5.579   1.076  0.00  0.00    -0.275 N 
ATOM     18  C   UNL     1      -0.707  -5.786   1.931  0.00  0.00    +0.248 C 
ATOM     19  O   UNL     1      -0.557  -5.580   3.119  0.00  0.00    -0.270 OA
BRANCH  18  20
ATOM     20  C   UNL     1      -2.008  -6.264   1.423  0.00  0.00    +0.037 A 
ATOM     21  C   UNL     1      -2.421  -5.932   0.131  0.00  0.00    +0.016 A 
ATOM     22  C   UNL     1      -3.636  -6.380  -0.339  0.00  0.00    +0.046 A 
ATOM     23  C   UNL     1      -4.450  -7.162   0.471  0.00  0.00    +0.117 A 
ATOM     24  C   UNL     1      -4.043  -7.496   1.758  0.00  0.00    +0.046 A 
ATOM     25  C   UNL     1      -2.828  -7.056   2.232  0.00  0.00    +0.016 A 
BRANCH  23  26
ATOM     26  O   UNL     1      -5.647  -7.602   0.005  0.00  0.00    -0.507 OA
ATOM     27  H   UNL     1      -5.604  -8.458  -0.443  0.00  0.00    +0.292 HD
ENDBRANCH  23  26
ENDBRANCH  18  20
BRANCH  17  28
ATOM     28  C   UNL     1       0.045  -5.365  -0.348  0.00  0.00    +0.183 C 
BRANCH  28  29
ATOM     29  C   UNL     1      -0.625  -4.028  -0.538  0.00  0.00    +0.122 A 
ATOM     30  C   UNL     1      -0.081  -2.954  -1.137  0.00  0.00    +0.046 A 
ATOM     31  C   UNL     1      -1.052  -1.926  -1.095  0.00  0.00    +0.045 A 
ATOM     32  C   UNL     1      -2.131  -2.435  -0.473  0.00  0.00    +0.102 A 
ATOM     33  O   UNL     1      -1.868  -3.710  -0.143  0.00  0.00    -0.463 OA
ATOM     34  C   UNL     1      -3.417  -1.700  -0.198  0.00  0.00    +0.086 C 
ENDBRANCH  28  29
ENDBRANCH  17  28
ENDBRANCH   1  17
BRANCH   1  36
ATOM     35  C   UNL     1       1.466  -3.175   1.135  0.00  0.00    -0.029 C 
ATOM     36  C   UNL     1       2.247  -4.168   1.480  0.00  0.00    +0.000 C 
BRANCH  35  37
ATOM     37  C   UNL     1       1.982  -1.760   1.177  0.00  0.00    +0.027 C 
BRANCH  37  39
ATOM     38  C   UNL     1       2.518   0.258  -0.196  0.00  0.00    +0.004 C 
ATOM     39  C   UNL     1       2.026  -1.190  -0.242  0.00  0.00    +0.001 C 
ENDBRANCH  37  39
ENDBRANCH  35  37
ENDBRANCH   1  36
TORSDOF 12
