REMARK  Name = ZINC36531237
REMARK  9 active torsions:
REMARK  status: ('A' for Active; 'I' for Inactive)
REMARK    1  A    between atoms: C_1  and  N_2
REMARK    2  A    between atoms: N_2  and  C_3
REMARK    3  A    between atoms: C_3  and  C_5
REMARK    4  A    between atoms: C_3  and  C_12
REMARK    5  A    between atoms: C_9  and  O_11
REMARK    6  A    between atoms: N_14  and  C_15
REMARK    7  A    between atoms: C_21  and  C_23
REMARK    8  A    between atoms: C_27  and  O_30
REMARK    9  A    between atoms: C_28  and  O_29
REMARK                            x       y       z     vdW  Elec       q    Type
REMARK                         _______ _______ _______ _____ _____    ______ ____
ROOT
ATOM      1  C   UNL     1      -0.059  -0.981   1.087  0.00  0.00    +0.192 C 
ENDROOT
BRANCH   1   2
ATOM      2  C   UNL     1      -1.345  -0.815   1.855  0.00  0.00    -0.015 A 
ATOM      3  C   UNL     1      -1.393   0.035   2.945  0.00  0.00    +0.006 A 
ATOM      4  C   UNL     1      -2.571   0.190   3.652  0.00  0.00    +0.004 A 
ATOM      5  C   UNL     1      -3.703  -0.505   3.270  0.00  0.00    +0.045 A 
ATOM      6  C   UNL     1      -3.657  -1.357   2.177  0.00  0.00    +0.117 A 
ATOM      7  C   UNL     1      -2.475  -1.507   1.466  0.00  0.00    +0.051 A 
BRANCH   6   8
ATOM      8  O   UNL     1      -4.769  -2.042   1.800  0.00  0.00    -0.507 OA
ATOM      9  H   UNL     1      -5.322  -1.572   1.161  0.00  0.00    +0.292 HD
ENDBRANCH   6   8
ENDBRANCH   1   2
BRANCH   1  11
ATOM     10  C   UNL     1      -0.209   1.414   0.263  0.00  0.00    +0.133 C 
ATOM     11  N   UNL     1      -0.017  -0.012  -0.011  0.00  0.00    -0.285 N 
ATOM     12  C   UNL     1       0.199  -0.432  -1.273  0.00  0.00    +0.251 C 
ATOM     13  O   UNL     1       0.323   0.378  -2.171  0.00  0.00    -0.270 OA
BRANCH  12  14
ATOM     14  C   UNL     1       0.286  -1.876  -1.565  0.00  0.00    +0.082 A 
ATOM     15  C   UNL     1       1.257  -2.663  -0.939  0.00  0.00    +0.017 A 
ATOM     16  C   UNL     1       1.334  -4.010  -1.214  0.00  0.00    +0.005 A 
ATOM     17  C   UNL     1       0.453  -4.593  -2.110  0.00  0.00    +0.049 A 
ATOM     18  C   UNL     1      -0.514  -3.828  -2.739  0.00  0.00    +0.159 A 
ATOM     19  C   UNL     1      -0.608  -2.466  -2.467  0.00  0.00    +0.171 A 
BRANCH  19  20
ATOM     20  O   UNL     1      -1.559  -1.713  -3.076  0.00  0.00    -0.503 OA
ATOM     21  H   UNL     1      -1.276  -1.327  -3.917  0.00  0.00    +0.292 HD
ENDBRANCH  19  20
BRANCH  18  22
ATOM     22  O   UNL     1      -1.375  -4.407  -3.617  0.00  0.00    -0.503 OA
ATOM     23  H   UNL     1      -2.186  -4.742  -3.211  0.00  0.00    +0.292 HD
ENDBRANCH  18  22
ENDBRANCH  12  14
ENDBRANCH   1  11
BRANCH   1  24
ATOM     24  C   UNL     1       1.111  -0.748   2.008  0.00  0.00    +0.238 C 
ATOM     25  O   UNL     1       1.901   0.141   1.771  0.00  0.00    -0.273 OA
ATOM     26  N   UNL     1       1.278  -1.527   3.095  0.00  0.00    -0.311 N 
ATOM     27  H   UNL     1       0.645  -2.237   3.285  0.00  0.00    +0.149 HD
BRANCH  26  28
ATOM     28  C   UNL     1       2.415  -1.300   3.991  0.00  0.00    +0.073 C 
ATOM     29  C   UNL     1       3.642  -2.038   3.455  0.00  0.00    +0.022 C 
ATOM     30  C   UNL     1       4.829  -1.802   4.390  0.00  0.00    +0.002 C 
ATOM     31  C   UNL     1       4.490  -2.324   5.787  0.00  0.00    +0.000 C 
ATOM     32  C   UNL     1       3.262  -1.585   6.324  0.00  0.00    +0.002 C 
ATOM     33  C   UNL     1       2.075  -1.822   5.388  0.00  0.00    +0.022 C 
ENDBRANCH  26  28
ENDBRANCH   1  24
TORSDOF 8
