REMARK  Name = ZINC41006258
REMARK  6 active torsions:
REMARK  status: ('A' for Active; 'I' for Inactive)
REMARK    1  A    between atoms: C_1  and  C_2
REMARK    2  A    between atoms: C_2  and  C_3
REMARK    3  A    between atoms: C_3  and  C_4
REMARK    4  A    between atoms: C_3  and  C_6
REMARK    5  A    between atoms: C_4  and  C_5
REMARK    6  A    between atoms: C_12  and  C_17
REMARK                            x       y       z     vdW  Elec       q    Type
REMARK                         _______ _______ _______ _____ _____    ______ ____
ROOT
ATOM      1  C   UNL     1       1.538  -2.051  -1.250  0.00  0.00    +0.222 C 
ATOM      2  O   UNL     1       1.153  -2.841  -0.413  0.00  0.00    -0.275 OA
ATOM      3  N   UNL     1       2.477  -2.420  -2.143  0.00  0.00    -0.263 N 
ATOM      4  C   UNL     1       3.073  -3.671  -2.048  0.00  0.00    +0.188 A 
ATOM      5  N   UNL     1       3.995  -4.201  -2.806  0.00  0.00    -0.140 NA
ATOM      6  N   UNL     1       4.481  -5.479  -2.562  0.00  0.00    -0.184 N 
ATOM      7  C   UNL     1       5.402  -6.378  -3.081  0.00  0.00    +0.186 A 
ATOM      8  N   UNL     1       5.366  -7.461  -2.339  0.00  0.00    -0.126 NA
ATOM      9  N   UNL     1       4.500  -7.318  -1.397  0.00  0.00    -0.120 NA
ATOM     10  C   UNL     1       3.944  -6.146  -1.491  0.00  0.00    +0.220 A 
ATOM     11  S   UNL     1       2.782  -4.965  -0.851  0.00  0.00    -0.011 S 
ATOM     12  H   UNL     1       2.736  -1.812  -2.853  0.00  0.00    +0.157 HD
ENDROOT
BRANCH   7  13
ATOM     13  C   UNL     1       6.267  -6.157  -4.258  0.00  0.00    +0.021 A 
ATOM     14  C   UNL     1       6.000  -5.105  -5.137  0.00  0.00    +0.014 A 
ATOM     15  C   UNL     1       6.811  -4.903  -6.234  0.00  0.00    +0.039 A 
ATOM     16  C   UNL     1       7.890  -5.741  -6.465  0.00  0.00    +0.123 A 
ATOM     17  C   UNL     1       8.159  -6.787  -5.597  0.00  0.00    +0.039 A 
ATOM     18  C   UNL     1       7.358  -6.995  -4.493  0.00  0.00    +0.014 A 
ATOM     19  F   UNL     1       8.681  -5.539  -7.541  0.00  0.00    -0.205 F 
ENDBRANCH   7  13
BRANCH   1  20
ATOM     20  C   UNL     1       0.965  -0.658  -1.290  0.00  0.00    +0.075 C 
BRANCH  20  22
ATOM     21  C   UNL     1      -1.063   0.723  -0.818  0.00  0.00    +0.004 C 
ATOM     22  C   UNL     1      -0.432  -0.662  -0.666  0.00  0.00    +0.009 C 
ENDBRANCH  20  22
BRANCH  20  23
ATOM     23  C   UNL     1       1.873   0.289  -0.502  0.00  0.00    +0.009 C 
ATOM     24  C   UNL     1       1.905  -0.139   0.966  0.00  0.00    +0.004 C 
ENDBRANCH  20  23
ENDBRANCH   1  20
TORSDOF 4
