REMARK  Name = ZINC16917070
REMARK  11 active torsions:
REMARK  status: ('A' for Active; 'I' for Inactive)
REMARK    1  A    between atoms: C_1  and  C_2
REMARK    2  A    between atoms: C_2  and  O_3
REMARK    3  A    between atoms: O_3  and  C_4
REMARK    4  A    between atoms: C_6  and  C_16
REMARK    5  A    between atoms: C_9  and  O_10
REMARK    6  A    between atoms: O_10  and  C_11
REMARK    7  A    between atoms: C_11  and  C_13
REMARK    8  A    between atoms: C_11  and  C_14
REMARK    9  A    between atoms: N_20  and  N_24
REMARK   10  A    between atoms: C_25  and  C_27
REMARK   11  A    between atoms: C_30  and  N_33
REMARK                            x       y       z     vdW  Elec       q    Type
REMARK                         _______ _______ _______ _____ _____    ______ ____
ROOT
ATOM      1  C   UNL     1      -8.692   7.833   2.139  0.00  0.00    +0.028 C 
ATOM      2  C   UNL     1      -7.936   8.175   1.064  0.00  0.00    +0.079 C 
ATOM      3  C   UNL     1      -6.569   8.730   1.013  0.00  0.00    +0.275 C 
ATOM      4  O   UNL     1      -5.931   8.954   2.026  0.00  0.00    -0.267 OA
ATOM      5  N   UNL     1      -6.072   8.971  -0.188  0.00  0.00    -0.169 N 
ATOM      6  C   UNL     1      -6.783   8.727  -1.307  0.00  0.00    +0.138 C 
ATOM      7  S   UNL     1      -6.322   8.977  -2.937  0.00  0.00    -0.026 S 
ATOM      8  S   UNL     1      -8.323   8.076  -0.678  0.00  0.00    -0.059 S 
ENDROOT
BRANCH   1  11
ATOM      9  C   UNL     1      -8.312   8.288   5.842  0.00  0.00    +0.162 A 
ATOM     10  C   UNL     1      -8.870   8.273   4.579  0.00  0.00    +0.057 A 
ATOM     11  C   UNL     1      -8.105   7.851   3.485  0.00  0.00    -0.020 A 
ATOM     12  C   UNL     1      -6.780   7.441   3.679  0.00  0.00    +0.012 A 
ATOM     13  C   UNL     1      -6.231   7.465   4.942  0.00  0.00    +0.050 A 
ATOM     14  C   UNL     1      -6.990   7.884   6.026  0.00  0.00    +0.163 A 
BRANCH   9  15
ATOM     15  O   UNL     1      -9.052   8.697   6.907  0.00  0.00    -0.489 OA
BRANCH  15  17
ATOM     16  C   UNL     1     -11.068   9.521   7.955  0.00  0.00    +0.048 C 
ATOM     17  C   UNL     1     -10.399   9.097   6.646  0.00  0.00    +0.226 C 
ENDBRANCH  15  17
ENDBRANCH   9  15
BRANCH  14  18
ATOM     18  O   UNL     1      -6.444   7.899   7.270  0.00  0.00    -0.474 OA
BRANCH  18  19
ATOM     19  C   UNL     1      -5.130   7.356   7.408  0.00  0.00    +0.283 C 
ATOM     20  C   UNL     1      -4.095   8.445   7.118  0.00  0.00    +0.064 C 
BRANCH  19  21
ATOM     21  C   UNL     1      -4.942   6.847   8.814  0.00  0.00    +0.395 C 
ATOM     22  O   UNL     1      -5.841   6.940   9.616  0.00  0.00    -0.242 OA
ATOM     23  O   UNL     1      -3.775   6.290   9.176  0.00  0.00    -0.242 OA
ENDBRANCH  19  21
ENDBRANCH  18  19
ENDBRANCH  14  18
ENDBRANCH   1  11
BRANCH   5  24
ATOM     24  N   UNL     1      -4.779   9.499  -0.301  0.00  0.00    -0.222 N 
ATOM     25  C   UNL     1      -3.760   8.708  -0.691  0.00  0.00    +0.261 C 
ATOM     26  O   UNL     1      -3.962   7.537  -0.945  0.00  0.00    -0.269 OA
ATOM     27  H   UNL     1      -4.617  10.434  -0.098  0.00  0.00    +0.174 HD
BRANCH  25  28
ATOM     28  C   UNL     1      -2.395   9.265  -0.809  0.00  0.00    +0.038 A 
ATOM     29  C   UNL     1      -1.338   8.449  -1.213  0.00  0.00    +0.015 A 
ATOM     30  C   UNL     1      -0.067   8.975  -1.322  0.00  0.00    +0.033 A 
ATOM     31  C   UNL     1       0.161  10.308  -1.031  0.00  0.00    +0.126 A 
ATOM     32  C   UNL     1      -0.883  11.122  -0.625  0.00  0.00    +0.033 A 
ATOM     33  C   UNL     1      -2.159  10.610  -0.518  0.00  0.00    +0.015 A 
BRANCH  31  34
ATOM     34  N   UNL     1       1.527  10.866  -1.149  0.00  0.00    +0.056 N 
ATOM     35  O   UNL     1       2.448  10.151  -1.501  0.00  0.00    -0.126 OA
ATOM     36  O   UNL     1       1.729  12.040  -0.899  0.00  0.00    -0.126 OA
ENDBRANCH  31  34
ENDBRANCH  25  28
ENDBRANCH   5  24
TORSDOF 9
