REMARK  Name = ZINC66703547
REMARK  6 active torsions:
REMARK  status: ('A' for Active; 'I' for Inactive)
REMARK    1  A    between atoms: C_4  and  C_7
REMARK    2  A    between atoms: C_7  and  C_9
REMARK    3  A    between atoms: C_7  and  N_15
REMARK    4  A    between atoms: N_18  and  C_19
REMARK    5  A    between atoms: C_19  and  C_20
REMARK    6  A    between atoms: C_24  and  C_26
REMARK                            x       y       z     vdW  Elec       q    Type
REMARK                         _______ _______ _______ _____ _____    ______ ____
ROOT
ATOM      1  N   UNL     1       3.630  -1.873   0.845  0.00  0.00    -0.289 N 
ATOM      2  C   UNL     1       3.871  -1.738   2.164  0.00  0.00    +0.301 C 
ATOM      3  O   UNL     1       4.155  -0.648   2.622  0.00  0.00    -0.253 OA
ATOM      4  N   UNL     1       3.796  -2.811   2.977  0.00  0.00    -0.292 N 
ATOM      5  H   UNL     1       3.403  -2.743   0.480  0.00  0.00    +0.151 HD
ATOM      6  H   UNL     1       3.569  -3.680   2.612  0.00  0.00    +0.151 HD
ENDROOT
BRANCH   1   7
ATOM      7  C   UNL     1       3.711  -0.707  -0.038  0.00  0.00    +0.136 C 
BRANCH   7  11
ATOM      8  C   UNL     1      -0.017   1.378   0.010  0.00  0.00    +0.000 A 
ATOM      9  C   UNL     1       1.171   2.086   0.002  0.00  0.00    +0.000 A 
ATOM     10  C   UNL     1       2.377   1.411  -0.013  0.00  0.00    +0.006 A 
ATOM     11  C   UNL     1       2.396   0.029  -0.020  0.00  0.00    -0.023 A 
ATOM     12  C   UNL     1       1.208  -0.679  -0.012  0.00  0.00    +0.006 A 
ATOM     13  C   UNL     1       0.002  -0.004   0.002  0.00  0.00    +0.000 A 
ENDBRANCH   7  11
BRANCH   7  14
ATOM     14  C   UNL     1       4.014  -1.161  -1.442  0.00  0.00    -0.005 A 
ATOM     15  C   UNL     1       4.902  -0.447  -2.234  0.00  0.00    +0.009 A 
ATOM     16  C   UNL     1       5.150  -0.902  -3.520  0.00  0.00    +0.020 A 
ATOM     17  C   UNL     1       4.510  -2.042  -3.967  0.00  0.00    +0.111 A 
ATOM     18  N   UNL     1       3.672  -2.695  -3.186  0.00  0.00    -0.263 NA
ATOM     19  C   UNL     1       3.416  -2.296  -1.956  0.00  0.00    +0.116 A 
ENDBRANCH   7  14
ENDBRANCH   1   7
BRANCH   4  20
ATOM     20  C   UNL     1       4.058  -2.664   4.411  0.00  0.00    +0.181 C 
BRANCH  20  21
ATOM     21  C   UNL     1       3.910  -4.002   5.088  0.00  0.00    +0.143 A 
ATOM     22  N   UNL     1       4.909  -4.861   5.359  0.00  0.00    -0.261 N 
ATOM     23  H   UNL     1       5.850  -4.739   5.158  0.00  0.00    +0.190 HD
ATOM     24  N   UNL     1       4.322  -5.970   5.991  0.00  0.00    -0.152 NA
ATOM     25  C   UNL     1       3.031  -5.723   6.065  0.00  0.00    +0.188 A 
ATOM     26  N   UNL     1       2.792  -4.522   5.518  0.00  0.00    -0.209 NA
BRANCH  25  27
ATOM     27  C   UNL     1       2.014  -6.619   6.657  0.00  0.00    +0.058 A 
ATOM     28  C   UNL     1       2.181  -7.846   7.240  0.00  0.00    +0.019 A 
ATOM     29  C   UNL     1       1.072  -8.504   7.728  0.00  0.00    +0.008 A 
ATOM     30  C   UNL     1      -0.147  -7.917   7.616  0.00  0.00    +0.046 A 
ATOM     31  S   UNL     1       0.251  -6.378   6.804  0.00  0.00    -0.093 S 
ENDBRANCH  25  27
ENDBRANCH  20  21
ENDBRANCH   4  20
TORSDOF 6
