REMARK  Name = ZINC13498764
REMARK  12 active torsions:
REMARK  status: ('A' for Active; 'I' for Inactive)
REMARK    1  A    between atoms: C_1  and  C_2
REMARK    2  A    between atoms: C_2  and  C_3
REMARK    3  A    between atoms: C_2  and  C_4
REMARK    4  A    between atoms: C_4  and  C_6
REMARK    5  A    between atoms: C_4  and  N_67
REMARK    6  A    between atoms: N_10  and  C_11
REMARK    7  A    between atoms: C_11  and  C_12
REMARK    8  A    between atoms: C_17  and  C_18
REMARK    9  A    between atoms: C_17  and  N_67
REMARK   10  A    between atoms: C_23  and  O_30
REMARK   11  A    between atoms: O_30  and  C_31
REMARK   12  A    between atoms: C_32  and  N_67
REMARK                            x       y       z     vdW  Elec       q    Type
REMARK                         _______ _______ _______ _____ _____    ______ ____
ROOT
ATOM      1  N   UNL     1      -7.989  -1.430   4.393  0.00  0.00    +0.391 N 
ATOM      2  H   UNL     1      -7.421  -2.118   3.885  0.00  0.00    -0.080 HD
ENDROOT
BRANCH   1   3
ATOM      3  C   UNL     1      -7.608  -1.454   5.821  0.00  0.00    -0.067 C 
ATOM      4  C   UNL     1      -8.509  -0.516   6.651  0.00  0.00    -0.015 C 
ATOM      5  C   UNL     1      -7.551   0.095   7.705  0.00  0.00    -0.002 C 
ATOM      6  C   UNL     1      -6.243   0.300   6.901  0.00  0.00    -0.002 C 
ATOM      7  C   UNL     1      -6.168  -0.935   5.980  0.00  0.00    -0.015 C 
ENDBRANCH   1   3
BRANCH   1   8
ATOM      8  C   UNL     1      -9.417  -1.784   4.246  0.00  0.00    +0.006 C 
BRANCH   8   9
ATOM      9  C   UNL     1      -9.686  -3.067   4.989  0.00  0.00    +0.139 A 
ATOM     10  N   UNL     1      -8.980  -4.169   4.928  0.00  0.00    -0.115 NA
ATOM     11  N   UNL     1      -9.528  -5.037   5.707  0.00  0.00    -0.023 NA
ATOM     12  N   UNL     1     -10.570  -4.518   6.258  0.00  0.00    -0.044 NA
ATOM     13  N   UNL     1     -10.701  -3.304   5.840  0.00  0.00    -0.223 N 
BRANCH  13  14
ATOM     14  C   UNL     1     -11.757  -2.362   6.220  0.00  0.00    +0.221 C 
BRANCH  14  15
ATOM     15  C   UNL     1     -12.990  -2.631   5.397  0.00  0.00    +0.126 A 
ATOM     16  C   UNL     1     -14.004  -3.445   5.742  0.00  0.00    +0.046 A 
ATOM     17  C   UNL     1     -14.944  -3.398   4.687  0.00  0.00    +0.041 A 
ATOM     18  C   UNL     1     -14.444  -2.565   3.757  0.00  0.00    +0.195 A 
ATOM     19  O   UNL     1     -13.261  -2.103   4.192  0.00  0.00    -0.466 OA
ENDBRANCH  14  15
ENDBRANCH  13  14
ENDBRANCH   8   9
BRANCH   8  21
ATOM     20  C   UNL     1      -8.890  -3.141   2.215  0.00  0.00    +0.006 C 
ATOM     21  C   UNL     1      -9.726  -1.981   2.760  0.00  0.00    -0.024 C 
ATOM     22  C   UNL     1     -11.212  -2.297   2.586  0.00  0.00    +0.006 C 
ENDBRANCH   8  21
ENDBRANCH   1   8
BRANCH   1  23
ATOM     23  C   UNL     1      -7.740  -0.088   3.825  0.00  0.00    -0.036 C 
BRANCH  23  24
ATOM     24  C   UNL     1      -8.653   0.930   4.457  0.00  0.00    +0.001 A 
ATOM     25  C   UNL     1      -8.149   1.844   5.325  0.00  0.00    +0.017 A 
ATOM     26  C   UNL     1      -9.061   2.820   5.921  0.00  0.00    -0.001 A 
ATOM     27  C   UNL     1      -8.598   3.785   6.823  0.00  0.00    +0.013 A 
ATOM     28  C   UNL     1      -9.470   4.686   7.358  0.00  0.00    +0.046 A 
ATOM     29  C   UNL     1     -10.823   4.647   7.024  0.00  0.00    +0.122 A 
ATOM     30  C   UNL     1     -11.301   3.700   6.134  0.00  0.00    +0.072 A 
ATOM     31  C   UNL     1     -10.426   2.778   5.574  0.00  0.00    +0.053 A 
ATOM     32  N   UNL     1     -10.875   1.824   4.686  0.00  0.00    -0.322 N 
ATOM     33  H   UNL     1     -11.815   1.796   4.448  0.00  0.00    +0.169 HD
ATOM     34  C   UNL     1     -10.028   0.931   4.144  0.00  0.00    +0.251 A 
ATOM     35  O   UNL     1     -10.459   0.102   3.362  0.00  0.00    -0.268 OA
BRANCH  29  36
ATOM     36  O   UNL     1     -11.679   5.548   7.570  0.00  0.00    -0.495 OA
ATOM     37  C   UNL     1     -11.124   6.500   8.481  0.00  0.00    +0.277 C 
ENDBRANCH  29  36
ENDBRANCH  23  24
ENDBRANCH   1  23
TORSDOF 9
