REMARK  Name = ZINC39711804
REMARK  7 active torsions:
REMARK  status: ('A' for Active; 'I' for Inactive)
REMARK    1  A    between atoms: C_5  and  N_7
REMARK    2  A    between atoms: C_8  and  C_10
REMARK    3  A    between atoms: C_10  and  S_11
REMARK    4  A    between atoms: S_11  and  C_12
REMARK    5  A    between atoms: C_15  and  C_21
REMARK    6  A    between atoms: N_16  and  C_17
REMARK    7  A    between atoms: C_17  and  C_18
REMARK                            x       y       z     vdW  Elec       q    Type
REMARK                         _______ _______ _______ _____ _____    ______ ____
ROOT
ATOM      1  S   UNL     1      -1.731  -4.846   0.328  0.00  0.00    -0.077 S 
ENDROOT
BRANCH   1   2
ATOM      2  C   UNL     1      -1.572  -6.598   0.442  0.00  0.00    +0.193 A 
ATOM      3  N   UNL     1      -0.450  -7.280   0.434  0.00  0.00    -0.122 NA
ATOM      4  N   UNL     1      -0.696  -8.538   0.533  0.00  0.00    -0.128 NA
ATOM      5  C   UNL     1      -1.993  -8.736   0.610  0.00  0.00    +0.172 A 
ATOM      6  N   UNL     1      -2.594  -7.498   0.560  0.00  0.00    -0.291 N 
BRANCH   5   7
ATOM      7  C   UNL     1      -2.674 -10.036   0.733  0.00  0.00    +0.056 A 
ATOM      8  C   UNL     1      -2.151 -11.257   1.075  0.00  0.00    +0.019 A 
ATOM      9  C   UNL     1      -2.992 -12.345   1.126  0.00  0.00    +0.008 A 
ATOM     10  C   UNL     1      -4.309 -12.178   0.839  0.00  0.00    +0.046 A 
ATOM     11  S   UNL     1      -4.397 -10.431   0.485  0.00  0.00    -0.094 S 
ENDBRANCH   5   7
BRANCH   6  12
ATOM     12  C   UNL     1      -4.029  -7.207   0.619  0.00  0.00    +0.250 C 
BRANCH  12  13
ATOM     13  C   UNL     1      -4.598  -7.206  -0.776  0.00  0.00    +0.375 C 
ATOM     14  O   UNL     1      -3.873  -7.427  -1.731  0.00  0.00    -0.244 OA
ATOM     15  O   UNL     1      -5.785  -6.983  -0.950  0.00  0.00    -0.244 OA
ENDBRANCH  12  13
ENDBRANCH   6  12
ENDBRANCH   1   2
BRANCH   1  16
ATOM     16  C   UNL     1      -0.020  -4.259   0.194  0.00  0.00    +0.173 C 
BRANCH  16  18
ATOM     17  N   UNL     1       1.157  -2.094  -0.021  0.00  0.00    -0.283 N 
ATOM     18  C   UNL     1      -0.012  -2.755   0.089  0.00  0.00    +0.228 C 
ATOM     19  O   UNL     1      -1.057  -2.141   0.103  0.00  0.00    -0.275 OA
ATOM     20  H   UNL     1       1.987  -2.587  -0.113  0.00  0.00    +0.155 HD
BRANCH  17  25
ATOM     21  C   UNL     1       0.157   1.379   0.648  0.00  0.00    +0.004 A 
ATOM     22  C   UNL     1       1.141   2.113   0.075  0.00  0.00    +0.031 A 
ATOM     23  C   UNL     1       2.223   1.469  -0.585  0.00  0.00    +0.102 A 
ATOM     24  C   UNL     1       2.243   0.012  -0.626  0.00  0.00    +0.121 A 
ATOM     25  C   UNL     1       1.174  -0.698  -0.002  0.00  0.00    +0.062 A 
ATOM     26  C   UNL     1       0.170  -0.013   0.611  0.00  0.00    +0.025 A 
ATOM     27  N   UNL     1       3.301  -0.481  -1.268  0.00  0.00    -0.189 NA
ATOM     28  S   UNL     1       4.151   0.798  -1.750  0.00  0.00    +0.117 S 
ATOM     29  N   UNL     1       3.269   2.025  -1.198  0.00  0.00    -0.191 NA
ENDBRANCH  17  25
ENDBRANCH  16  18
ENDBRANCH   1  16
TORSDOF 7
