REMARK  Name = ZINC09023062
REMARK  12 active torsions:
REMARK  status: ('A' for Active; 'I' for Inactive)
REMARK    1  A    between atoms: C_1  and  C_2
REMARK    2  A    between atoms: C_3  and  N_15
REMARK    3  A    between atoms: N_6  and  C_9
REMARK    4  A    between atoms: N_7  and  C_8
REMARK    5  A    between atoms: C_16  and  C_18
REMARK    6  A    between atoms: C_18  and  C_20
REMARK    7  A    between atoms: C_18  and  O_21
REMARK    8  A    between atoms: O_21  and  C_22
REMARK    9  A    between atoms: C_22  and  C_24
REMARK   10  A    between atoms: C_29  and  N_30
REMARK   11  A    between atoms: N_30  and  C_31
REMARK   12  A    between atoms: C_31  and  C_32
REMARK                            x       y       z     vdW  Elec       q    Type
REMARK                         _______ _______ _______ _____ _____    ______ ____
ROOT
ATOM      1  C   UNL     1      -4.223  -0.802  -0.553  0.00  0.00    +0.259 C 
ATOM      2  C   UNL     1      -4.959  -0.506   0.755  0.00  0.00    +0.062 C 
ENDROOT
BRANCH   1   4
ATOM      3  N   UNL     1      -2.443   0.864  -0.134  0.00  0.00    -0.277 N 
ATOM      4  C   UNL     1      -2.774  -0.413  -0.413  0.00  0.00    +0.258 C 
ATOM      5  O   UNL     1      -1.905  -1.248  -0.550  0.00  0.00    -0.271 OA
ATOM      6  H   UNL     1      -3.132   1.545  -0.093  0.00  0.00    +0.155 HD
BRANCH   3   9
ATOM      7  C   UNL     1      -0.871   2.950  -1.744  0.00  0.00    +0.067 C 
ATOM      8  C   UNL     1      -0.372   2.120  -0.589  0.00  0.00    +0.059 A 
ATOM      9  C   UNL     1      -1.096   1.208   0.098  0.00  0.00    +0.121 A 
ATOM     10  C   UNL     1      -0.222   0.648   1.129  0.00  0.00    +0.293 A 
ATOM     11  O   UNL     1      -0.520  -0.203   1.948  0.00  0.00    -0.264 OA
ATOM     12  N   UNL     1       0.978   1.249   0.995  0.00  0.00    -0.216 N 
ATOM     13  N   UNL     1       0.892   2.160  -0.064  0.00  0.00    -0.282 N 
ATOM     14  C   UNL     1       1.982   3.018  -0.537  0.00  0.00    +0.171 C 
BRANCH  12  15
ATOM     15  C   UNL     1       2.111   1.005   1.778  0.00  0.00    +0.067 A 
ATOM     16  C   UNL     1       3.340   0.776   1.172  0.00  0.00    +0.028 A 
ATOM     17  C   UNL     1       4.457   0.540   1.948  0.00  0.00    +0.002 A 
ATOM     18  C   UNL     1       4.352   0.520   3.327  0.00  0.00    +0.000 A 
ATOM     19  C   UNL     1       3.129   0.742   3.933  0.00  0.00    +0.002 A 
ATOM     20  C   UNL     1       2.009   0.984   3.163  0.00  0.00    +0.028 A 
ENDBRANCH  12  15
ENDBRANCH   3   9
ENDBRANCH   1   4
BRANCH   1  21
ATOM     21  O   UNL     1      -4.316  -2.220  -0.851  0.00  0.00    -0.449 OA
BRANCH  21  22
ATOM     22  C   UNL     1      -5.368  -2.622  -1.592  0.00  0.00    +0.342 C 
ATOM     23  O   UNL     1      -6.185  -1.809  -1.978  0.00  0.00    -0.245 OA
BRANCH  22  24
ATOM     24  C   UNL     1      -5.528  -4.045  -1.933  0.00  0.00    +0.080 A 
ATOM     25  C   UNL     1      -4.654  -4.998  -1.403  0.00  0.00    +0.017 A 
ATOM     26  C   UNL     1      -4.809  -6.328  -1.726  0.00  0.00    +0.001 A 
ATOM     27  C   UNL     1      -5.828  -6.729  -2.576  0.00  0.00    +0.002 A 
ATOM     28  C   UNL     1      -6.699  -5.801  -3.108  0.00  0.00    +0.024 A 
ATOM     29  C   UNL     1      -6.563  -4.455  -2.789  0.00  0.00    +0.042 A 
BRANCH  29  30
ATOM     30  N   UNL     1      -7.442  -3.520  -3.319  0.00  0.00    -0.336 N 
ATOM     31  H   UNL     1      -7.291  -2.573  -3.169  0.00  0.00    +0.147 HD
BRANCH  30  32
ATOM     32  C   UNL     1      -8.596  -3.962  -4.105  0.00  0.00    +0.176 C 
BRANCH  32  33
ATOM     33  C   UNL     1      -9.384  -2.761  -4.560  0.00  0.00    +0.122 A 
ATOM     34  C   UNL     1      -9.195  -2.085  -5.708  0.00  0.00    +0.046 A 
ATOM     35  C   UNL     1     -10.147  -1.040  -5.729  0.00  0.00    +0.041 A 
ATOM     36  C   UNL     1     -10.861  -1.140  -4.593  0.00  0.00    +0.195 A 
ATOM     37  O   UNL     1     -10.398  -2.188  -3.892  0.00  0.00    -0.466 OA
ENDBRANCH  32  33
ENDBRANCH  30  32
ENDBRANCH  29  30
ENDBRANCH  22  24
ENDBRANCH  21  22
ENDBRANCH   1  21
TORSDOF 9
