REMARK  Name = ZINC64793530
REMARK  7 active torsions:
REMARK  status: ('A' for Active; 'I' for Inactive)
REMARK    1  A    between atoms: C_1  and  C_2
REMARK    2  A    between atoms: C_2  and  C_3
REMARK    3  A    between atoms: C_3  and  N_4
REMARK    4  A    between atoms: C_5  and  C_7
REMARK    5  A    between atoms: C_7  and  N_8
REMARK    6  A    between atoms: C_14  and  C_24
REMARK    7  A    between atoms: C_17  and  C_18
REMARK                            x       y       z     vdW  Elec       q    Type
REMARK                         _______ _______ _______ _____ _____    ______ ____
ROOT
ATOM      1  N   UNL     1       1.899  -4.932  -3.417  0.00  0.00    -0.259 N 
ATOM      2  C   UNL     1       1.067  -5.044  -4.520  0.00  0.00    +0.243 A 
ATOM      3  N   UNL     1      -0.217  -4.867  -4.644  0.00  0.00    -0.092 NA
ATOM      4  N   UNL     1      -0.581  -5.073  -5.864  0.00  0.00    -0.021 NA
ATOM      5  N   UNL     1       0.440  -5.394  -6.590  0.00  0.00    -0.042 NA
ATOM      6  N   UNL     1       1.547  -5.391  -5.743  0.00  0.00    -0.202 N 
ATOM      7  C   UNL     1       2.949  -5.686  -6.012  0.00  0.00    +0.167 C 
ATOM      8  C   UNL     1       3.789  -5.268  -4.835  0.00  0.00    +0.028 C 
ATOM      9  C   UNL     1       3.280  -4.926  -3.658  0.00  0.00    +0.043 C 
ENDROOT
BRANCH   7  10
ATOM     10  C   UNL     1       3.115  -7.165  -6.246  0.00  0.00    -0.019 A 
ATOM     11  C   UNL     1       2.762  -8.065  -5.257  0.00  0.00    +0.007 A 
ATOM     12  C   UNL     1       2.914  -9.422  -5.471  0.00  0.00    +0.020 A 
ATOM     13  C   UNL     1       3.418  -9.880  -6.675  0.00  0.00    +0.041 A 
ATOM     14  C   UNL     1       3.771  -8.979  -7.664  0.00  0.00    +0.020 A 
ATOM     15  C   UNL     1       3.613  -7.622  -7.451  0.00  0.00    +0.007 A 
ATOM     16 CL   UNL     1       3.610 -11.584  -6.944  0.00  0.00    -0.084 Cl
ENDBRANCH   7  10
BRANCH   9  17
ATOM     17  C   UNL     1       4.197  -4.533  -2.564  0.00  0.00    -0.004 A 
ATOM     18  C   UNL     1       5.269  -5.356  -2.220  0.00  0.00    +0.010 A 
ATOM     19  C   UNL     1       6.120  -4.983  -1.200  0.00  0.00    +0.001 A 
ATOM     20  C   UNL     1       5.913  -3.797  -0.520  0.00  0.00    +0.000 A 
ATOM     21  C   UNL     1       4.851  -2.976  -0.857  0.00  0.00    +0.001 A 
ATOM     22  C   UNL     1       3.997  -3.335  -1.879  0.00  0.00    +0.010 A 
ENDBRANCH   9  17
BRANCH   1  23
ATOM     23  C   UNL     1       1.359  -4.818  -2.060  0.00  0.00    +0.209 C 
BRANCH  23  25
ATOM     24  N   UNL     1       0.593  -3.014  -0.551  0.00  0.00    -0.314 N 
ATOM     25  C   UNL     1       0.997  -3.381  -1.783  0.00  0.00    +0.231 C 
ATOM     26  O   UNL     1       1.069  -2.556  -2.669  0.00  0.00    -0.274 OA
ATOM     27  H   UNL     1       0.535  -3.674   0.158  0.00  0.00    +0.149 HD
BRANCH  24  28
ATOM     28  C   UNL     1       0.240  -1.618  -0.281  0.00  0.00    +0.104 C 
BRANCH  28  30
ATOM     29  C   UNL     1      -0.549  -0.013   1.464  0.00  0.00    +0.005 C 
ATOM     30  C   UNL     1      -0.182  -1.472   1.182  0.00  0.00    +0.015 C 
ENDBRANCH  28  30
ENDBRANCH  24  28
ENDBRANCH  23  25
ENDBRANCH   1  23
TORSDOF 6
