REMARK  Name = ZINC28056315
REMARK  4 active torsions:
REMARK  status: ('A' for Active; 'I' for Inactive)
REMARK    1  A    between atoms: C_1  and  C_2
REMARK    2  A    between atoms: C_2  and  C_3
REMARK    3  A    between atoms: C_6  and  C_9
REMARK    4  A    between atoms: C_26  and  C_28
REMARK                            x       y       z     vdW  Elec       q    Type
REMARK                         _______ _______ _______ _____ _____    ______ ____
ROOT
ATOM      1  C   UNL     1      -0.319   0.967   2.583  0.00  0.00    +0.234 C 
ATOM      2  C   UNL     1      -0.820   1.651   1.331  0.00  0.00    +0.025 C 
ATOM      3  C   UNL     1      -1.800   2.547   1.434  0.00  0.00    +0.050 C 
ATOM      4  C   UNL     1      -2.381   2.811   2.772  0.00  0.00    +0.038 A 
ATOM      5  C   UNL     1      -3.161   3.938   3.013  0.00  0.00    +0.013 A 
ATOM      6  C   UNL     1      -3.687   4.141   4.274  0.00  0.00    +0.001 A 
ATOM      7  C   UNL     1      -3.446   3.229   5.287  0.00  0.00    +0.004 A 
ATOM      8  C   UNL     1      -2.676   2.104   5.051  0.00  0.00    +0.046 A 
ATOM      9  C   UNL     1      -2.143   1.889   3.793  0.00  0.00    +0.131 A 
ATOM     10  O   UNL     1      -1.381   0.800   3.522  0.00  0.00    -0.479 OA
ATOM     11  N   UNL     1      -2.306   3.231   0.321  0.00  0.00    -0.282 N 
ATOM     12  C   UNL     1      -1.961   2.748  -0.930  0.00  0.00    +0.240 A 
ATOM     13  N   UNL     1      -2.442   3.007  -2.113  0.00  0.00    -0.092 NA
ATOM     14  N   UNL     1      -1.825   2.312  -3.006  0.00  0.00    -0.021 NA
ATOM     15  N   UNL     1      -0.917   1.573  -2.455  0.00  0.00    -0.042 NA
ATOM     16  N   UNL     1      -0.969   1.833  -1.087  0.00  0.00    -0.201 N 
ATOM     17  C   UNL     1      -0.179   1.298   0.012  0.00  0.00    +0.174 C 
ATOM     18  H   UNL     1      -2.948   4.113   0.463  0.00  0.00    +0.155 HD
ENDROOT
BRANCH  17  19
ATOM     19  C   UNL     1       1.210   1.882  -0.040  0.00  0.00    -0.016 A 
ATOM     20  C   UNL     1       2.304   1.050  -0.188  0.00  0.00    +0.006 A 
ATOM     21  C   UNL     1       3.578   1.585  -0.236  0.00  0.00    +0.003 A 
ATOM     22  C   UNL     1       3.759   2.951  -0.138  0.00  0.00    +0.038 A 
ATOM     23  C   UNL     1       2.663   3.785   0.011  0.00  0.00    +0.124 A 
ATOM     24  C   UNL     1       1.387   3.249   0.053  0.00  0.00    +0.044 A 
ATOM     25  F   UNL     1       2.839   5.121   0.108  0.00  0.00    -0.205 F 
ENDBRANCH  17  19
BRANCH   1  29
ATOM     26  C   UNL     1       2.759   3.345   4.350  0.00  0.00    -0.048 A 
ATOM     27  C   UNL     1       1.439   3.745   4.440  0.00  0.00    +0.004 A 
ATOM     28  C   UNL     1       0.443   2.976   3.868  0.00  0.00    +0.008 A 
ATOM     29  C   UNL     1       0.767   1.806   3.206  0.00  0.00    -0.003 A 
ATOM     30  C   UNL     1       2.087   1.404   3.121  0.00  0.00    +0.008 A 
ATOM     31  C   UNL     1       3.083   2.175   3.689  0.00  0.00    +0.004 A 
BRANCH  26  33
ATOM     32  C   UNL     1       4.074   3.734   6.416  0.00  0.00    +0.009 C 
ATOM     33  C   UNL     1       3.845   4.185   4.972  0.00  0.00    +0.032 C 
ENDBRANCH  26  33
ENDBRANCH   1  29
TORSDOF 3
