REMARK  Name = ZINC23061507
REMARK  12 active torsions:
REMARK  status: ('A' for Active; 'I' for Inactive)
REMARK    1  A    between atoms: C_1  and  C_2
REMARK    2  A    between atoms: C_2  and  C_4
REMARK    3  A    between atoms: C_2  and  O_17
REMARK    4  A    between atoms: N_6  and  C_7
REMARK    5  A    between atoms: C_11  and  N_13
REMARK    6  A    between atoms: O_17  and  C_18
REMARK    7  A    between atoms: C_18  and  C_20
REMARK    8  A    between atoms: C_20  and  C_22
REMARK    9  A    between atoms: C_20  and  N_25
REMARK   10  A    between atoms: C_22  and  C_23
REMARK   11  A    between atoms: C_22  and  C_24
REMARK   12  A    between atoms: C_26  and  C_28
REMARK                            x       y       z     vdW  Elec       q    Type
REMARK                         _______ _______ _______ _____ _____    ______ ____
ROOT
ATOM      1  C   UNL     1      -0.004   1.532   0.014  0.00  0.00    +0.062 C 
ATOM      2  C   UNL     1       0.005   0.002   0.002  0.00  0.00    +0.259 C 
ENDROOT
BRANCH   2   3
ATOM      3  C   UNL     1       0.730  -0.505   1.223  0.00  0.00    +0.258 C 
ATOM      4  O   UNL     1       1.769  -1.118   1.100  0.00  0.00    -0.271 OA
ATOM      5  N   UNL     1       0.223  -0.277   2.451  0.00  0.00    -0.282 N 
ATOM      6  H   UNL     1      -0.571   0.271   2.553  0.00  0.00    +0.155 HD
BRANCH   5   7
ATOM      7  C   UNL     1       0.843  -0.829   3.578  0.00  0.00    +0.036 A 
ATOM      8  C   UNL     1       0.077  -1.256   4.654  0.00  0.00    +0.026 A 
ATOM      9  C   UNL     1       0.690  -1.800   5.765  0.00  0.00    +0.042 A 
ATOM     10  C   UNL     1       2.069  -1.921   5.806  0.00  0.00    +0.154 A 
ATOM     11  C   UNL     1       2.836  -1.496   4.734  0.00  0.00    +0.163 A 
ATOM     12  C   UNL     1       2.225  -0.957   3.619  0.00  0.00    +0.059 A 
ATOM     13  F   UNL     1       2.668  -2.453   6.894  0.00  0.00    -0.203 F 
BRANCH  11  14
ATOM     14  N   UNL     1       4.309  -1.626   4.781  0.00  0.00    +0.059 N 
ATOM     15  O   UNL     1       4.979  -1.255   3.845  0.00  0.00    -0.126 OA
ATOM     16  O   UNL     1       4.843  -2.103   5.755  0.00  0.00    -0.126 OA
ENDBRANCH  11  14
ENDBRANCH   5   7
ENDBRANCH   2   3
BRANCH   2  17
ATOM     17  O   UNL     1       0.671  -0.462  -1.174  0.00  0.00    -0.451 OA
BRANCH  17  18
ATOM     18  C   UNL     1      -0.086  -0.661  -2.264  0.00  0.00    +0.329 C 
ATOM     19  O   UNL     1      -1.274  -0.450  -2.221  0.00  0.00    -0.249 OA
BRANCH  18  20
ATOM     20  C   UNL     1       0.547  -1.150  -3.542  0.00  0.00    +0.185 C 
BRANCH  20  21
ATOM     21  N   UNL     1      -0.482  -1.287  -4.575  0.00  0.00    -0.298 N 
ATOM     22  C   UNL     1      -0.299  -2.145  -5.598  0.00  0.00    +0.251 C 
ATOM     23  O   UNL     1       0.720  -2.806  -5.663  0.00  0.00    -0.270 OA
ATOM     24  H   UNL     1      -1.295  -0.760  -4.523  0.00  0.00    +0.150 HD
BRANCH  22  25
ATOM     25  C   UNL     1      -1.329  -2.283  -6.632  0.00  0.00    +0.074 A 
ATOM     26  C   UNL     1      -1.341  -3.102  -7.751  0.00  0.00    +0.021 A 
ATOM     27  C   UNL     1      -2.458  -3.010  -8.546  0.00  0.00    +0.008 A 
ATOM     28  C   UNL     1      -3.447  -2.151  -8.197  0.00  0.00    +0.046 A 
ATOM     29  S   UNL     1      -2.897  -1.446  -6.775  0.00  0.00    -0.092 S 
ENDBRANCH  22  25
ENDBRANCH  20  21
BRANCH  20  30
ATOM     30  C   UNL     1       1.604  -0.144  -4.004  0.00  0.00    +0.014 C 
ATOM     31  C   UNL     1       2.679  -0.001  -2.925  0.00  0.00    +0.009 C 
ATOM     32  C   UNL     1       2.246  -0.640  -5.301  0.00  0.00    +0.009 C 
ENDBRANCH  20  30
ENDBRANCH  18  20
ENDBRANCH  17  18
ENDBRANCH   2  17
TORSDOF 9
