REMARK  Name = ZINC43941539
REMARK  10 active torsions:
REMARK  status: ('A' for Active; 'I' for Inactive)
REMARK    1  A    between atoms: C_1  and  C_2
REMARK    2  A    between atoms: C_2  and  C_4
REMARK    3  A    between atoms: C_2  and  N_10
REMARK    4  A    between atoms: C_11  and  C_13
REMARK    5  A    between atoms: N_15  and  C_16
REMARK    6  A    between atoms: C_16  and  C_17
REMARK    7  A    between atoms: N_25  and  C_26
REMARK    8  A    between atoms: C_26  and  C_27
REMARK    9  A    between atoms: C_26  and  C_28
REMARK   10  A    between atoms: C_26  and  C_29
REMARK                            x       y       z     vdW  Elec       q    Type
REMARK                         _______ _______ _______ _____ _____    ______ ____
ROOT
ATOM      1  C   UNL     1       2.731  -1.056  -2.440  0.00  0.00    +0.299 C 
ATOM      2  O   UNL     1       2.088  -1.342  -3.428  0.00  0.00    -0.265 OA
ATOM      3  N   UNL     1       4.074  -1.170  -2.453  0.00  0.00    -0.307 N 
ATOM      4  H   UNL     1       4.588  -0.942  -1.663  0.00  0.00    +0.149 HD
ENDROOT
BRANCH   1   6
ATOM      5  N   UNL     1       0.691  -0.462  -1.194  0.00  0.00    -0.301 N 
ATOM      6  C   UNL     1       2.034  -0.577  -1.208  0.00  0.00    +0.299 C 
ATOM      7  O   UNL     1       2.677  -0.290  -0.219  0.00  0.00    -0.265 OA
ATOM      8  H   UNL     1       0.177  -0.691  -1.984  0.00  0.00    +0.150 HD
BRANCH   5  10
ATOM      9  C   UNL     1      -0.008   1.537   0.028  0.00  0.00    +0.033 C 
ATOM     10  C   UNL     1       0.008   0.008   0.014  0.00  0.00    +0.101 C 
BRANCH  10  11
ATOM     11  C   UNL     1      -1.407  -0.510   0.024  0.00  0.00    -0.027 A 
ATOM     12  C   UNL     1      -2.138  -0.547  -1.149  0.00  0.00    +0.005 A 
ATOM     13  C   UNL     1      -3.437  -1.021  -1.140  0.00  0.00    +0.000 A 
ATOM     14  C   UNL     1      -4.004  -1.460   0.042  0.00  0.00    +0.000 A 
ATOM     15  C   UNL     1      -3.272  -1.424   1.215  0.00  0.00    +0.000 A 
ATOM     16  C   UNL     1      -1.973  -0.953   1.205  0.00  0.00    +0.005 A 
ENDBRANCH  10  11
ENDBRANCH   5  10
ENDBRANCH   1   6
BRANCH   3  17
ATOM     17  C   UNL     1       4.757  -1.640  -3.661  0.00  0.00    +0.108 C 
BRANCH  17  18
ATOM     18  C   UNL     1       6.266  -1.678  -3.411  0.00  0.00    +0.009 C 
ATOM     19  C   UNL     1       6.780  -0.255  -3.181  0.00  0.00    +0.024 C 
ATOM     20  C   UNL     1       8.285  -0.300  -2.897  0.00  0.00    +0.109 C 
ATOM     21  N   UNL     1       8.952  -1.013  -3.995  0.00  0.00    -0.286 N 
ATOM     22  C   UNL     1       8.476  -2.354  -4.360  0.00  0.00    +0.109 C 
ATOM     23  C   UNL     1       6.969  -2.286  -4.627  0.00  0.00    +0.024 C 
ATOM     24  C   UNL     1       9.982  -0.447  -4.656  0.00  0.00    +0.303 C 
ATOM     25  O   UNL     1      10.305   0.699  -4.410  0.00  0.00    -0.253 OA
ATOM     26  N   UNL     1      10.652  -1.151  -5.589  0.00  0.00    -0.294 N 
ATOM     27  H   UNL     1      10.351  -2.039  -5.836  0.00  0.00    +0.151 HD
BRANCH  26  28
ATOM     28  C   UNL     1      11.837  -0.575  -6.230  0.00  0.00    +0.028 C 
ATOM     29  C   UNL     1      12.894  -0.270  -5.167  0.00  0.00    +0.031 C 
ATOM     30  C   UNL     1      12.405  -1.572  -7.242  0.00  0.00    +0.031 C 
ATOM     31  C   UNL     1      11.450   0.718  -6.950  0.00  0.00    +0.031 C 
ENDBRANCH  26  28
ENDBRANCH  17  18
ENDBRANCH   3  17
TORSDOF 6
