REMARK  Name = ZINC27628668
REMARK  10 active torsions:
REMARK  status: ('A' for Active; 'I' for Inactive)
REMARK    1  A    between atoms: C_1  and  C_2
REMARK    2  A    between atoms: C_6  and  C_18
REMARK    3  A    between atoms: N_8  and  C_9
REMARK    4  A    between atoms: C_14  and  N_15
REMARK    5  A    between atoms: N_20  and  C_21
REMARK    6  A    between atoms: C_21  and  C_22
REMARK    7  A    between atoms: C_22  and  C_24
REMARK    8  A    between atoms: C_22  and  C_30
REMARK    9  A    between atoms: C_30  and  C_31
REMARK   10  A    between atoms: C_30  and  C_32
REMARK                            x       y       z     vdW  Elec       q    Type
REMARK                         _______ _______ _______ _____ _____    ______ ____
ROOT
ATOM      1  C   UNL     1      -6.531   3.597  -3.720  0.00  0.00    +0.066 C 
ATOM      2  C   UNL     1      -5.780   2.492  -3.023  0.00  0.00    +0.044 A 
ATOM      3  C   UNL     1      -6.392   1.777  -2.050  0.00  0.00    +0.076 A 
ATOM      4  C   UNL     1      -5.651   0.742  -1.422  0.00  0.00    +0.213 A 
ATOM      5  O   UNL     1      -6.141   0.054  -0.540  0.00  0.00    -0.285 OA
ATOM      6  C   UNL     1      -4.267   0.536  -1.876  0.00  0.00    +0.192 A 
ATOM      7  N   UNL     1      -3.794   1.304  -2.835  0.00  0.00    -0.158 NA
ATOM      8  N   UNL     1      -4.499   2.226  -3.379  0.00  0.00    -0.234 N 
ENDROOT
BRANCH   8   9
ATOM      9  C   UNL     1      -3.917   2.996  -4.392  0.00  0.00    +0.096 A 
ATOM     10  C   UNL     1      -4.140   2.676  -5.726  0.00  0.00    +0.030 A 
ATOM     11  C   UNL     1      -3.570   3.442  -6.723  0.00  0.00    +0.002 A 
ATOM     12  C   UNL     1      -2.767   4.520  -6.395  0.00  0.00    +0.002 A 
ATOM     13  C   UNL     1      -2.538   4.838  -5.069  0.00  0.00    +0.035 A 
ATOM     14  C   UNL     1      -3.111   4.079  -4.067  0.00  0.00    +0.151 A 
BRANCH  14  15
ATOM     15  N   UNL     1      -2.866   4.421  -2.647  0.00  0.00    +0.059 N 
ATOM     16  O   UNL     1      -2.079   5.305  -2.361  0.00  0.00    -0.126 OA
ATOM     17  O   UNL     1      -3.452   3.817  -1.766  0.00  0.00    -0.126 OA
ENDBRANCH  14  15
ENDBRANCH   8   9
BRANCH   6  18
ATOM     18  C   UNL     1      -3.426  -0.516  -1.271  0.00  0.00    +0.268 C 
ATOM     19  O   UNL     1      -3.901  -1.278  -0.452  0.00  0.00    -0.268 OA
ATOM     20  N   UNL     1      -2.131  -0.632  -1.627  0.00  0.00    -0.309 N 
ATOM     21  H   UNL     1      -1.679   0.107  -2.306  0.00  0.00    +0.149 HD
BRANCH  20  22
ATOM     22  C   UNL     1      -1.325  -1.741  -1.111  0.00  0.00    +0.113 C 
BRANCH  22  23
ATOM     23  C   UNL     1       0.061  -1.709  -1.758  0.00  0.00    +0.039 C 
BRANCH  23  24
ATOM     24  C   UNL     1       0.787  -0.461  -1.328  0.00  0.00    -0.043 A 
ATOM     25  C   UNL     1       1.034  -0.232   0.013  0.00  0.00    +0.004 A 
ATOM     26  C   UNL     1       1.704   0.911   0.407  0.00  0.00    +0.000 A 
ATOM     27  C   UNL     1       2.119   1.830  -0.538  0.00  0.00    +0.000 A 
ATOM     28  C   UNL     1       1.868   1.603  -1.879  0.00  0.00    +0.000 A 
ATOM     29  C   UNL     1       1.202   0.458  -2.273  0.00  0.00    +0.004 A 
ENDBRANCH  23  24
BRANCH  23  30
ATOM     30  C   UNL     1       0.857  -2.939  -1.318  0.00  0.00    -0.008 C 
ATOM     31  C   UNL     1       2.278  -2.853  -1.878  0.00  0.00    +0.008 C 
ATOM     32  C   UNL     1       0.176  -4.203  -1.847  0.00  0.00    +0.008 C 
ENDBRANCH  23  30
ENDBRANCH  22  23
ENDBRANCH  20  22
ENDBRANCH   6  18
TORSDOF 7
