REMARK  Name = ZINC67577631
REMARK  6 active torsions:
REMARK  status: ('A' for Active; 'I' for Inactive)
REMARK    1  A    between atoms: C_1  and  C_2
REMARK    2  A    between atoms: N_4  and  C_24
REMARK    3  A    between atoms: N_10  and  C_11
REMARK    4  A    between atoms: C_11  and  C_13
REMARK    5  A    between atoms: C_11  and  C_14
REMARK    6  A    between atoms: C_21  and  C_23
REMARK                            x       y       z     vdW  Elec       q    Type
REMARK                         _______ _______ _______ _____ _____    ______ ____
ROOT
ATOM      1  C   UNL     1       0.595   1.015  -0.172  0.00  0.00    +0.049 C 
ATOM      2  C   UNL     1       0.389  -0.475  -0.070  0.00  0.00    +0.009 A 
ATOM      3  C   UNL     1       0.317  -1.341  -1.107  0.00  0.00    +0.119 A 
ATOM      4  N   UNL     1       0.126  -2.584  -0.594  0.00  0.00    -0.238 N 
ATOM      5  N   UNL     1       0.081  -2.473   0.801  0.00  0.00    -0.151 NA
ATOM      6  C   UNL     1       0.243  -1.210   1.118  0.00  0.00    +0.151 A 
ATOM      7  N   UNL     1       0.265  -0.684   2.417  0.00  0.00    -0.253 N 
ATOM      8  C   UNL     1       0.114  -1.502   3.477  0.00  0.00    +0.306 C 
ATOM      9  O   UNL     1      -0.042  -2.696   3.307  0.00  0.00    -0.252 OA
ATOM     10  N   UNL     1       0.135  -0.997   4.726  0.00  0.00    -0.288 N 
ATOM     11  H   UNL     1       0.390   0.268   2.553  0.00  0.00    +0.158 HD
ATOM     12  H   UNL     1       0.259  -0.044   4.862  0.00  0.00    +0.151 HD
ENDROOT
BRANCH   4  13
ATOM     13  C   UNL     1      -0.002  -3.769  -1.331  0.00  0.00    +0.065 A 
ATOM     14  C   UNL     1       0.068  -3.736  -2.718  0.00  0.00    +0.028 A 
ATOM     15  C   UNL     1      -0.058  -4.906  -3.442  0.00  0.00    +0.002 A 
ATOM     16  C   UNL     1      -0.254  -6.108  -2.787  0.00  0.00    +0.000 A 
ATOM     17  C   UNL     1      -0.325  -6.143  -1.407  0.00  0.00    +0.002 A 
ATOM     18  C   UNL     1      -0.194  -4.978  -0.677  0.00  0.00    +0.028 A 
ENDBRANCH   4  13
BRANCH  10  19
ATOM     19  C   UNL     1      -0.030  -1.886   5.879  0.00  0.00    +0.157 C 
ATOM     20  C   UNL     1      -1.521  -2.100   6.149  0.00  0.00    +0.038 C 
BRANCH  19  21
ATOM     21  C   UNL     1       0.615  -1.263   7.090  0.00  0.00    +0.236 C 
ATOM     22  O   UNL     1       0.902  -0.084   7.086  0.00  0.00    -0.274 OA
ATOM     23  N   UNL     1       0.873  -2.015   8.178  0.00  0.00    -0.297 N 
ATOM     24  C   UNL     1       0.631  -3.464   8.161  0.00  0.00    +0.108 C 
ATOM     25  C   UNL     1      -0.264  -3.829   9.350  0.00  0.00    +0.019 C 
ATOM     26  C   UNL     1       0.377  -3.314  10.641  0.00  0.00    +0.003 C 
ATOM     27  C   UNL     1       0.500  -1.790  10.579  0.00  0.00    +0.022 C 
ATOM     28  C   UNL     1       1.408  -1.403   9.402  0.00  0.00    +0.073 C 
ATOM     29  C   UNL     1       1.430   0.119   9.247  0.00  0.00    +0.028 C 
ENDBRANCH  19  21
ENDBRANCH  10  19
TORSDOF 3
