REMARK  Name = ZINC29768973
REMARK  8 active torsions:
REMARK  status: ('A' for Active; 'I' for Inactive)
REMARK    1  A    between atoms: C_1  and  C_2
REMARK    2  A    between atoms: C_2  and  C_3
REMARK    3  A    between atoms: C_2  and  C_4
REMARK    4  A    between atoms: C_4  and  C_6
REMARK    5  A    between atoms: C_4  and  N_11
REMARK    6  A    between atoms: C_12  and  C_14
REMARK    7  A    between atoms: C_14  and  N_15
REMARK    8  A    between atoms: C_18  and  N_26
REMARK                            x       y       z     vdW  Elec       q    Type
REMARK                         _______ _______ _______ _____ _____    ______ ____
ROOT
ATOM      1  C   UNL     1      -1.271  -4.184   1.155  0.00  0.00    +0.209 C 
ENDROOT
BRANCH   1   2
ATOM      2  N   UNL     1      -1.131  -4.678   2.527  0.00  0.00    -0.256 N 
ATOM      3  C   UNL     1       0.140  -4.896   3.079  0.00  0.00    +0.081 A 
ATOM      4  C   UNL     1       1.271  -4.362   2.483  0.00  0.00    +0.060 A 
ATOM      5  C   UNL     1       2.514  -4.589   3.043  0.00  0.00    +0.128 A 
ATOM      6  C   UNL     1       2.631  -5.347   4.194  0.00  0.00    +0.036 A 
ATOM      7  C   UNL     1       1.505  -5.882   4.793  0.00  0.00    +0.050 A 
ATOM      8  C   UNL     1       0.257  -5.658   4.239  0.00  0.00    +0.143 A 
ATOM      9  O   UNL     1      -0.861  -6.174   4.817  0.00  0.00    -0.481 OA
ATOM     10  C   UNL     1      -2.059  -5.401   4.702  0.00  0.00    +0.325 C 
ATOM     11  C   UNL     1      -2.224  -4.926   3.281  0.00  0.00    +0.258 C 
ATOM     12  O   UNL     1      -3.333  -4.769   2.817  0.00  0.00    -0.271 OA
BRANCH   5  13
ATOM     13  N   UNL     1       3.724  -4.020   2.409  0.00  0.00    +0.056 N 
ATOM     14  O   UNL     1       3.624  -3.357   1.403  0.00  0.00    -0.126 OA
ATOM     15  O   UNL     1       4.813  -4.217   2.897  0.00  0.00    -0.126 OA
ENDBRANCH   5  13
ENDBRANCH   1   2
BRANCH   1  17
ATOM     16  N   UNL     1      -1.413  -1.998   0.005  0.00  0.00    -0.306 N 
ATOM     17  C   UNL     1      -1.292  -2.677   1.163  0.00  0.00    +0.231 C 
ATOM     18  O   UNL     1      -1.198  -2.075   2.212  0.00  0.00    -0.274 OA
ATOM     19  H   UNL     1      -1.488  -2.480  -0.834  0.00  0.00    +0.149 HD
BRANCH  16  20
ATOM     20  C   UNL     1      -1.433  -0.534   0.013  0.00  0.00    +0.112 C 
BRANCH  20  21
ATOM     21  C   UNL     1      -2.162  -0.034  -1.208  0.00  0.00    +0.010 A 
ATOM     22  C   UNL     1      -3.027   1.003  -1.321  0.00  0.00    +0.013 A 
ATOM     23  C   UNL     1      -3.582   1.282  -2.556  0.00  0.00    +0.008 A 
ATOM     24  C   UNL     1      -3.244   0.510  -3.618  0.00  0.00    +0.045 A 
ATOM     25  S   UNL     1      -2.104  -0.651  -2.882  0.00  0.00    -0.100 S 
ENDBRANCH  20  21
BRANCH  20  27
ATOM     26  C   UNL     1      -0.019   1.526   0.010  0.00  0.00    +0.009 C 
ATOM     27  C   UNL     1       0.002  -0.004   0.002  0.00  0.00    +0.008 C 
ATOM     28  C   UNL     1       0.742  -0.511   1.242  0.00  0.00    +0.009 C 
ENDBRANCH  20  27
ENDBRANCH  16  20
ENDBRANCH   1  17
TORSDOF 6
