REMARK  Name = ZINC24582660
REMARK  8 active torsions:
REMARK  status: ('A' for Active; 'I' for Inactive)
REMARK    1  A    between atoms: C_1  and  C_2
REMARK    2  A    between atoms: C_2  and  C_3
REMARK    3  A    between atoms: N_10  and  N_13
REMARK    4  A    between atoms: C_14  and  C_16
REMARK    5  A    between atoms: C_16  and  C_17
REMARK    6  A    between atoms: C_17  and  N_18
REMARK    7  A    between atoms: N_18  and  S_19
REMARK    8  A    between atoms: S_19  and  C_22
REMARK                            x       y       z     vdW  Elec       q    Type
REMARK                         _______ _______ _______ _____ _____    ______ ____
ROOT
ATOM      1  C   UNL     1      -1.622   3.491  -3.009  0.00  0.00    +0.114 C 
ENDROOT
BRANCH   1   3
ATOM      2  N   UNL     1      -2.298   5.356  -4.487  0.00  0.00    -0.219 N 
ATOM      3  C   UNL     1      -1.855   4.955  -3.279  0.00  0.00    +0.232 C 
ATOM      4  O   UNL     1      -1.645   5.772  -2.408  0.00  0.00    -0.274 OA
ATOM      5  H   UNL     1      -2.489   4.614  -5.276  0.00  0.00    +0.176 HD
BRANCH   2  13
ATOM      6  C   UNL     1      -5.197  10.637  -5.383  0.00  0.00    -0.008 A 
ATOM      7  C   UNL     1      -5.234   9.319  -5.132  0.00  0.00    +0.026 A 
ATOM      8  C   UNL     1      -3.989   8.580  -5.037  0.00  0.00    +0.074 A 
ATOM      9  C   UNL     1      -2.826   9.348  -5.224  0.00  0.00    +0.115 A 
ATOM     10  S   UNL     1      -3.452  10.983  -5.511  0.00  0.00    -0.073 S 
ATOM     11  N   UNL     1      -1.611   8.810  -5.166  0.00  0.00    -0.228 NA
ATOM     12  C   UNL     1      -1.450   7.536  -4.931  0.00  0.00    +0.223 A 
ATOM     13  N   UNL     1      -2.515   6.717  -4.737  0.00  0.00    -0.212 N 
ATOM     14  C   UNL     1      -3.776   7.185  -4.786  0.00  0.00    +0.279 A 
ATOM     15  O   UNL     1      -4.722   6.436  -4.615  0.00  0.00    -0.265 OA
BRANCH   6  17
ATOM     16  C   UNL     1      -6.691  12.187  -4.152  0.00  0.00    +0.009 C 
ATOM     17  C   UNL     1      -6.352  11.595  -5.522  0.00  0.00    +0.039 C 
ENDBRANCH   6  17
ENDBRANCH   2  13
ENDBRANCH   1   3
BRANCH   1  18
ATOM     18  C   UNL     1      -1.125   3.309  -1.574  0.00  0.00    +0.115 C 
BRANCH  18  19
ATOM     19  N   UNL     1      -0.897   1.885  -1.312  0.00  0.00    -0.189 NA
ATOM     20  H   UNL     1      -1.442   1.126  -1.892  0.00  0.00    +0.148 HD
BRANCH  19  21
ATOM     21  S   UNL     1      -0.017   1.417   0.010  0.00  0.00    +0.059 S 
ATOM     22  O   UNL     1       0.002  -0.004   0.002  0.00  0.00    -0.153 OA
ATOM     23  O   UNL     1       1.172   2.195   0.003  0.00  0.00    -0.153 OA
BRANCH  21  24
ATOM     24  C   UNL     1      -0.927   1.900   1.439  0.00  0.00    +0.109 A 
ATOM     25  C   UNL     1      -0.715   3.145   2.002  0.00  0.00    +0.032 A 
ATOM     26  C   UNL     1      -1.429   3.534   3.122  0.00  0.00    +0.051 A 
ATOM     27  C   UNL     1      -2.350   2.666   3.683  0.00  0.00    +0.162 A 
ATOM     28  C   UNL     1      -2.559   1.414   3.122  0.00  0.00    +0.164 A 
ATOM     29  C   UNL     1      -1.846   1.030   1.998  0.00  0.00    +0.078 A 
ATOM     30  O   UNL     1      -3.469   0.567   3.683  0.00  0.00    -0.488 OA
ATOM     31  C   UNL     1      -3.130   0.048   4.970  0.00  0.00    +0.232 C 
ATOM     32  C   UNL     1      -3.529   1.024   6.067  0.00  0.00    +0.082 C 
ATOM     33  C   UNL     1      -2.750   2.328   5.993  0.00  0.00    +0.232 C 
ATOM     34  O   UNL     1      -3.058   3.035   4.790  0.00  0.00    -0.488 OA
ENDBRANCH  21  24
ENDBRANCH  19  21
ENDBRANCH  18  19
ENDBRANCH   1  18
TORSDOF 7
