REMARK  Name = ZINC04393135
REMARK  13 active torsions:
REMARK  status: ('A' for Active; 'I' for Inactive)
REMARK    1  A    between atoms: C_1  and  C_2
REMARK    2  A    between atoms: C_2  and  C_3
REMARK    3  A    between atoms: C_2  and  C_4
REMARK    4  A    between atoms: C_2  and  N_72
REMARK    5  A    between atoms: N_6  and  C_7
REMARK    6  A    between atoms: C_7  and  C_9
REMARK    7  A    between atoms: C_7  and  C_18
REMARK    8  A    between atoms: C_9  and  O_10
REMARK    9  A    between atoms: O_10  and  C_11
REMARK   10  A    between atoms: C_11  and  C_12
REMARK   11  A    between atoms: N_25  and  C_37
REMARK   12  A    between atoms: C_28  and  C_30
REMARK   13  A    between atoms: C_30  and  C_31
REMARK                            x       y       z     vdW  Elec       q    Type
REMARK                         _______ _______ _______ _____ _____    ______ ____
ROOT
ATOM      1  C   UNL     1      -1.995   3.698   2.466  0.00  0.00    +0.185 C 
ENDROOT
BRANCH   1   2
ATOM      2  C   UNL     1      -3.115   2.751   2.810  0.00  0.00    +0.238 C 
ATOM      3  O   UNL     1      -3.111   1.621   2.371  0.00  0.00    -0.273 OA
ATOM      4  N   UNL     1      -4.123   3.160   3.607  0.00  0.00    -0.298 N 
ATOM      5  C   UNL     1      -4.120   4.529   4.133  0.00  0.00    +0.114 C 
ATOM      6  C   UNL     1      -5.415   5.246   3.710  0.00  0.00    +0.072 C 
ATOM      7  C   UNL     1      -6.546   4.279   3.969  0.00  0.00    +0.055 C 
ATOM      8  N   UNL     1      -7.619   4.425   4.618  0.00  0.00    -0.186 NA
ATOM      9  N   UNL     1      -8.361   3.248   4.714  0.00  0.00    -0.196 N 
ATOM     10  C   UNL     1      -7.727   2.223   4.098  0.00  0.00    +0.248 C 
ATOM     11  O   UNL     1      -8.055   1.055   4.080  0.00  0.00    -0.273 OA
ATOM     12  C   UNL     1      -6.523   2.850   3.441  0.00  0.00    +0.108 C 
ATOM     13  C   UNL     1      -5.216   2.230   3.933  0.00  0.00    +0.130 C 
ATOM     14  C   UNL     1      -9.654   3.135   5.392  0.00  0.00    +0.161 C 
BRANCH  12  15
ATOM     15  C   UNL     1      -6.636   2.812   1.915  0.00  0.00    +0.059 C 
BRANCH  15  16
ATOM     16  C   UNL     1      -7.923   3.471   1.490  0.00  0.00    -0.046 A 
ATOM     17  C   UNL     1      -9.074   2.717   1.357  0.00  0.00    +0.003 A 
ATOM     18  C   UNL     1     -10.256   3.322   0.972  0.00  0.00    +0.000 A 
ATOM     19  C   UNL     1     -10.284   4.678   0.710  0.00  0.00    +0.000 A 
ATOM     20  C   UNL     1      -9.132   5.431   0.837  0.00  0.00    +0.000 A 
ATOM     21  C   UNL     1      -7.951   4.827   1.227  0.00  0.00    +0.003 A 
ENDBRANCH  15  16
ENDBRANCH  12  15
ENDBRANCH   1   2
BRANCH   1  24
ATOM     22  C   UNL     1      -0.724   2.012   1.250  0.00  0.00    +0.202 C 
ATOM     23  O   UNL     1      -0.765   1.310   2.239  0.00  0.00    -0.277 OA
ATOM     24  N   UNL     1      -1.309   3.226   1.261  0.00  0.00    -0.303 N 
ATOM     25  H   UNL     1      -1.276   3.787   0.470  0.00  0.00    +0.149 HD
BRANCH  22  27
ATOM     26  C   UNL     1       0.002  -0.004   0.002  0.00  0.00    -0.001 C 
ATOM     27  C   UNL     1      -0.019   1.526   0.010  0.00  0.00    +0.001 C 
ATOM     28  C   UNL     1       1.417   2.055  -0.000  0.00  0.00    -0.001 C 
BRANCH  27  31
ATOM     29  H   UNL     1      -1.680   1.676  -1.196  0.00  0.00    -0.089 HD
ATOM     30  H   UNL     1      -0.701   3.020  -1.231  0.00  0.00    -0.089 HD
ATOM     31  N   UNL     1      -0.715   2.002  -1.198  0.00  0.00    +0.387 N 
ATOM     32  H   UNL     1      -0.239   1.633  -2.029  0.00  0.00    -0.089 HD
ENDBRANCH  27  31
ENDBRANCH  22  27
ENDBRANCH   1  24
BRANCH   1  33
ATOM     33  C   UNL     1      -1.001   3.757   3.628  0.00  0.00    +0.192 C 
BRANCH  33  34
ATOM     34  O   UNL     1      -0.002   4.740   3.352  0.00  0.00    -0.373 OA
BRANCH  34  35
ATOM     35  C   UNL     1       0.981   4.876   4.380  0.00  0.00    +0.195 C 
BRANCH  35  36
ATOM     36  C   UNL     1       1.978   5.934   3.985  0.00  0.00    -0.022 A 
ATOM     37  C   UNL     1       3.112   5.584   3.276  0.00  0.00    +0.006 A 
ATOM     38  C   UNL     1       4.025   6.556   2.909  0.00  0.00    +0.000 A 
ATOM     39  C   UNL     1       3.809   7.875   3.262  0.00  0.00    +0.000 A 
ATOM     40  C   UNL     1       2.678   8.223   3.976  0.00  0.00    +0.000 A 
ATOM     41  C   UNL     1       1.763   7.253   4.338  0.00  0.00    +0.006 A 
ENDBRANCH  35  36
ENDBRANCH  34  35
ENDBRANCH  33  34
ENDBRANCH   1  33
TORSDOF 10
