REMARK  Name = ZINC29888367
REMARK  7 active torsions:
REMARK  status: ('A' for Active; 'I' for Inactive)
REMARK    1  A    between atoms: C_1  and  C_2
REMARK    2  A    between atoms: C_2  and  C_3
REMARK    3  A    between atoms: C_3  and  S_4
REMARK    4  A    between atoms: S_4  and  N_7
REMARK    5  A    between atoms: N_7  and  C_8
REMARK    6  A    between atoms: C_12  and  C_14
REMARK    7  A    between atoms: C_22  and  N_25
REMARK                            x       y       z     vdW  Elec       q    Type
REMARK                         _______ _______ _______ _____ _____    ______ ____
ROOT
ATOM      1  C   UNL     1      -4.873   1.882   0.221  0.00  0.00    +0.048 A 
ATOM      2  C   UNL     1      -5.012   0.501   0.315  0.00  0.00    +0.024 A 
ATOM      3  C   UNL     1      -3.894  -0.312   0.311  0.00  0.00    +0.003 A 
ATOM      4  C   UNL     1      -2.633   0.240   0.216  0.00  0.00    +0.013 A 
ATOM      5  C   UNL     1      -2.482   1.625   0.121  0.00  0.00    +0.039 A 
ATOM      6  C   UNL     1      -3.610   2.446   0.130  0.00  0.00    +0.037 A 
ENDROOT
BRANCH   5   7
ATOM      7  C   UNL     1      -1.133   2.219   0.020  0.00  0.00    +0.251 C 
ATOM      8  O   UNL     1      -0.223   1.781   0.698  0.00  0.00    -0.270 OA
ATOM      9  N   UNL     1      -0.910   3.245  -0.825  0.00  0.00    -0.267 N 
ATOM     10  C   UNL     1      -1.891   3.782  -1.771  0.00  0.00    +0.118 C 
ATOM     11  C   UNL     1      -1.169   4.933  -2.491  0.00  0.00    +0.056 C 
ATOM     12  C   UNL     1       0.211   4.960  -1.875  0.00  0.00    -0.024 A 
ATOM     13  C   UNL     1       0.289   3.957  -0.921  0.00  0.00    +0.042 A 
ATOM     14  C   UNL     1       1.479   3.787  -0.212  0.00  0.00    +0.056 A 
ATOM     15  C   UNL     1       2.560   4.605  -0.462  0.00  0.00    +0.128 A 
ATOM     16  C   UNL     1       2.473   5.602  -1.415  0.00  0.00    +0.033 A 
ATOM     17  C   UNL     1       1.297   5.778  -2.121  0.00  0.00    +0.008 A 
BRANCH  15  18
ATOM     18  N   UNL     1       3.818   4.416   0.295  0.00  0.00    +0.056 N 
ATOM     19  O   UNL     1       4.774   5.138   0.076  0.00  0.00    -0.126 OA
ATOM     20  O   UNL     1       3.897   3.538   1.135  0.00  0.00    -0.126 OA
ENDBRANCH  15  18
ENDBRANCH   5   7
BRANCH   1  21
ATOM     21  N   UNL     1      -6.005   2.700   0.225  0.00  0.00    -0.221 N 
ATOM     22  H   UNL     1      -6.091   3.524  -0.499  0.00  0.00    +0.173 HD
BRANCH  21  23
ATOM     23  S   UNL     1      -7.219   2.429   1.318  0.00  0.00    +0.043 S 
ATOM     24  O   UNL     1      -8.200   3.413   1.022  0.00  0.00    -0.155 OA
ATOM     25  O   UNL     1      -7.519   1.045   1.192  0.00  0.00    -0.155 OA
BRANCH  23  26
ATOM     26  C   UNL     1      -6.470   2.760   2.937  0.00  0.00    +0.188 C 
BRANCH  26  28
ATOM     27  C   UNL     1      -6.881   2.818   5.401  0.00  0.00    +0.005 C 
ATOM     28  C   UNL     1      -7.512   2.539   4.036  0.00  0.00    +0.021 C 
ENDBRANCH  26  28
ENDBRANCH  23  26
ENDBRANCH  21  23
ENDBRANCH   1  21
TORSDOF 6
