REMARK  Name = ZINC19114113
REMARK  8 active torsions:
REMARK  status: ('A' for Active; 'I' for Inactive)
REMARK    1  A    between atoms: C_1  and  C_2
REMARK    2  A    between atoms: C_5  and  C_7
REMARK    3  A    between atoms: C_7  and  N_8
REMARK    4  A    between atoms: C_14  and  C_16
REMARK    5  A    between atoms: C_16  and  C_17
REMARK    6  A    between atoms: N_19  and  C_20
REMARK    7  A    between atoms: N_19  and  C_21
REMARK    8  A    between atoms: C_21  and  C_22
REMARK                            x       y       z     vdW  Elec       q    Type
REMARK                         _______ _______ _______ _____ _____    ______ ____
ROOT
ATOM      1  C   UNL     1       1.454  -6.890  -0.950  0.00  0.00    +0.124 C 
ENDROOT
BRANCH   1   8
ATOM      2  N   UNL     1       3.476  -5.523  -1.133  0.00  0.00    -0.282 NA
ATOM      3  C   UNL     1       4.081  -4.328  -1.742  0.00  0.00    +0.104 C 
ATOM      4  C   UNL     1       3.269  -3.100  -1.327  0.00  0.00    +0.119 C 
ATOM      5  N   UNL     1       1.849  -3.332  -1.577  0.00  0.00    -0.313 N 
ATOM      6  C   UNL     1       1.332  -4.552  -1.753  0.00  0.00    +0.231 C 
ATOM      7  O   UNL     1       0.136  -4.657  -1.925  0.00  0.00    -0.274 OA
ATOM      8  C   UNL     1       2.171  -5.799  -1.748  0.00  0.00    +0.152 C 
ATOM      9  H   UNL     1       1.254  -2.567  -1.616  0.00  0.00    +0.149 HD
BRANCH   2  10
ATOM     10  C   UNL     1       4.369  -6.684  -1.250  0.00  0.00    +0.159 C 
BRANCH  10  15
ATOM     11  C   UNL     1       8.939  -5.552   0.560  0.00  0.00    +0.086 C 
ATOM     12  C   UNL     1       7.513  -6.034   0.490  0.00  0.00    +0.102 A 
ATOM     13  C   UNL     1       6.806  -6.549   1.511  0.00  0.00    +0.044 A 
ATOM     14  C   UNL     1       5.524  -6.866   1.004  0.00  0.00    +0.046 A 
ATOM     15  C   UNL     1       5.526  -6.526  -0.297  0.00  0.00    +0.119 A 
ATOM     16  O   UNL     1       6.730  -6.017  -0.602  0.00  0.00    -0.464 OA
ENDBRANCH  10  15
ENDBRANCH   2  10
ENDBRANCH   1   8
BRANCH   1  17
ATOM     17  C   UNL     1       1.240  -6.418   0.466  0.00  0.00    +0.218 C 
ATOM     18  O   UNL     1       1.712  -5.362   0.831  0.00  0.00    -0.276 OA
ATOM     19  N   UNL     1       0.524  -7.170   1.325  0.00  0.00    -0.299 N 
ATOM     20  C   UNL     1       0.058  -8.500   0.924  0.00  0.00    +0.132 C 
BRANCH  19  21
ATOM     21  C   UNL     1       0.211  -6.657   2.662  0.00  0.00    +0.164 C 
BRANCH  21  22
ATOM     22  C   UNL     1      -1.145  -6.000   2.643  0.00  0.00    +0.083 A 
ATOM     23  C   UNL     1      -1.392  -4.638   2.489  0.00  0.00    -0.002 A 
ATOM     24  C   UNL     1      -2.736  -4.448   2.527  0.00  0.00    +0.040 A 
ATOM     25  N   UNL     1      -3.316  -5.648   2.696  0.00  0.00    -0.281 N 
ATOM     26  H   UNL     1      -4.269  -5.818   2.757  0.00  0.00    +0.189 HD
ATOM     27  N   UNL     1      -2.298  -6.611   2.762  0.00  0.00    -0.177 NA
ATOM     28  C   UNL     1      -3.404  -3.102   2.398  0.00  0.00    +0.055 C 
ATOM     29  C   UNL     1      -2.351  -2.014   2.640  0.00  0.00    +0.006 C 
ATOM     30  C   UNL     1      -1.119  -2.292   1.774  0.00  0.00    +0.005 C 
ATOM     31  C   UNL     1      -0.386  -3.528   2.309  0.00  0.00    +0.039 C 
ENDBRANCH  21  22
ENDBRANCH  19  21
ENDBRANCH   1  17
TORSDOF 6
