REMARK  Name = ZINC64674374
REMARK  7 active torsions:
REMARK  status: ('A' for Active; 'I' for Inactive)
REMARK    1  A    between atoms: C_7  and  C_10
REMARK    2  A    between atoms: C_10  and  C_11
REMARK    3  A    between atoms: C_11  and  C_12
REMARK    4  A    between atoms: N_14  and  N_15
REMARK    5  A    between atoms: C_16  and  C_18
REMARK    6  A    between atoms: C_18  and  N_19
REMARK    7  A    between atoms: C_27  and  C_29
REMARK                            x       y       z     vdW  Elec       q    Type
REMARK                         _______ _______ _______ _____ _____    ______ ____
ROOT
ATOM      1  N   UNL     1      -1.712  -6.507  -2.622  0.00  0.00    -0.233 N 
ATOM      2  C   UNL     1      -2.064  -7.090  -3.785  0.00  0.00    +0.246 C 
ATOM      3  O   UNL     1      -1.624  -6.667  -4.833  0.00  0.00    -0.273 OA
ATOM      4  H   UNL     1      -2.064  -6.846  -1.784  0.00  0.00    +0.173 HD
ENDROOT
BRANCH   1   7
ATOM      5  C   UNL     1      -0.484  -4.830  -1.460  0.00  0.00    +0.229 C 
ATOM      6  O   UNL     1      -0.925  -5.254  -0.412  0.00  0.00    -0.274 OA
ATOM      7  N   UNL     1      -0.837  -5.413  -2.623  0.00  0.00    -0.234 N 
ATOM      8  H   UNL     1      -0.485  -5.075  -3.461  0.00  0.00    +0.173 HD
BRANCH   5   9
ATOM      9  C   UNL     1       0.457  -3.653  -1.462  0.00  0.00    +0.102 C 
BRANCH   9  10
ATOM     10  C   UNL     1       0.691  -3.186  -0.024  0.00  0.00    +0.042 C 
BRANCH  10  17
ATOM     11  C   UNL     1      -0.016   1.348   0.009  0.00  0.00    +0.001 A 
ATOM     12  C   UNL     1       1.166   2.101   0.002  0.00  0.00    +0.002 A 
ATOM     13  C   UNL     1       2.391   1.535  -0.013  0.00  0.00    +0.026 A 
ATOM     14  C   UNL     1       2.529   0.120  -0.022  0.00  0.00    +0.043 A 
ATOM     15  N   UNL     1       3.587  -0.654  -0.037  0.00  0.00    -0.380 N 
ATOM     16  C   UNL     1       3.143  -2.053  -0.041  0.00  0.00    +0.144 C 
ATOM     17  C   UNL     1       1.631  -2.008  -0.025  0.00  0.00    -0.041 C 
ATOM     18  C   UNL     1       1.295  -0.698  -0.014  0.00  0.00    -0.001 A 
ATOM     19  C   UNL     1       0.002  -0.004   0.002  0.00  0.00    +0.010 A 
ATOM     20  H   UNL     1       4.509  -0.353  -0.045  0.00  0.00    +0.160 HD
ENDBRANCH  10  17
ENDBRANCH   9  10
ENDBRANCH   5   9
ENDBRANCH   1   7
BRANCH   2  21
ATOM     21  C   UNL     1      -3.005  -8.267  -3.783  0.00  0.00    +0.204 C 
BRANCH  21  22
ATOM     22  N   UNL     1      -3.229  -8.715  -5.160  0.00  0.00    -0.294 N 
ATOM     23  C   UNL     1      -4.232  -8.262  -6.028  0.00  0.00    +0.053 A 
ATOM     24  C   UNL     1      -5.234  -7.317  -5.835  0.00  0.00    +0.025 A 
ATOM     25  C   UNL     1      -6.123  -7.032  -6.853  0.00  0.00    +0.002 A 
ATOM     26  C   UNL     1      -6.021  -7.684  -8.068  0.00  0.00    +0.002 A 
ATOM     27  C   UNL     1      -5.028  -8.624  -8.269  0.00  0.00    +0.025 A 
ATOM     28  C   UNL     1      -4.129  -8.918  -7.251  0.00  0.00    +0.050 A 
ATOM     29  N   UNL     1      -3.055  -9.819  -7.217  0.00  0.00    -0.317 N 
ATOM     30  C   UNL     1      -2.441  -9.717  -5.888  0.00  0.00    +0.266 C 
ATOM     31  H   UNL     1      -2.769 -10.399  -7.939  0.00  0.00    +0.148 HD
BRANCH  30  32
ATOM     32  C   UNL     1      -2.513 -11.067  -5.171  0.00  0.00    +0.424 C 
ATOM     33  F   UNL     1      -3.845 -11.491  -5.107  0.00  0.00    -0.167 F 
ATOM     34  F   UNL     1      -1.758 -12.010  -5.877  0.00  0.00    -0.167 F 
ATOM     35  F   UNL     1      -2.002 -10.935  -3.876  0.00  0.00    -0.167 F 
ENDBRANCH  30  32
ENDBRANCH  21  22
ENDBRANCH   2  21
TORSDOF 7
