REMARK  Name = ZINC24295894
REMARK  15 active torsions:
REMARK  status: ('A' for Active; 'I' for Inactive)
REMARK    1  A    between atoms: C_1  and  C_2
REMARK    2  A    between atoms: C_2  and  C_4
REMARK    3  A    between atoms: C_2  and  O_28
REMARK    4  A    between atoms: N_6  and  N_7
REMARK    5  A    between atoms: C_8  and  C_10
REMARK    6  A    between atoms: C_10  and  C_12
REMARK    7  A    between atoms: C_10  and  N_15
REMARK    8  A    between atoms: C_12  and  C_13
REMARK    9  A    between atoms: C_12  and  C_14
REMARK   10  A    between atoms: C_16  and  C_18
REMARK   11  A    between atoms: C_20  and  O_26
REMARK   12  A    between atoms: C_22  and  O_24
REMARK   13  A    between atoms: O_24  and  C_25
REMARK   14  A    between atoms: O_26  and  C_27
REMARK   15  A    between atoms: O_28  and  C_29
REMARK                            x       y       z     vdW  Elec       q    Type
REMARK                         _______ _______ _______ _____ _____    ______ ____
ROOT
ATOM      1  N   UNL     1      -3.214  -1.438   1.879  0.00  0.00    -0.233 N 
ATOM      2  C   UNL     1      -4.313  -0.911   2.453  0.00  0.00    +0.250 C 
ATOM      3  O   UNL     1      -4.233   0.124   3.079  0.00  0.00    -0.272 OA
ATOM      4  H   UNL     1      -3.290  -2.225   1.317  0.00  0.00    +0.173 HD
ENDROOT
BRANCH   1   7
ATOM      5  C   UNL     1      -0.861  -1.377   1.519  0.00  0.00    +0.270 C 
ATOM      6  O   UNL     1      -0.956  -2.361   0.817  0.00  0.00    -0.270 OA
ATOM      7  N   UNL     1      -1.960  -0.850   2.094  0.00  0.00    -0.231 N 
ATOM      8  H   UNL     1      -1.884  -0.063   2.656  0.00  0.00    +0.173 HD
BRANCH   5  10
ATOM      9  C   UNL     1       0.504   0.658   1.137  0.00  0.00    +0.062 C 
ATOM     10  C   UNL     1       0.487  -0.744   1.750  0.00  0.00    +0.257 C 
BRANCH  10  11
ATOM     11  O   UNL     1       1.500  -1.544   1.138  0.00  0.00    -0.480 OA
BRANCH  11  12
ATOM     12  C   UNL     1       2.759  -1.435   1.639  0.00  0.00    +0.122 A 
ATOM     13  C   UNL     1       3.004  -0.613   2.729  0.00  0.00    +0.048 A 
ATOM     14  C   UNL     1       4.284  -0.503   3.238  0.00  0.00    +0.042 A 
ATOM     15  C   UNL     1       5.322  -1.214   2.660  0.00  0.00    +0.124 A 
ATOM     16  C   UNL     1       5.079  -2.035   1.572  0.00  0.00    +0.042 A 
ATOM     17  C   UNL     1       3.799  -2.152   1.066  0.00  0.00    +0.048 A 
ATOM     18  F   UNL     1       6.573  -1.106   3.158  0.00  0.00    -0.205 F 
ENDBRANCH  11  12
ENDBRANCH  10  11
ENDBRANCH   5  10
ENDBRANCH   1   7
BRANCH   2  19
ATOM     19  C   UNL     1      -5.642  -1.609   2.318  0.00  0.00    +0.163 C 
BRANCH  19  20
ATOM     20  N   UNL     1      -6.479  -1.295   3.478  0.00  0.00    -0.300 N 
ATOM     21  C   UNL     1      -7.458  -2.143   3.852  0.00  0.00    +0.245 C 
ATOM     22  O   UNL     1      -7.646  -3.167   3.226  0.00  0.00    -0.270 OA
ATOM     23  H   UNL     1      -6.328  -0.477   3.978  0.00  0.00    +0.150 HD
BRANCH  21  24
ATOM     24  C   UNL     1      -8.302  -1.826   5.024  0.00  0.00    +0.044 A 
ATOM     25  C   UNL     1      -8.091  -0.648   5.740  0.00  0.00    +0.059 A 
ATOM     26  C   UNL     1      -8.885  -0.355   6.837  0.00  0.00    +0.124 A 
ATOM     27  C   UNL     1      -9.889  -1.232   7.223  0.00  0.00    +0.091 A 
ATOM     28  C   UNL     1     -10.102  -2.405   6.514  0.00  0.00    +0.124 A 
ATOM     29  C   UNL     1      -9.316  -2.702   5.412  0.00  0.00    +0.059 A 
BRANCH  28  30
ATOM     30  O   UNL     1     -11.086  -3.260   6.896  0.00  0.00    -0.495 OA
ATOM     31  C   UNL     1     -11.862  -2.888   8.037  0.00  0.00    +0.277 C 
ENDBRANCH  28  30
BRANCH  26  32
ATOM     32  O   UNL     1      -8.681   0.792   7.536  0.00  0.00    -0.495 OA
ATOM     33  C   UNL     1      -9.536   1.031   8.656  0.00  0.00    +0.277 C 
ENDBRANCH  26  32
ENDBRANCH  21  24
ENDBRANCH  19  20
BRANCH  19  34
ATOM     34  C   UNL     1      -6.340  -1.132   1.042  0.00  0.00    +0.012 C 
ATOM     35  C   UNL     1      -5.426  -1.375  -0.161  0.00  0.00    +0.009 C 
ATOM     36  C   UNL     1      -7.646  -1.908   0.855  0.00  0.00    +0.009 C 
ENDBRANCH  19  34
ENDBRANCH   2  19
TORSDOF 10
