REMARK  Name = ZINC35375064
REMARK  8 active torsions:
REMARK  status: ('A' for Active; 'I' for Inactive)
REMARK    1  A    between atoms: C_1  and  C_2
REMARK    2  A    between atoms: C_2  and  C_3
REMARK    3  A    between atoms: C_3  and  C_5
REMARK    4  A    between atoms: C_3  and  C_6
REMARK    5  A    between atoms: C_6  and  N_7
REMARK    6  A    between atoms: C_8  and  C_10
REMARK    7  A    between atoms: N_23  and  C_24
REMARK    8  A    between atoms: C_27  and  C_30
REMARK                            x       y       z     vdW  Elec       q    Type
REMARK                         _______ _______ _______ _____ _____    ______ ____
ROOT
ATOM      1  C   UNL     1       2.200  -4.284  -4.298  0.00  0.00    +0.028 C 
ATOM      2  C   UNL     1       3.429  -3.671  -5.032  0.00  0.00    +0.061 C 
ATOM      3  S   UNL     1       3.470  -4.807  -6.492  0.00  0.00    -0.174 S 
ATOM      4  C   UNL     1       2.791  -6.291  -5.645  0.00  0.00    -0.016 C 
ATOM      5  N   UNL     1       2.203  -5.746  -4.412  0.00  0.00    +0.397 N 
ATOM      6  C   UNL     1       3.921  -7.261  -5.332  0.00  0.00    +0.017 C 
ATOM      7  C   UNL     1       3.355  -8.489  -4.609  0.00  0.00    +0.109 C 
ATOM      8  N   UNL     1       2.258  -9.045  -5.413  0.00  0.00    -0.285 N 
ATOM      9  C   UNL     1       1.151  -8.163  -5.808  0.00  0.00    +0.109 C 
ATOM     10  C   UNL     1       1.729  -6.937  -6.523  0.00  0.00    +0.017 C 
ATOM     11  C   UNL     1       2.268 -10.341  -5.784  0.00  0.00    +0.306 C 
ATOM     12  O   UNL     1       3.235 -11.036  -5.537  0.00  0.00    -0.252 OA
ATOM     13  N   UNL     1       1.207 -10.866  -6.427  0.00  0.00    -0.269 N 
ATOM     14  H   UNL     1       2.712  -6.122  -3.626  0.00  0.00    -0.083 HD
ATOM     15  H   UNL     1       0.481 -10.291  -6.714  0.00  0.00    +0.156 HD
ATOM     16  H   UNL     1       1.248  -6.069  -4.350  0.00  0.00    -0.083 HD
ENDROOT
BRANCH  13  17
ATOM     17  C   UNL     1       1.153 -12.241  -6.680  0.00  0.00    +0.035 A 
ATOM     18  C   UNL     1       1.705 -13.138  -5.776  0.00  0.00    +0.023 A 
ATOM     19  C   UNL     1       1.650 -14.495  -6.028  0.00  0.00    +0.005 A 
ATOM     20  C   UNL     1       1.045 -14.960  -7.181  0.00  0.00    -0.050 A 
ATOM     21  C   UNL     1       0.494 -14.070  -8.085  0.00  0.00    +0.005 A 
ATOM     22  C   UNL     1       0.541 -12.712  -7.835  0.00  0.00    +0.023 A 
ATOM     23  C   UNL     1       0.986 -16.441  -7.454  0.00  0.00    +0.044 C 
ENDBRANCH  13  17
BRANCH   1  25
ATOM     24  N   UNL     1       2.228  -2.599  -2.487  0.00  0.00    -0.316 N 
ATOM     25  C   UNL     1       2.249  -3.899  -2.842  0.00  0.00    +0.200 C 
ATOM     26  O   UNL     1       2.307  -4.760  -1.989  0.00  0.00    -0.278 OA
ATOM     27  H   UNL     1       2.182  -1.911  -3.170  0.00  0.00    +0.149 HD
BRANCH  24  28
ATOM     28  C   UNL     1       2.276  -2.225  -1.072  0.00  0.00    +0.107 C 
BRANCH  28  29
ATOM     29  C   UNL     1       2.240  -0.701  -0.945  0.00  0.00    +0.003 C 
ATOM     30  C   UNL     1       3.507  -0.108  -1.564  0.00  0.00    +0.009 C 
BRANCH  29  32
ATOM     31  C   UNL     1       2.003   1.203   0.655  0.00  0.00    +0.004 C 
ATOM     32  C   UNL     1       2.164  -0.313   0.533  0.00  0.00    +0.001 C 
ENDBRANCH  29  32
ENDBRANCH  28  29
ENDBRANCH  24  28
ENDBRANCH   1  25
TORSDOF 5
