REMARK  Name = ZINC01240833
REMARK  15 active torsions:
REMARK  status: ('A' for Active; 'I' for Inactive)
REMARK    1  A    between atoms: C_1  and  C_2
REMARK    2  A    between atoms: C_2  and  O_3
REMARK    3  A    between atoms: O_3  and  C_4
REMARK    4  A    between atoms: C_6  and  C_14
REMARK    5  A    between atoms: C_9  and  O_10
REMARK    6  A    between atoms: O_10  and  C_11
REMARK    7  A    between atoms: C_11  and  C_12
REMARK    8  A    between atoms: C_11  and  C_13
REMARK    9  A    between atoms: C_23  and  C_31
REMARK   10  A    between atoms: C_24  and  N_30
REMARK   11  A    between atoms: C_25  and  C_26
REMARK   12  A    between atoms: C_25  and  C_28
REMARK   13  A    between atoms: C_33  and  O_35
REMARK   14  A    between atoms: O_35  and  C_36
REMARK   15  A    between atoms: C_36  and  C_37
REMARK                            x       y       z     vdW  Elec       q    Type
REMARK                         _______ _______ _______ _____ _____    ______ ____
ROOT
ATOM      1  C   UNL     1      -2.502   0.976   0.324  0.00  0.00    +0.068 C 
ATOM      2  C   UNL     1      -3.434   1.643   1.337  0.00  0.00    +0.048 C 
ATOM      3  C   UNL     1      -2.961   1.458   2.756  0.00  0.00    +0.120 C 
ATOM      4  N   UNL     1      -2.389   2.698   3.294  0.00  0.00    -0.263 N 
ATOM      5  C   UNL     1      -3.212   3.917   3.195  0.00  0.00    +0.138 C 
ATOM      6  C   UNL     1      -3.554   4.102   1.738  0.00  0.00    -0.003 C 
ATOM      7  C   UNL     1      -3.634   3.072   0.920  0.00  0.00    -0.026 C 
ATOM      8  C   UNL     1      -3.928   3.314  -0.519  0.00  0.00    +0.074 C 
ATOM      9  C   UNL     1      -3.700   2.323  -1.417  0.00  0.00    +0.054 C 
ATOM     10  C   UNL     1      -3.183   0.967  -1.046  0.00  0.00    +0.188 C 
ATOM     11  C   UNL     1      -1.164   2.721   3.854  0.00  0.00    +0.403 C 
ATOM     12  O   UNL     1      -0.508   1.700   3.923  0.00  0.00    -0.226 OA
ENDROOT
BRANCH   1  15
ATOM     13  C   UNL     1       0.055   3.587  -0.633  0.00  0.00    +0.162 A 
ATOM     14  C   UNL     1      -1.130   2.872  -0.561  0.00  0.00    +0.053 A 
ATOM     15  C   UNL     1      -1.211   1.748   0.240  0.00  0.00    -0.037 A 
ATOM     16  C   UNL     1      -0.108   1.328   0.961  0.00  0.00    +0.008 A 
ATOM     17  C   UNL     1       1.077   2.037   0.893  0.00  0.00    +0.050 A 
ATOM     18  C   UNL     1       1.163   3.168   0.096  0.00  0.00    +0.162 A 
BRANCH  13  19
ATOM     19  O   UNL     1       0.134   4.697  -1.416  0.00  0.00    -0.489 OA
BRANCH  19  21
ATOM     20  C   UNL     1      -0.763   6.330  -2.955  0.00  0.00    +0.048 C 
ATOM     21  C   UNL     1      -1.043   5.068  -2.136  0.00  0.00    +0.226 C 
ENDBRANCH  19  21
ENDBRANCH  13  19
BRANCH  18  22
ATOM     22  O   UNL     1       2.328   3.866   0.028  0.00  0.00    -0.486 OA
BRANCH  22  23
ATOM     23  C   UNL     1       3.458   3.310   0.703  0.00  0.00    +0.167 C 
ATOM     24  C   UNL     1       4.744   3.876   0.096  0.00  0.00    +0.051 C 
ATOM     25  C   UNL     1       3.393   3.671   2.188  0.00  0.00    +0.051 C 
ENDBRANCH  22  23
ENDBRANCH  18  22
ENDBRANCH   1  15
BRANCH   9  26
ATOM     26  N   UNL     1      -3.955   2.578  -2.736  0.00  0.00    -0.358 N 
ATOM     27  H   UNL     1      -3.781   1.796  -3.490  0.00  0.00    +0.142 HD
ATOM     28  H   UNL     1      -4.335   3.563  -3.042  0.00  0.00    +0.142 HD
ENDBRANCH   9  26
BRANCH  10  29
ATOM     29  C   UNL     1      -2.212   0.528  -2.062  0.00  0.00    +0.091 C 
ATOM     30  N   UNL     1      -1.463   0.189  -2.846  0.00  0.00    -0.194 NA
ENDBRANCH  10  29
BRANCH  10  31
ATOM     31  C   UNL     1      -4.307   0.016  -1.017  0.00  0.00    +0.091 C 
ATOM     32  N   UNL     1      -5.174  -0.717  -0.994  0.00  0.00    -0.194 NA
ENDBRANCH  10  31
BRANCH   8  33
ATOM     33  C   UNL     1      -4.445   4.578  -0.950  0.00  0.00    +0.101 C 
ATOM     34  N   UNL     1      -4.855   5.580  -1.291  0.00  0.00    -0.191 NA
ENDBRANCH   8  33
BRANCH  11  35
ATOM     35  O   UNL     1      -0.667   3.875   4.339  0.00  0.00    -0.451 OA
BRANCH  35  36
ATOM     36  C   UNL     1       0.659   3.825   4.928  0.00  0.00    +0.230 C 
ATOM     37  C   UNL     1       1.051   5.220   5.419  0.00  0.00    +0.048 C 
ENDBRANCH  35  36
ENDBRANCH  11  35
TORSDOF 11
