REMARK  Name = ZINC08770390
REMARK  9 active torsions:
REMARK  status: ('A' for Active; 'I' for Inactive)
REMARK    1  A    between atoms: C_1  and  C_2
REMARK    2  A    between atoms: C_2  and  C_3
REMARK    3  A    between atoms: C_6  and  N_9
REMARK    4  A    between atoms: C_13  and  C_14
REMARK    5  A    between atoms: C_17  and  O_20
REMARK    6  A    between atoms: O_20  and  C_21
REMARK    7  A    between atoms: C_21  and  C_23
REMARK    8  A    between atoms: C_21  and  C_24
REMARK    9  A    between atoms: C_26  and  O_30
REMARK                            x       y       z     vdW  Elec       q    Type
REMARK                         _______ _______ _______ _____ _____    ______ ____
ROOT
ATOM      1  N   UNL     1       2.451   4.164   1.569  0.00  0.00    -0.188 N 
ATOM      2  C   UNL     1       2.403   5.440   1.129  0.00  0.00    +0.263 C 
ATOM      3  O   UNL     1       1.410   6.124   1.294  0.00  0.00    -0.269 OA
ATOM      4  C   UNL     1       3.595   5.976   0.443  0.00  0.00    +0.097 C 
ATOM      5  C   UNL     1       3.630   7.275  -0.039  0.00  0.00    +0.026 C 
ATOM      6  C   UNL     1       4.744   5.070   0.295  0.00  0.00    +0.218 C 
ATOM      7  N   UNL     1       4.645   3.843   0.777  0.00  0.00    -0.127 NA
ATOM      8  C   UNL     1       3.547   3.411   1.392  0.00  0.00    +0.340 C 
ATOM      9  O   UNL     1       3.534   2.269   1.814  0.00  0.00    -0.250 OA
ENDROOT
BRANCH   1  13
ATOM     10  C   UNL     1      -0.859   2.546   3.518  0.00  0.00    -0.048 A 
ATOM     11  C   UNL     1      -0.471   2.047   2.289  0.00  0.00    +0.005 A 
ATOM     12  C   UNL     1       0.625   2.582   1.639  0.00  0.00    +0.024 A 
ATOM     13  C   UNL     1       1.339   3.619   2.225  0.00  0.00    +0.046 A 
ATOM     14  C   UNL     1       0.950   4.114   3.462  0.00  0.00    +0.024 A 
ATOM     15  C   UNL     1      -0.146   3.575   4.107  0.00  0.00    +0.005 A 
BRANCH  10  17
ATOM     16  C   UNL     1      -1.613   0.807   5.118  0.00  0.00    +0.009 C 
ATOM     17  C   UNL     1      -2.058   1.964   4.221  0.00  0.00    +0.032 C 
ENDBRANCH  10  17
ENDBRANCH   1  13
BRANCH   5  18
ATOM     18  C   UNL     1       2.408   8.076  -0.069  0.00  0.00    -0.024 A 
ATOM     19  C   UNL     1       1.212   7.521  -0.549  0.00  0.00    +0.011 A 
ATOM     20  C   UNL     1       0.073   8.273  -0.570  0.00  0.00    +0.046 A 
ATOM     21  C   UNL     1       0.098   9.592  -0.126  0.00  0.00    +0.122 A 
ATOM     22  C   UNL     1       1.282  10.151   0.348  0.00  0.00    +0.046 A 
ATOM     23  C   UNL     1       2.427   9.407   0.378  0.00  0.00    +0.011 A 
BRANCH  21  24
ATOM     24  O   UNL     1      -1.035  10.336  -0.155  0.00  0.00    -0.478 OA
BRANCH  24  25
ATOM     25  C   UNL     1      -0.960  11.654   0.392  0.00  0.00    +0.282 C 
ATOM     26  C   UNL     1      -1.132  11.587   1.911  0.00  0.00    +0.064 C 
BRANCH  25  27
ATOM     27  C   UNL     1      -2.052  12.507  -0.200  0.00  0.00    +0.395 C 
ATOM     28  O   UNL     1      -2.872  12.013  -0.938  0.00  0.00    -0.242 OA
ATOM     29  O   UNL     1      -2.115  13.816   0.092  0.00  0.00    -0.242 OA
ENDBRANCH  25  27
ENDBRANCH  24  25
ENDBRANCH  21  24
ENDBRANCH   5  18
BRANCH   6  30
ATOM     30  O   UNL     1       5.873   5.481  -0.321  0.00  0.00    -0.493 OA
ATOM     31  H   UNL     1       6.565   4.807  -0.364  0.00  0.00    +0.294 HD
ENDBRANCH   6  30
TORSDOF 7
