REMARK  Name = ZINC40915609
REMARK  12 active torsions:
REMARK  status: ('A' for Active; 'I' for Inactive)
REMARK    1  A    between atoms: C_1  and  C_2
REMARK    2  A    between atoms: C_3  and  C_30
REMARK    3  A    between atoms: C_4  and  C_12
REMARK    4  A    between atoms: C_15  and  O_18
REMARK    5  A    between atoms: O_18  and  C_19
REMARK    6  A    between atoms: C_19  and  C_20
REMARK    7  A    between atoms: C_23  and  C_26
REMARK    8  A    between atoms: C_26  and  C_27
REMARK    9  A    between atoms: C_26  and  C_28
REMARK   10  A    between atoms: C_26  and  C_29
REMARK   11  A    between atoms: C_30  and  O_32
REMARK   12  A    between atoms: O_32  and  C_33
REMARK                            x       y       z     vdW  Elec       q    Type
REMARK                         _______ _______ _______ _____ _____    ______ ____
ROOT
ATOM      1  C   UNL     1      -1.730  -2.628  -1.371  0.00  0.00    -0.018 A 
ATOM      2  C   UNL     1      -0.991  -2.326  -2.500  0.00  0.00    +0.009 A 
ATOM      3  C   UNL     1      -1.425  -2.744  -3.743  0.00  0.00    +0.046 A 
ATOM      4  C   UNL     1      -2.604  -3.466  -3.858  0.00  0.00    +0.121 A 
ATOM      5  C   UNL     1      -3.343  -3.768  -2.724  0.00  0.00    +0.046 A 
ATOM      6  C   UNL     1      -2.902  -3.353  -1.482  0.00  0.00    +0.009 A 
ENDROOT
BRANCH   1  10
ATOM      7  C   UNL     1      -0.018   1.503   0.010  0.00  0.00    +0.061 C 
ATOM      8  C   UNL     1       0.002  -0.004   0.002  0.00  0.00    +0.020 C 
ATOM      9  C   UNL     1      -1.164  -0.668   0.004  0.00  0.00    +0.082 C 
ATOM     10  C   UNL     1      -1.254  -2.171  -0.016  0.00  0.00    +0.179 C 
ATOM     11  N   UNL     1       0.064  -2.740   0.255  0.00  0.00    -0.221 N 
ATOM     12  C   UNL     1       1.210  -2.015   0.249  0.00  0.00    +0.218 A 
ATOM     13  N   UNL     1       2.199  -2.823   0.519  0.00  0.00    -0.201 NA
ATOM     14  C   UNL     1       1.727  -4.060   0.707  0.00  0.00    +0.247 A 
ATOM     15  N   UNL     1       0.426  -4.052   0.555  0.00  0.00    -0.156 NA
ATOM     16  N   UNL     1       1.212  -0.651  -0.013  0.00  0.00    -0.287 N 
ATOM     17  H   UNL     1       2.037  -0.173  -0.196  0.00  0.00    +0.155 HD
BRANCH   9  18
ATOM     18  C   UNL     1      -2.364   0.077   0.027  0.00  0.00    +0.339 C 
ATOM     19  O   UNL     1      -2.324   1.293   0.044  0.00  0.00    -0.245 OA
BRANCH  18  20
ATOM     20  O   UNL     1      -3.554  -0.559   0.029  0.00  0.00    -0.465 OA
ATOM     21  C   UNL     1      -4.726   0.257   0.053  0.00  0.00    +0.280 C 
ENDBRANCH  18  20
ENDBRANCH   9  18
ENDBRANCH   1  10
BRANCH   4  22
ATOM     22  O   UNL     1      -3.034  -3.877  -5.080  0.00  0.00    -0.487 OA
BRANCH  22  23
ATOM     23  C   UNL     1      -4.255  -4.617  -5.123  0.00  0.00    +0.264 C 
BRANCH  23  24
ATOM     24  C   UNL     1      -4.570  -4.985  -6.550  0.00  0.00    -0.010 A 
ATOM     25  C   UNL     1      -5.323  -4.131  -7.334  0.00  0.00    +0.007 A 
ATOM     26  C   UNL     1      -5.612  -4.468  -8.643  0.00  0.00    +0.004 A 
ATOM     27  C   UNL     1      -5.147  -5.659  -9.168  0.00  0.00    -0.042 A 
ATOM     28  C   UNL     1      -4.394  -6.513  -8.385  0.00  0.00    +0.004 A 
ATOM     29  C   UNL     1      -4.101  -6.174  -7.077  0.00  0.00    +0.007 A 
BRANCH  27  30
ATOM     30  C   UNL     1      -5.463  -6.027 -10.595  0.00  0.00    -0.013 C 
ATOM     31  C   UNL     1      -4.894  -4.963 -11.535  0.00  0.00    +0.015 C 
ATOM     32  C   UNL     1      -4.836  -7.384 -10.923  0.00  0.00    +0.015 C 
ATOM     33  C   UNL     1      -6.980  -6.110 -10.777  0.00  0.00    +0.015 C 
ENDBRANCH  27  30
ENDBRANCH  23  24
ENDBRANCH  22  23
ENDBRANCH   4  22
TORSDOF 7
