REMARK  Name = ZINC59039301
REMARK  7 active torsions:
REMARK  status: ('A' for Active; 'I' for Inactive)
REMARK    1  A    between atoms: C_1  and  C_2
REMARK    2  A    between atoms: C_7  and  C_10
REMARK    3  A    between atoms: C_14  and  C_17
REMARK    4  A    between atoms: C_17  and  N_18
REMARK    5  A    between atoms: N_21  and  C_22
REMARK    6  A    between atoms: C_22  and  C_24
REMARK    7  A    between atoms: C_22  and  C_25
REMARK                            x       y       z     vdW  Elec       q    Type
REMARK                         _______ _______ _______ _____ _____    ______ ____
ROOT
ATOM      1  N   UNL     1       4.638   3.978  -5.162  0.00  0.00    -0.295 N 
ATOM      2  C   UNL     1       5.221   4.826  -6.033  0.00  0.00    +0.300 C 
ATOM      3  O   UNL     1       5.916   4.391  -6.931  0.00  0.00    -0.253 OA
ATOM      4  N   UNL     1       5.034   6.154  -5.908  0.00  0.00    -0.293 N 
ATOM      5  H   UNL     1       4.083   4.325  -4.446  0.00  0.00    +0.151 HD
ATOM      6  H   UNL     1       4.480   6.501  -5.192  0.00  0.00    +0.151 HD
ENDROOT
BRANCH   4   7
ATOM      7  C   UNL     1       5.668   7.075  -6.855  0.00  0.00    +0.102 C 
ATOM      8  C   UNL     1       4.787   7.216  -8.098  0.00  0.00    +0.033 C 
BRANCH   7   9
ATOM      9  C   UNL     1       5.840   8.424  -6.205  0.00  0.00    -0.024 A 
ATOM     10  C   UNL     1       4.843   8.931  -5.392  0.00  0.00    +0.009 A 
ATOM     11  C   UNL     1       4.995  10.168  -4.796  0.00  0.00    +0.050 A 
ATOM     12  C   UNL     1       6.150  10.905  -5.011  0.00  0.00    +0.162 A 
ATOM     13  C   UNL     1       7.154  10.395  -5.826  0.00  0.00    +0.162 A 
ATOM     14  C   UNL     1       6.996   9.151  -6.418  0.00  0.00    +0.055 A 
ATOM     15  O   UNL     1       8.299  11.098  -6.044  0.00  0.00    -0.485 OA
ATOM     16  C   UNL     1       8.265  12.495  -5.732  0.00  0.00    +0.270 C 
ATOM     17  C   UNL     1       7.609  12.664  -4.355  0.00  0.00    +0.270 C 
ATOM     18  O   UNL     1       6.285  12.123  -4.420  0.00  0.00    -0.485 OA
ENDBRANCH   7   9
ENDBRANCH   4   7
BRANCH   1  19
ATOM     19  C   UNL     1       4.841   2.534  -5.298  0.00  0.00    +0.142 C 
BRANCH  19  31
ATOM     20  C   UNL     1       0.016   1.546   0.045  0.00  0.00    +0.039 C 
ATOM     21  C   UNL     1       0.015   0.016   0.022  0.00  0.00    +0.133 C 
ATOM     22  C   UNL     1       0.716  -0.478  -1.248  0.00  0.00    +0.137 C 
ATOM     23  N   UNL     1       2.143  -0.135  -1.154  0.00  0.00    -0.312 N 
ATOM     24  C   UNL     1       2.865  -0.509   0.072  0.00  0.00    +0.137 C 
ATOM     25  C   UNL     1       2.060  -0.013   1.279  0.00  0.00    +0.133 C 
ATOM     26  O   UNL     1       0.711  -0.479   1.169  0.00  0.00    -0.371 OA
ATOM     27  C   UNL     1       2.684  -0.553   2.567  0.00  0.00    +0.039 C 
ATOM     28  C   UNL     1       2.791   0.524  -2.193  0.00  0.00    +0.099 A 
ATOM     29  C   UNL     1       2.117   0.757  -3.387  0.00  0.00    +0.042 A 
ATOM     30  C   UNL     1       2.773   1.413  -4.413  0.00  0.00    +0.010 A 
ATOM     31  C   UNL     1       4.087   1.816  -4.208  0.00  0.00    -0.014 A 
ATOM     32  C   UNL     1       4.694   1.552  -2.997  0.00  0.00    +0.089 A 
ATOM     33  N   UNL     1       4.042   0.928  -2.034  0.00  0.00    -0.349 N 
ATOM     34  H   UNL     1       4.491   0.759  -1.192  0.00  0.00    +0.167 HD
ENDBRANCH  19  31
ENDBRANCH   1  19
TORSDOF 4
