REMARK  Name = ZINC64340243
REMARK  10 active torsions:
REMARK  status: ('A' for Active; 'I' for Inactive)
REMARK    1  A    between atoms: C_1  and  C_2
REMARK    2  A    between atoms: C_2  and  C_3
REMARK    3  A    between atoms: C_2  and  C_4
REMARK    4  A    between atoms: C_4  and  C_6
REMARK    5  A    between atoms: C_4  and  N_22
REMARK    6  A    between atoms: N_8  and  N_9
REMARK    7  A    between atoms: C_10  and  C_12
REMARK    8  A    between atoms: C_12  and  C_13
REMARK    9  A    between atoms: N_22  and  S_23
REMARK   10  A    between atoms: S_23  and  C_26
REMARK                            x       y       z     vdW  Elec       q    Type
REMARK                         _______ _______ _______ _____ _____    ______ ____
ROOT
ATOM      1  C   UNL     1      -2.441   0.475  -1.248  0.00  0.00    +0.248 C 
ATOM      2  O   UNL     1      -3.461   1.131  -1.262  0.00  0.00    -0.273 OA
ATOM      3  N   UNL     1      -1.843   0.134  -2.406  0.00  0.00    -0.233 N 
ATOM      4  H   UNL     1      -1.028  -0.391  -2.395  0.00  0.00    +0.173 HD
ENDROOT
BRANCH   3   5
ATOM      5  N   UNL     1      -2.400   0.536  -3.627  0.00  0.00    -0.234 N 
ATOM      6  C   UNL     1      -1.802   0.195  -4.786  0.00  0.00    +0.233 C 
ATOM      7  O   UNL     1      -0.782  -0.462  -4.771  0.00  0.00    -0.274 OA
ATOM      8  H   UNL     1      -3.216   1.061  -3.639  0.00  0.00    +0.173 HD
BRANCH   6   9
ATOM      9  C   UNL     1      -2.401   0.628  -6.099  0.00  0.00    +0.130 C 
BRANCH   9  10
ATOM     10  C   UNL     1      -1.547   0.121  -7.232  0.00  0.00    -0.033 C 
ATOM     11  C   UNL     1      -1.730  -1.016  -7.943  0.00  0.00    -0.001 A 
ATOM     12  C   UNL     1      -2.739  -2.079  -7.875  0.00  0.00    +0.010 A 
ATOM     13  C   UNL     1      -2.658  -3.117  -8.739  0.00  0.00    +0.001 A 
ATOM     14  C   UNL     1      -1.636  -3.202  -9.695  0.00  0.00    +0.002 A 
ATOM     15  C   UNL     1      -0.673  -2.264  -9.818  0.00  0.00    +0.026 A 
ATOM     16  C   UNL     1      -0.661  -1.129  -8.961  0.00  0.00    +0.043 A 
ATOM     17  N   UNL     1       0.150  -0.102  -8.884  0.00  0.00    -0.380 N 
ATOM     18  C   UNL     1      -0.316   0.782  -7.810  0.00  0.00    +0.145 C 
ATOM     19  H   UNL     1       0.926   0.050  -9.445  0.00  0.00    +0.160 HD
ENDBRANCH   9  10
ENDBRANCH   6   9
ENDBRANCH   3   5
BRANCH   1  20
ATOM     20  C   UNL     1      -1.843   0.042   0.066  0.00  0.00    +0.166 C 
BRANCH  20  22
ATOM     21  C   UNL     1      -0.488   2.141   0.100  0.00  0.00    +0.009 C 
ATOM     22  C   UNL     1      -0.430   0.615   0.196  0.00  0.00    +0.010 C 
ATOM     23  C   UNL     1       0.162   0.211   1.547  0.00  0.00    +0.009 C 
ENDBRANCH  20  22
BRANCH  20  24
ATOM     24  N   UNL     1      -2.673   0.535   1.167  0.00  0.00    -0.178 NA
ATOM     25  H   UNL     1      -2.736   1.488   1.338  0.00  0.00    +0.149 HD
BRANCH  24  26
ATOM     26  S   UNL     1      -3.504  -0.534   2.121  0.00  0.00    +0.062 S 
ATOM     27  O   UNL     1      -4.232   0.242   3.062  0.00  0.00    -0.153 OA
ATOM     28  O   UNL     1      -4.135  -1.456   1.243  0.00  0.00    -0.153 OA
BRANCH  26  29
ATOM     29  C   UNL     1      -2.310  -1.450   3.038  0.00  0.00    +0.140 A 
ATOM     30  C   UNL     1      -2.175  -1.241   4.398  0.00  0.00    +0.031 A 
ATOM     31  C   UNL     1      -1.239  -1.959   5.118  0.00  0.00    +0.002 A 
ATOM     32  C   UNL     1      -0.437  -2.887   4.480  0.00  0.00    +0.003 A 
ATOM     33  C   UNL     1      -0.571  -3.097   3.121  0.00  0.00    +0.040 A 
ATOM     34  C   UNL     1      -1.512  -2.382   2.399  0.00  0.00    +0.150 A 
ATOM     35  F   UNL     1      -1.647  -2.591   1.071  0.00  0.00    -0.203 F 
ENDBRANCH  26  29
ENDBRANCH  24  26
ENDBRANCH  20  24
ENDBRANCH   1  20
TORSDOF 8
