REMARK  Name = ZINC39922928
REMARK  10 active torsions:
REMARK  status: ('A' for Active; 'I' for Inactive)
REMARK    1  A    between atoms: C_1  and  O_2
REMARK    2  A    between atoms: O_2  and  C_3
REMARK    3  A    between atoms: C_5  and  C_13
REMARK    4  A    between atoms: C_6  and  O_11
REMARK    5  A    between atoms: C_8  and  O_9
REMARK    6  A    between atoms: O_9  and  C_10
REMARK    7  A    between atoms: O_11  and  C_12
REMARK    8  A    between atoms: N_14  and  N_15
REMARK    9  A    between atoms: C_16  and  C_18
REMARK   10  A    between atoms: C_21  and  C_24
REMARK                            x       y       z     vdW  Elec       q    Type
REMARK                         _______ _______ _______ _____ _____    ______ ____
ROOT
ATOM      1  N   UNL     1      -7.190   0.402   0.050  0.00  0.00    -0.205 N 
ATOM      2  C   UNL     1      -8.373  -0.244   0.064  0.00  0.00    +0.263 C 
ATOM      3  O   UNL     1      -8.402  -1.457   0.071  0.00  0.00    -0.271 OA
ATOM      4  H   UNL     1      -7.167   1.371   0.044  0.00  0.00    +0.177 HD
ENDROOT
BRANCH   2   5
ATOM      5  C   UNL     1      -9.660   0.540   0.070  0.00  0.00    +0.240 C 
ATOM      6  C   UNL     1     -10.007   0.989   1.478  0.00  0.00    +0.041 C 
ATOM      7  C   UNL     1     -11.187   0.389   1.727  0.00  0.00    +0.093 C 
ATOM      8  N   UNL     1     -11.578  -0.350   0.656  0.00  0.00    -0.153 NA
ATOM      9  N   UNL     1     -10.795  -0.321  -0.301  0.00  0.00    -0.170 NA
BRANCH   7  10
ATOM     10  C   UNL     1     -11.952   0.516   2.992  0.00  0.00    +0.020 A 
ATOM     11  C   UNL     1     -11.404   1.202   4.074  0.00  0.00    +0.013 A 
ATOM     12  C   UNL     1     -12.119   1.318   5.248  0.00  0.00    +0.021 A 
ATOM     13  C   UNL     1     -13.380   0.754   5.353  0.00  0.00    +0.042 A 
ATOM     14  C   UNL     1     -13.929   0.072   4.282  0.00  0.00    +0.040 A 
ATOM     15  C   UNL     1     -13.224  -0.044   3.099  0.00  0.00    +0.052 A 
ATOM     16 CL   UNL     1     -13.918  -0.893   1.753  0.00  0.00    -0.083 Cl
ATOM     17 CL   UNL     1     -14.273   0.904   6.834  0.00  0.00    -0.083 Cl
ENDBRANCH   7  10
ENDBRANCH   2   5
BRANCH   1  19
ATOM     18  C   UNL     1      -4.854   0.295   0.031  0.00  0.00    +0.142 C 
ATOM     19  N   UNL     1      -5.994  -0.328   0.044  0.00  0.00    -0.188 NA
BRANCH  18  22
ATOM     20  C   UNL     1      -1.192  -0.528   0.005  0.00  0.00    +0.162 A 
ATOM     21  C   UNL     1      -2.369   0.195   0.010  0.00  0.00    +0.062 A 
ATOM     22  C   UNL     1      -3.597  -0.472   0.025  0.00  0.00    +0.040 A 
ATOM     23  C   UNL     1      -3.627  -1.873   0.033  0.00  0.00    +0.132 A 
ATOM     24  C   UNL     1      -2.442  -2.589   0.028  0.00  0.00    +0.095 A 
ATOM     25  C   UNL     1      -1.227  -1.921   0.008  0.00  0.00    +0.165 A 
BRANCH  20  27
ATOM     26  C   UNL     1      -0.033   1.549  -0.012  0.00  0.00    +0.277 C 
ATOM     27  O   UNL     1       0.004   0.121  -0.009  0.00  0.00    -0.491 OA
ENDBRANCH  20  27
BRANCH  25  28
ATOM     28  O   UNL     1      -0.066  -2.628  -0.002  0.00  0.00    -0.491 OA
ATOM     29  C   UNL     1      -0.174  -4.053   0.002  0.00  0.00    +0.277 C 
ENDBRANCH  25  28
BRANCH  23  30
ATOM     30  O   UNL     1      -4.818  -2.528   0.048  0.00  0.00    -0.494 OA
ATOM     31  C   UNL     1      -4.772  -3.957   0.056  0.00  0.00    +0.277 C 
ENDBRANCH  23  30
ENDBRANCH  18  22
ENDBRANCH   1  19
TORSDOF 7
