REMARK  Name = ZINC57345487
REMARK  6 active torsions:
REMARK  status: ('A' for Active; 'I' for Inactive)
REMARK    1  A    between atoms: C_1  and  C_2
REMARK    2  A    between atoms: C_5  and  N_8
REMARK    3  A    between atoms: N_9  and  C_10
REMARK    4  A    between atoms: C_12  and  C_25
REMARK    5  A    between atoms: C_15  and  N_16
REMARK    6  A    between atoms: C_17  and  C_19
REMARK                            x       y       z     vdW  Elec       q    Type
REMARK                         _______ _______ _______ _____ _____    ______ ____
ROOT
ATOM      1  C   UNL     1       0.105  -6.166   1.085  0.00  0.00    +0.108 A 
ATOM      2  C   UNL     1       0.123  -6.868  -0.124  0.00  0.00    +0.034 A 
ATOM      3  C   UNL     1       0.145  -8.246  -0.118  0.00  0.00    -0.048 A 
ATOM      4  C   UNL     1       0.150  -8.941   1.081  0.00  0.00    +0.005 A 
ATOM      5  C   UNL     1       0.133  -8.261   2.284  0.00  0.00    +0.026 A 
ATOM      6  C   UNL     1       0.116  -6.874   2.298  0.00  0.00    +0.061 A 
ATOM      7  C   UNL     1       0.164  -9.001  -1.422  0.00  0.00    +0.044 C 
ENDROOT
BRANCH   6   8
ATOM      8  N   UNL     1       0.104  -6.186   3.511  0.00  0.00    -0.282 N 
ATOM      9  C   UNL     1      -0.557  -6.696   4.569  0.00  0.00    +0.246 C 
ATOM     10  O   UNL     1      -1.073  -7.791   4.491  0.00  0.00    -0.273 OA
ATOM     11  H   UNL     1       0.572  -5.340   3.593  0.00  0.00    +0.155 HD
BRANCH   9  12
ATOM     12  C   UNL     1      -0.655  -5.906   5.849  0.00  0.00    +0.204 C 
ATOM     13  C   UNL     1       0.748  -5.737   6.469  0.00  0.00    +0.043 C 
ATOM     14  C   UNL     1       0.461  -5.904   7.986  0.00  0.00    +0.031 C 
ATOM     15  C   UNL     1      -0.684  -6.947   7.955  0.00  0.00    +0.161 C 
ATOM     16  O   UNL     1      -1.466  -6.613   6.795  0.00  0.00    -0.367 OA
ENDBRANCH   9  12
ENDBRANCH   6   8
BRANCH   1  18
ATOM     17  N   UNL     1       0.074  -4.156  -0.030  0.00  0.00    -0.149 NA
ATOM     18  N   UNL     1       0.084  -4.802   1.087  0.00  0.00    -0.147 NA
BRANCH  17  23
ATOM     19  C   UNL     1      -0.017   1.487  -0.024  0.00  0.00    +0.044 C 
ATOM     20  C   UNL     1       0.008  -0.020  -0.026  0.00  0.00    -0.050 A 
ATOM     21  C   UNL     1       0.020  -0.707  -1.227  0.00  0.00    +0.005 A 
ATOM     22  C   UNL     1       0.043  -2.086  -1.236  0.00  0.00    +0.030 A 
ATOM     23  C   UNL     1       0.053  -2.789  -0.029  0.00  0.00    +0.086 A 
ATOM     24  C   UNL     1       0.040  -2.088   1.180  0.00  0.00    +0.030 A 
ATOM     25  C   UNL     1       0.023  -0.710   1.174  0.00  0.00    +0.005 A 
ENDBRANCH  17  23
ENDBRANCH   1  18
TORSDOF 4
