REMARK  Name = ZINC63974793
REMARK  7 active torsions:
REMARK  status: ('A' for Active; 'I' for Inactive)
REMARK    1  A    between atoms: C_1  and  N_2
REMARK    2  A    between atoms: N_2  and  C_3
REMARK    3  A    between atoms: N_2  and  C_4
REMARK    4  A    between atoms: C_4  and  C_10
REMARK    5  A    between atoms: C_10  and  N_11
REMARK    6  A    between atoms: C_12  and  C_14
REMARK    7  A    between atoms: C_14  and  C_15
REMARK                            x       y       z     vdW  Elec       q    Type
REMARK                         _______ _______ _______ _____ _____    ______ ____
ROOT
ATOM      1  N   UNL     1      -2.261   1.272   1.371  0.00  0.00    -0.317 N 
ATOM      2  C   UNL     1      -3.045   1.840   2.309  0.00  0.00    +0.214 C 
ATOM      3  O   UNL     1      -3.582   1.149   3.149  0.00  0.00    -0.276 OA
ATOM      4  H   UNL     1      -1.832   1.825   0.699  0.00  0.00    +0.149 HD
ENDROOT
BRANCH   1   5
ATOM      5  C   UNL     1      -2.058  -0.178   1.365  0.00  0.00    +0.092 C 
BRANCH   5   6
ATOM      6  C   UNL     1      -1.238  -0.574   0.136  0.00  0.00    -0.050 C 
ATOM      7  C   UNL     1      -1.087  -2.096   0.091  0.00  0.00    -0.010 C 
ATOM      8  C   UNL     1      -0.373  -2.575   1.357  0.00  0.00    -0.001 C 
ATOM      9  C   UNL     1       1.011  -1.928   1.437  0.00  0.00    -0.000 C 
ATOM     10  C   UNL     1       0.861  -0.406   1.482  0.00  0.00    -0.001 C 
ATOM     11  C   UNL     1       0.146   0.073   0.216  0.00  0.00    -0.010 C 
BRANCH   6  13
ATOM     12  C   UNL     1      -1.183  -0.572  -2.262  0.00  0.00    -0.096 C 
ATOM     13  N   UNL     1      -1.924  -0.114  -1.079  0.00  0.00    +0.381 N 
ATOM     14  C   UNL     1      -3.285  -0.664  -1.111  0.00  0.00    -0.096 C 
ATOM     15  H   UNL     1      -1.968   0.894  -1.079  0.00  0.00    -0.082 HD
ENDBRANCH   6  13
ENDBRANCH   5   6
ENDBRANCH   1   5
BRANCH   2  16
ATOM     16  C   UNL     1      -3.254   3.332   2.314  0.00  0.00    +0.112 C 
BRANCH  16  17
ATOM     17  C   UNL     1      -4.052   3.731   3.558  0.00  0.00    +0.107 C 
ATOM     18  C   UNL     1      -3.274   3.273   4.776  0.00  0.00    -0.004 C 
ATOM     19  C   UNL     1      -2.920   4.225   5.685  0.00  0.00    -0.007 A 
ATOM     20  C   UNL     1      -2.168   3.871   6.890  0.00  0.00    +0.009 A 
ATOM     21  C   UNL     1      -1.838   4.852   7.768  0.00  0.00    +0.001 A 
ATOM     22  C   UNL     1      -2.201   6.181   7.543  0.00  0.00    +0.002 A 
ATOM     23  C   UNL     1      -2.898   6.574   6.446  0.00  0.00    +0.024 A 
ATOM     24  C   UNL     1      -3.289   5.636   5.473  0.00  0.00    +0.040 A 
ATOM     25  N   UNL     1      -3.972   6.034   4.400  0.00  0.00    -0.284 N 
ATOM     26  C   UNL     1      -4.371   5.205   3.451  0.00  0.00    +0.225 C 
ATOM     27  O   UNL     1      -4.992   5.627   2.494  0.00  0.00    -0.275 OA
ATOM     28  H   UNL     1      -4.188   6.975   4.312  0.00  0.00    +0.155 HD
ENDBRANCH  16  17
ENDBRANCH   2  16
TORSDOF 5
