REMARK  Name = ZINC05383653
REMARK  7 active torsions:
REMARK  status: ('A' for Active; 'I' for Inactive)
REMARK    1  A    between atoms: C_1  and  C_2
REMARK    2  A    between atoms: C_2  and  C_3
REMARK    3  A    between atoms: C_2  and  C_4
REMARK    4  A    between atoms: C_2  and  N_5
REMARK    5  A    between atoms: C_6  and  C_8
REMARK    6  A    between atoms: N_18  and  C_19
REMARK    7  A    between atoms: C_20  and  N_24
REMARK                            x       y       z     vdW  Elec       q    Type
REMARK                         _______ _______ _______ _____ _____    ______ ____
ROOT
ATOM      1  C   UNL     1       3.771   1.736   0.051  0.00  0.00    +0.165 C 
ATOM      2  C   UNL     1       2.545   0.950   0.519  0.00  0.00    +0.067 C 
ATOM      3  C   UNL     1       1.288   1.606   0.011  0.00  0.00    -0.040 A 
ATOM      4  C   UNL     1       0.110   0.875   0.019  0.00  0.00    +0.004 A 
ATOM      5  C   UNL     1      -1.065   1.439  -0.434  0.00  0.00    +0.000 A 
ATOM      6  C   UNL     1      -1.070   2.745  -0.889  0.00  0.00    +0.000 A 
ATOM      7  C   UNL     1       0.102   3.473  -0.900  0.00  0.00    +0.005 A 
ATOM      8  C   UNL     1       1.285   2.905  -0.452  0.00  0.00    -0.027 A 
ATOM      9  C   UNL     1       2.541   3.736  -0.492  0.00  0.00    +0.142 C 
ATOM     10  N   UNL     1       3.568   3.156   0.378  0.00  0.00    -0.299 N 
ENDROOT
BRANCH  10  11
ATOM     11  C   UNL     1       4.761   3.864   0.281  0.00  0.00    +0.131 A 
ATOM     12  C   UNL     1       5.169   4.675   1.336  0.00  0.00    +0.164 A 
ATOM     13  C   UNL     1       6.360   5.370   1.228  0.00  0.00    +0.037 A 
ATOM     14  C   UNL     1       7.100   5.239   0.060  0.00  0.00    +0.020 A 
ATOM     15  C   UNL     1       6.633   4.421  -0.949  0.00  0.00    +0.084 A 
ATOM     16  N   UNL     1       5.470   3.720  -0.875  0.00  0.00    -0.348 N 
ATOM     17  H   UNL     1       5.146   3.119  -1.642  0.00  0.00    +0.167 HD
BRANCH  12  18
ATOM     18  N   UNL     1       4.412   4.778   2.455  0.00  0.00    +0.060 N 
ATOM     19  O   UNL     1       4.727   5.562   3.332  0.00  0.00    -0.126 OA
ATOM     20  O   UNL     1       3.418   4.086   2.584  0.00  0.00    -0.126 OA
ENDBRANCH  12  18
ENDBRANCH  10  11
BRANCH   1  22
ATOM     21  N   UNL     1       5.381  -0.059   0.601  0.00  0.00    -0.309 N 
ATOM     22  C   UNL     1       5.000   1.224   0.756  0.00  0.00    +0.234 C 
ATOM     23  O   UNL     1       5.647   1.967   1.463  0.00  0.00    -0.274 OA
ATOM     24  H   UNL     1       4.863  -0.654   0.035  0.00  0.00    +0.149 HD
BRANCH  21  26
ATOM     25  C   UNL     1       6.398  -0.405   2.798  0.00  0.00    +0.031 C 
ATOM     26  C   UNL     1       6.576  -0.557   1.286  0.00  0.00    +0.026 C 
ATOM     27  C   UNL     1       6.783  -2.034   0.943  0.00  0.00    +0.031 C 
ATOM     28  C   UNL     1       7.796   0.247   0.832  0.00  0.00    +0.031 C 
ENDBRANCH  21  26
ENDBRANCH   1  22
TORSDOF 4
