REMARK  Name = ZINC11427077
REMARK  9 active torsions:
REMARK  status: ('A' for Active; 'I' for Inactive)
REMARK    1  A    between atoms: C_1  and  C_2
REMARK    2  A    between atoms: C_5  and  C_36
REMARK    3  A    between atoms: C_13  and  S_21
REMARK    4  A    between atoms: N_14  and  C_15
REMARK    5  A    between atoms: C_15  and  C_16
REMARK    6  A    between atoms: S_21  and  C_22
REMARK    7  A    between atoms: C_22  and  C_23
REMARK    8  A    between atoms: N_28  and  C_29
REMARK    9  A    between atoms: C_29  and  C_30
REMARK                            x       y       z     vdW  Elec       q    Type
REMARK                         _______ _______ _______ _____ _____    ______ ____
ROOT
ATOM      1  C   UNL     1      -0.779 -11.252   9.666  0.00  0.00    +0.009 C 
ATOM      2  C   UNL     1      -0.940 -10.036  10.580  0.00  0.00    +0.004 C 
ATOM      3  C   UNL     1       0.247  -9.960  11.544  0.00  0.00    +0.009 C 
ATOM      4  C   UNL     1       1.536  -9.771  10.739  0.00  0.00    +0.004 C 
ATOM      5  C   UNL     1       1.419  -8.505   9.887  0.00  0.00    +0.111 C 
ATOM      6  N   UNL     1       0.270  -8.628   8.982  0.00  0.00    -0.299 N 
ATOM      7  C   UNL     1      -0.985  -8.762   9.732  0.00  0.00    +0.111 C 
ATOM      8  C   UNL     1       0.211  -7.554   8.103  0.00  0.00    +0.221 A 
ATOM      9  N   UNL     1       0.162  -6.288   8.437  0.00  0.00    -0.112 NA
ATOM     10  N   UNL     1       0.118  -5.530   7.259  0.00  0.00    -0.121 NA
ATOM     11  C   UNL     1       0.135  -6.359   6.244  0.00  0.00    +0.194 A 
ATOM     12  N   UNL     1       0.197  -7.632   6.739  0.00  0.00    -0.283 N 
ATOM     13  C   UNL     1       2.721  -9.634  11.698  0.00  0.00    +0.009 C 
ENDROOT
BRANCH  12  14
ATOM     14  C   UNL     1       0.239  -8.863   5.947  0.00  0.00    +0.201 C 
BRANCH  14  15
ATOM     15  C   UNL     1       1.668  -9.177   5.584  0.00  0.00    +0.125 A 
ATOM     16  C   UNL     1       2.519  -9.922   6.312  0.00  0.00    +0.046 A 
ATOM     17  C   UNL     1       3.742  -9.958   5.602  0.00  0.00    +0.041 A 
ATOM     18  C   UNL     1       3.567  -9.227   4.487  0.00  0.00    +0.195 A 
ATOM     19  O   UNL     1       2.309  -8.756   4.481  0.00  0.00    -0.466 OA
ENDBRANCH  14  15
ENDBRANCH  12  14
BRANCH  11  20
ATOM     20  S   UNL     1       0.094  -5.912   4.540  0.00  0.00    -0.077 S 
BRANCH  20  21
ATOM     21  C   UNL     1       0.016  -4.100   4.564  0.00  0.00    +0.173 C 
BRANCH  21  22
ATOM     22  C   UNL     1      -0.024  -3.580   3.150  0.00  0.00    +0.231 C 
ATOM     23  O   UNL     1      -0.003  -4.356   2.219  0.00  0.00    -0.274 OA
ATOM     24  N   UNL     1      -0.084  -2.253   2.921  0.00  0.00    -0.239 N 
ATOM     25  C   UNL     1      -0.120  -1.788   1.657  0.00  0.00    +0.306 C 
ATOM     26  O   UNL     1      -0.099  -2.566   0.723  0.00  0.00    -0.252 OA
ATOM     27  N   UNL     1      -0.181  -0.462   1.428  0.00  0.00    -0.295 N 
ATOM     28  H   UNL     1      -0.102  -1.633   3.667  0.00  0.00    +0.159 HD
ATOM     29  H   UNL     1      -0.198   0.159   2.174  0.00  0.00    +0.151 HD
BRANCH  27  30
ATOM     30  C   UNL     1      -0.220   0.044   0.054  0.00  0.00    +0.141 C 
BRANCH  30  31
ATOM     31  C   UNL     1      -0.285   1.549   0.073  0.00  0.00    -0.030 A 
ATOM     32  C   UNL     1      -1.510   2.188   0.092  0.00  0.00    +0.005 A 
ATOM     33  C   UNL     1      -1.570   3.569   0.115  0.00  0.00    +0.000 A 
ATOM     34  C   UNL     1      -0.404   4.311   0.110  0.00  0.00    +0.000 A 
ATOM     35  C   UNL     1       0.822   3.672   0.085  0.00  0.00    +0.000 A 
ATOM     36  C   UNL     1       0.881   2.291   0.067  0.00  0.00    +0.005 A 
ENDBRANCH  30  31
ENDBRANCH  27  30
ENDBRANCH  21  22
ENDBRANCH  20  21
ENDBRANCH  11  20
TORSDOF 7
