REMARK  Name = ZINC43349651
REMARK  5 active torsions:
REMARK  status: ('A' for Active; 'I' for Inactive)
REMARK    1  A    between atoms: C_1  and  C_2
REMARK    2  A    between atoms: C_7  and  C_10
REMARK    3  A    between atoms: N_13  and  C_14
REMARK    4  A    between atoms: C_19  and  O_20
REMARK    5  A    between atoms: O_20  and  C_21
REMARK                            x       y       z     vdW  Elec       q    Type
REMARK                         _______ _______ _______ _____ _____    ______ ____
ROOT
ATOM      1  C   UNL     1      -2.574  -5.003  -1.411  0.00  0.00    +0.077 A 
ATOM      2  C   UNL     1      -3.269  -4.471  -2.487  0.00  0.00    +0.027 A 
ATOM      3  C   UNL     1      -3.925  -5.309  -3.369  0.00  0.00    +0.002 A 
ATOM      4  C   UNL     1      -3.889  -6.679  -3.182  0.00  0.00    +0.004 A 
ATOM      5  C   UNL     1      -3.198  -7.216  -2.112  0.00  0.00    +0.048 A 
ATOM      6  C   UNL     1      -2.534  -6.383  -1.227  0.00  0.00    +0.150 A 
ENDROOT
BRANCH   1  17
ATOM      7  C   UNL     1       0.426  -2.318   3.555  0.00  0.00    +0.039 C 
ATOM      8  C   UNL     1      -0.743  -1.960   2.635  0.00  0.00    +0.133 C 
ATOM      9  C   UNL     1      -0.485  -2.525   1.234  0.00  0.00    +0.140 C 
ATOM     10  N   UNL     1      -1.524  -2.012   0.328  0.00  0.00    -0.280 N 
ATOM     11  C   UNL     1      -1.776  -0.562   0.315  0.00  0.00    +0.140 C 
ATOM     12  C   UNL     1      -1.971  -0.092   1.761  0.00  0.00    +0.133 C 
ATOM     13  O   UNL     1      -0.869  -0.538   2.555  0.00  0.00    -0.371 OA
ATOM     14  C   UNL     1      -3.271  -0.677   2.317  0.00  0.00    +0.039 C 
ATOM     15  C   UNL     1      -2.224  -2.845  -0.468  0.00  0.00    +0.307 C 
ATOM     16  O   UNL     1      -3.140  -2.415  -1.142  0.00  0.00    -0.252 OA
ATOM     17  N   UNL     1      -1.909  -4.154  -0.516  0.00  0.00    -0.266 N 
ATOM     18  H   UNL     1      -1.222  -4.510   0.070  0.00  0.00    +0.156 HD
ENDBRANCH   1  17
BRANCH   6  19
ATOM     19  O   UNL     1      -1.849  -6.910  -0.177  0.00  0.00    -0.454 OA
BRANCH  19  20
ATOM     20  C   UNL     1      -1.916  -8.253   0.018  0.00  0.00    +0.129 A 
ATOM     21  C   UNL     1      -1.176  -9.111  -0.784  0.00  0.00    +0.046 A 
ATOM     22  C   UNL     1      -1.246 -10.475  -0.583  0.00  0.00    +0.004 A 
ATOM     23  C   UNL     1      -2.053 -10.988   0.416  0.00  0.00    +0.000 A 
ATOM     24  C   UNL     1      -2.792 -10.136   1.216  0.00  0.00    +0.004 A 
ATOM     25  C   UNL     1      -2.721  -8.770   1.023  0.00  0.00    +0.046 A 
ENDBRANCH  19  20
ENDBRANCH   6  19
TORSDOF 3
