REMARK  Name = ZINC04959532
REMARK  4 active torsions:
REMARK  status: ('A' for Active; 'I' for Inactive)
REMARK    1  A    between atoms: C_1  and  O_2
REMARK    2  A    between atoms: O_2  and  C_3
REMARK    3  A    between atoms: C_16  and  C_19
REMARK    4  A    between atoms: C_21  and  N_26
REMARK                            x       y       z     vdW  Elec       q    Type
REMARK                         _______ _______ _______ _____ _____    ______ ____
ROOT
ATOM      1  C   UNL     1      -3.406   0.199  -3.234  0.00  0.00    +0.120 A 
ATOM      2  C   UNL     1      -4.278  -0.056  -2.186  0.00  0.00    +0.047 A 
ATOM      3  C   UNL     1      -3.908   0.239  -0.890  0.00  0.00    +0.027 A 
ATOM      4  C   UNL     1      -2.662   0.792  -0.624  0.00  0.00    +0.032 A 
ATOM      5  C   UNL     1      -1.790   1.059  -1.685  0.00  0.00    -0.016 A 
ATOM      6  C   UNL     1      -2.163   0.757  -2.978  0.00  0.00    +0.051 A 
ATOM      7  C   UNL     1      -0.483   1.668  -1.359  0.00  0.00    +0.049 C 
ATOM      8  C   UNL     1       0.706   1.488  -2.231  0.00  0.00    -0.023 C 
ATOM      9  C   UNL     1       1.796   1.506  -1.473  0.00  0.00    -0.030 C 
ATOM     10  C   UNL     1       1.407   1.669  -0.002  0.00  0.00    +0.033 C 
ATOM     11  C   UNL     1      -0.013   1.086   0.008  0.00  0.00    +0.029 C 
ATOM     12  C   UNL     1      -0.973   1.621   1.054  0.00  0.00    +0.106 C 
ATOM     13  N   UNL     1      -2.296   1.049   0.706  0.00  0.00    -0.336 N 
ATOM     14  H   UNL     1      -2.917   0.836   1.421  0.00  0.00    +0.147 HD
ENDROOT
BRANCH  12  15
ATOM     15  C   UNL     1      -0.526   1.206   2.433  0.00  0.00    -0.007 A 
ATOM     16  C   UNL     1      -1.058   0.074   3.020  0.00  0.00    +0.039 A 
ATOM     17  C   UNL     1      -0.644  -0.310   4.282  0.00  0.00    +0.127 A 
ATOM     18  C   UNL     1       0.294   0.445   4.961  0.00  0.00    +0.034 A 
ATOM     19  C   UNL     1       0.822   1.581   4.377  0.00  0.00    +0.022 A 
ATOM     20  C   UNL     1       0.412   1.962   3.112  0.00  0.00    +0.046 A 
ATOM     21 CL   UNL     1       1.076   3.388   2.378  0.00  0.00    -0.083 Cl
BRANCH  17  22
ATOM     22  N   UNL     1      -1.210  -1.525   4.908  0.00  0.00    +0.056 N 
ATOM     23  O   UNL     1      -0.850  -1.861   6.022  0.00  0.00    -0.126 OA
ATOM     24  O   UNL     1      -2.037  -2.190   4.310  0.00  0.00    -0.126 OA
ENDBRANCH  17  22
ENDBRANCH  12  15
BRANCH   1  26
ATOM     25  C   UNL     1      -5.064  -0.672  -4.700  0.00  0.00    +0.277 C 
ATOM     26  O   UNL     1      -3.769  -0.099  -4.511  0.00  0.00    -0.495 OA
ENDBRANCH   1  26
TORSDOF 3
