REMARK  Name = ZINC13388142
REMARK  8 active torsions:
REMARK  status: ('A' for Active; 'I' for Inactive)
REMARK    1  A    between atoms: C_1  and  O_2
REMARK    2  A    between atoms: O_2  and  C_3
REMARK    3  A    between atoms: C_3  and  C_5
REMARK    4  A    between atoms: C_8  and  C_11
REMARK    5  A    between atoms: C_12  and  C_13
REMARK    6  A    between atoms: C_12  and  C_15
REMARK    7  A    between atoms: N_17  and  C_18
REMARK    8  A    between atoms: C_21  and  N_25
REMARK                            x       y       z     vdW  Elec       q    Type
REMARK                         _______ _______ _______ _____ _____    ______ ____
ROOT
ATOM      1  C   UNL     1       0.004   1.054   0.040  0.00  0.00    +0.032 C 
ATOM      2  C   UNL     1      -1.189   1.718   0.045  0.00  0.00    +0.114 C 
ENDROOT
BRANCH   1   6
ATOM      3  C   UNL     1       3.645   3.233   0.012  0.00  0.00    +0.059 A 
ATOM      4  C   UNL     1       3.559   2.027   0.712  0.00  0.00    +0.015 A 
ATOM      5  C   UNL     1       2.379   1.319   0.723  0.00  0.00    +0.009 A 
ATOM      6  C   UNL     1       1.264   1.809   0.031  0.00  0.00    -0.024 A 
ATOM      7  C   UNL     1       1.353   3.015  -0.675  0.00  0.00    +0.009 A 
ATOM      8  C   UNL     1       2.533   3.723  -0.678  0.00  0.00    +0.015 A 
BRANCH   3   9
ATOM      9  C   UNL     1       4.913   3.993   0.003  0.00  0.00    +0.339 C 
ATOM     10  O   UNL     1       5.880   3.568   0.603  0.00  0.00    -0.245 OA
BRANCH   9  12
ATOM     11  C   UNL     1       6.273   5.847  -0.637  0.00  0.00    +0.280 C 
ATOM     12  O   UNL     1       4.997   5.156  -0.671  0.00  0.00    -0.464 OA
ENDBRANCH   9  12
ENDBRANCH   3   9
ENDBRANCH   1   6
BRANCH   2  13
ATOM     13  C   UNL     1      -2.451   0.964   0.138  0.00  0.00    +0.259 C 
ATOM     14  O   UNL     1      -2.431  -0.250   0.210  0.00  0.00    -0.269 OA
ATOM     15  N   UNL     1      -3.629   1.619   0.143  0.00  0.00    -0.280 N 
ATOM     16  H   UNL     1      -3.651   2.579   0.001  0.00  0.00    +0.155 HD
BRANCH  15  17
ATOM     17  C   UNL     1      -4.820   0.916   0.355  0.00  0.00    +0.048 A 
ATOM     18  C   UNL     1      -4.803  -0.288   1.046  0.00  0.00    +0.026 A 
ATOM     19  C   UNL     1      -5.981  -0.980   1.253  0.00  0.00    +0.034 A 
ATOM     20  C   UNL     1      -7.176  -0.474   0.774  0.00  0.00    +0.127 A 
ATOM     21  C   UNL     1      -7.196   0.725   0.085  0.00  0.00    +0.049 A 
ATOM     22  C   UNL     1      -6.022   1.425  -0.121  0.00  0.00    +0.041 A 
ATOM     23 BR   UNL     1      -6.052   3.068  -1.056  0.00  0.00    -0.048 Br
BRANCH  20  24
ATOM     24  N   UNL     1      -8.435  -1.218   0.999  0.00  0.00    +0.056 N 
ATOM     25  O   UNL     1      -8.419  -2.274   1.605  0.00  0.00    -0.126 OA
ATOM     26  O   UNL     1      -9.488  -0.774   0.577  0.00  0.00    -0.126 OA
ENDBRANCH  20  24
ENDBRANCH  15  17
ENDBRANCH   2  13
BRANCH   2  27
ATOM     27  C   UNL     1      -1.213   3.147  -0.039  0.00  0.00    +0.104 C 
ATOM     28  N   UNL     1      -1.232   4.281  -0.106  0.00  0.00    -0.191 NA
ENDBRANCH   2  27
TORSDOF 7
