REMARK  Name = ZINC65002241
REMARK  5 active torsions:
REMARK  status: ('A' for Active; 'I' for Inactive)
REMARK    1  A    between atoms: C_1  and  C_2
REMARK    2  A    between atoms: C_15  and  C_17
REMARK    3  A    between atoms: C_20  and  C_23
REMARK    4  A    between atoms: C_23  and  O_25
REMARK    5  A    between atoms: O_25  and  C_26
REMARK                            x       y       z     vdW  Elec       q    Type
REMARK                         _______ _______ _______ _____ _____    ______ ____
ROOT
ATOM      1  C   UNL     1      -0.019   1.526   0.010  0.00  0.00    +0.008 C 
ATOM      2  C   UNL     1       0.002  -0.004   0.002  0.00  0.00    -0.009 C 
ATOM      3  C   UNL     1      -1.433  -0.537   0.021  0.00  0.00    +0.008 C 
ATOM      4  C   UNL     1      -1.431  -2.044  -0.238  0.00  0.00    +0.037 C 
ATOM      5  C   UNL     1      -0.472  -2.713   0.744  0.00  0.00    -0.023 A 
ATOM      6  C   UNL     1       0.476  -1.986   1.383  0.00  0.00    -0.004 A 
ATOM      7  S   UNL     1       1.343  -3.149   2.405  0.00  0.00    -0.073 S 
ATOM      8  C   UNL     1       0.437  -4.601   1.977  0.00  0.00    +0.116 A 
ATOM      9  C   UNL     1      -0.518  -4.131   1.045  0.00  0.00    +0.075 A 
ATOM     10  C   UNL     1      -1.429  -5.096   0.496  0.00  0.00    +0.260 A 
ATOM     11  O   UNL     1      -2.287  -4.789  -0.313  0.00  0.00    -0.267 OA
ATOM     12  N   UNL     1      -1.276  -6.368   0.934  0.00  0.00    -0.306 N 
ATOM     13  H   UNL     1      -1.871  -7.052   0.589  0.00  0.00    +0.170 HD
ATOM     14  C   UNL     1      -0.321  -6.730   1.839  0.00  0.00    +0.142 A 
ATOM     15  N   UNL     1       0.534  -5.866   2.363  0.00  0.00    -0.222 NA
ATOM     16  C   UNL     1       0.737  -0.516   1.249  0.00  0.00    +0.046 C 
ENDROOT
BRANCH  14  17
ATOM     17  C   UNL     1      -0.238  -8.147   2.251  0.00  0.00    +0.017 A 
ATOM     18  C   UNL     1      -1.122  -9.085   1.711  0.00  0.00    +0.012 A 
ATOM     19  C   UNL     1      -1.044 -10.404   2.095  0.00  0.00    +0.015 A 
ATOM     20  C   UNL     1      -0.082 -10.806   3.025  0.00  0.00    +0.059 A 
ATOM     21  C   UNL     1       0.803  -9.868   3.564  0.00  0.00    +0.015 A 
ATOM     22  C   UNL     1       0.729  -8.550   3.176  0.00  0.00    +0.012 A 
BRANCH  20  23
ATOM     23  C   UNL     1       0.001 -12.222   3.437  0.00  0.00    +0.339 C 
ATOM     24  O   UNL     1      -0.768 -13.037   2.969  0.00  0.00    -0.245 OA
BRANCH  23  25
ATOM     25  O   UNL     1       0.930 -12.609   4.333  0.00  0.00    -0.464 OA
ATOM     26  C   UNL     1       0.953 -13.994   4.686  0.00  0.00    +0.280 C 
ENDBRANCH  23  25
ENDBRANCH  20  23
ENDBRANCH  14  17
TORSDOF 3
