REMARK  Name = ZINC20622532
REMARK  5 active torsions:
REMARK  status: ('A' for Active; 'I' for Inactive)
REMARK    1  A    between atoms: C_1  and  C_2
REMARK    2  A    between atoms: C_2  and  C_3
REMARK    3  A    between atoms: C_3  and  C_5
REMARK    4  A    between atoms: C_3  and  N_6
REMARK    5  A    between atoms: C_9  and  C_16
REMARK                            x       y       z     vdW  Elec       q    Type
REMARK                         _______ _______ _______ _____ _____    ______ ____
ROOT
ATOM      1  C   UNL     1      -0.088   5.443   0.031  0.00  0.00    +0.018 C 
ATOM      2  C   UNL     1       0.504   5.965  -1.256  0.00  0.00    +0.011 A 
ATOM      3  C   UNL     1       1.381   6.998  -1.296  0.00  0.00    -0.022 A 
ATOM      4  C   UNL     1       1.731   7.206  -2.683  0.00  0.00    +0.004 A 
ATOM      5  C   UNL     1       2.578   8.116  -3.324  0.00  0.00    +0.030 A 
ATOM      6  C   UNL     1       2.671   8.022  -4.692  0.00  0.00    +0.042 A 
ATOM      7  C   UNL     1       1.964   7.072  -5.414  0.00  0.00    +0.022 A 
ATOM      8  C   UNL     1       1.120   6.160  -4.805  0.00  0.00    +0.027 A 
ATOM      9  C   UNL     1       1.006   6.233  -3.418  0.00  0.00    +0.047 A 
ATOM     10  N   UNL     1       0.279   5.503  -2.521  0.00  0.00    -0.359 N 
ATOM     11  H   UNL     1      -0.408   4.659  -2.684  0.00  0.00    +0.166 HD
ATOM     12 CL   UNL     1       3.706   9.126  -5.542  0.00  0.00    -0.084 Cl
ATOM     13  C   UNL     1       1.848   7.741  -0.070  0.00  0.00    +0.018 C 
ATOM     14  C   UNL     1       0.897   7.398   1.085  0.00  0.00    -0.076 C 
ATOM     15  N   UNL     1       0.720   5.941   1.156  0.00  0.00    +0.388 N 
ATOM     16  H   UNL     1       0.218   5.697   2.104  0.00  0.00    -0.084 HD
ATOM     17  H   UNL     1       1.712   5.467   1.134  0.00  0.00    -0.084 HD
ENDROOT
BRANCH   1  21
ATOM     18  N   UNL     1       1.147   1.890   0.001  0.00  0.00    -0.258 N 
ATOM     19  C   UNL     1       1.152   3.238   0.008  0.00  0.00    +0.262 A 
ATOM     20  O   UNL     1       2.207   3.848   0.002  0.00  0.00    -0.267 OA
ATOM     21  C   UNL     1      -0.069   3.936   0.023  0.00  0.00    +0.073 A 
ATOM     22  C   UNL     1      -1.235   3.230   0.030  0.00  0.00    +0.260 A 
ATOM     23  N   UNL     1      -1.194   1.859   0.018  0.00  0.00    -0.275 N 
ATOM     24  H   UNL     1      -2.130   1.280   0.015  0.00  0.00    +0.173 HD
ATOM     25  C   UNL     1      -0.014   1.212   0.009  0.00  0.00    +0.332 A 
ATOM     26  O   UNL     1       0.002  -0.004   0.002  0.00  0.00    -0.246 OA
ATOM     27  O   UNL     1      -2.421   3.875   0.045  0.00  0.00    -0.267 OA
BRANCH  18  28
ATOM     28  C   UNL     1       2.417   1.159  -0.014  0.00  0.00    +0.092 C 
ATOM     29  C   UNL     1       2.487   0.285  -1.268  0.00  0.00    +0.031 C 
BRANCH  28  31
ATOM     30  C   UNL     1       2.565   1.154   2.480  0.00  0.00    +0.006 C 
ATOM     31  C   UNL     1       2.510   0.274   1.230  0.00  0.00    +0.022 C 
ENDBRANCH  28  31
ENDBRANCH  18  28
ENDBRANCH   1  21
TORSDOF 3
