REMARK  Name = ZINC15277065
REMARK  10 active torsions:
REMARK  status: ('A' for Active; 'I' for Inactive)
REMARK    1  A    between atoms: C_3  and  C_6
REMARK    2  A    between atoms: C_7  and  C_29
REMARK    3  A    between atoms: C_10  and  S_12
REMARK    4  A    between atoms: S_12  and  C_13
REMARK    5  A    between atoms: C_13  and  C_14
REMARK    6  A    between atoms: N_16  and  C_17
REMARK    7  A    between atoms: C_17  and  C_18
REMARK    8  A    between atoms: C_18  and  C_19
REMARK    9  A    between atoms: C_22  and  S_25
REMARK   10  A    between atoms: S_25  and  N_28
REMARK                            x       y       z     vdW  Elec       q    Type
REMARK                         _______ _______ _______ _____ _____    ______ ____
ROOT
ATOM      1  C   UNL     1      -4.147   6.128   1.131  0.00  0.00    +0.173 C 
ENDROOT
BRANCH   1   2
ATOM      2  C   UNL     1      -5.209   7.181   1.317  0.00  0.00    +0.223 C 
ATOM      3  O   UNL     1      -6.298   7.041   0.802  0.00  0.00    -0.275 OA
ATOM      4  N   UNL     1      -4.948   8.277   2.055  0.00  0.00    -0.314 N 
ATOM      5  H   UNL     1      -4.077   8.389   2.467  0.00  0.00    +0.149 HD
BRANCH   4   6
ATOM      6  C   UNL     1      -5.980   9.301   2.236  0.00  0.00    +0.109 C 
BRANCH   6   7
ATOM      7  C   UNL     1      -5.431  10.431   3.109  0.00  0.00    +0.054 C 
BRANCH   7   8
ATOM      8  C   UNL     1      -6.492  11.484   3.295  0.00  0.00    -0.046 A 
ATOM      9  C   UNL     1      -6.586  12.537   2.404  0.00  0.00    +0.005 A 
ATOM     10  C   UNL     1      -7.562  13.500   2.572  0.00  0.00    +0.029 A 
ATOM     11  C   UNL     1      -8.440  13.416   3.637  0.00  0.00    +0.105 A 
ATOM     12  C   UNL     1      -8.344  12.366   4.531  0.00  0.00    +0.029 A 
ATOM     13  C   UNL     1      -7.370  11.400   4.360  0.00  0.00    +0.005 A 
BRANCH  11  14
ATOM     14  S   UNL     1      -9.683  14.647   3.854  0.00  0.00    +0.056 S 
ATOM     15  O   UNL     1      -9.909  15.225   2.576  0.00  0.00    -0.153 OA
ATOM     16  O   UNL     1     -10.722  14.045   4.613  0.00  0.00    -0.153 OA
BRANCH  14  17
ATOM     17  N   UNL     1      -9.032  15.837   4.803  0.00  0.00    -0.204 NA
ATOM     18  H   UNL     1      -8.119  15.759   5.122  0.00  0.00    +0.144 HD
ATOM     19  H   UNL     1      -9.563  16.613   5.040  0.00  0.00    +0.144 HD
ENDBRANCH  14  17
ENDBRANCH  11  14
ENDBRANCH   7   8
ENDBRANCH   6   7
ENDBRANCH   4   6
ENDBRANCH   1   2
BRANCH   1  20
ATOM     20  S   UNL     1      -4.798   4.791   0.099  0.00  0.00    -0.075 S 
BRANCH  20  25
ATOM     21  C   UNL     1      -2.388   1.795  -0.675  0.00  0.00    +0.139 A 
ATOM     22  C   UNL     1      -1.221   2.192   0.020  0.00  0.00    +0.157 A 
ATOM     23  N   UNL     1      -1.232   3.343   0.687  0.00  0.00    -0.141 NA
ATOM     24  N   UNL     1      -2.284   4.085   0.691  0.00  0.00    -0.122 NA
ATOM     25  C   UNL     1      -3.390   3.732   0.047  0.00  0.00    +0.210 A 
ATOM     26  N   UNL     1      -3.454   2.596  -0.636  0.00  0.00    -0.215 NA
BRANCH  21  29
ATOM     27  C   UNL     1      -3.093  -1.383  -2.343  0.00  0.00    +0.042 A 
ATOM     28  C   UNL     1      -3.504  -0.296  -1.550  0.00  0.00    +0.051 A 
ATOM     29  C   UNL     1      -2.425   0.526  -1.423  0.00  0.00    +0.155 A 
ATOM     30  O   UNL     1      -1.397  -0.026  -2.096  0.00  0.00    -0.461 OA
ATOM     31  C   UNL     1      -1.796  -1.179  -2.653  0.00  0.00    +0.196 A 
ENDBRANCH  21  29
BRANCH  22  32
ATOM     32  C   UNL     1      -0.016   1.343   0.009  0.00  0.00    +0.157 A 
ATOM     33  C   UNL     1       1.272   1.784  -0.001  0.00  0.00    +0.051 A 
ATOM     34  C   UNL     1       2.092   0.639  -0.015  0.00  0.00    +0.042 A 
ATOM     35  C   UNL     1       1.275  -0.433  -0.012  0.00  0.00    +0.196 A 
ATOM     36  O   UNL     1       0.002  -0.004   0.002  0.00  0.00    -0.461 OA
ENDBRANCH  22  32
ENDBRANCH  20  25
ENDBRANCH   1  20
TORSDOF 10
