REMARK  Name = ZINC15857424
REMARK  10 active torsions:
REMARK  status: ('A' for Active; 'I' for Inactive)
REMARK    1  A    between atoms: C_1  and  C_2
REMARK    2  A    between atoms: C_2  and  O_3
REMARK    3  A    between atoms: O_3  and  C_4
REMARK    4  A    between atoms: C_6  and  C_20
REMARK    5  A    between atoms: C_9  and  O_10
REMARK    6  A    between atoms: O_10  and  C_11
REMARK    7  A    between atoms: C_11  and  C_13
REMARK    8  A    between atoms: N_21  and  N_22
REMARK    9  A    between atoms: C_27  and  C_30
REMARK   10  A    between atoms: C_30  and  C_31
REMARK                            x       y       z     vdW  Elec       q    Type
REMARK                         _______ _______ _______ _____ _____    ______ ____
ROOT
ATOM      1  C   UNL     1      -1.231   1.745  -0.013  0.00  0.00    +0.163 A 
ATOM      2  C   UNL     1      -0.030   1.061  -0.024  0.00  0.00    +0.059 A 
ATOM      3  C   UNL     1       1.175   1.770  -0.004  0.00  0.00    -0.002 A 
ATOM      4  C   UNL     1       1.158   3.169   0.032  0.00  0.00    +0.013 A 
ATOM      5  C   UNL     1      -0.044   3.843   0.048  0.00  0.00    +0.051 A 
ATOM      6  C   UNL     1      -1.239   3.138   0.029  0.00  0.00    +0.173 A 
ENDROOT
BRANCH   3   7
ATOM      7  C   UNL     1       2.457   1.048  -0.021  0.00  0.00    +0.143 C 
ATOM      8  N   UNL     1       3.580   1.712  -0.003  0.00  0.00    -0.155 NA
BRANCH   8   9
ATOM      9  N   UNL     1       4.704   1.079  -0.017  0.00  0.00    -0.127 NA
ATOM     10  C   UNL     1       5.838   1.749   0.001  0.00  0.00    +0.183 C 
ATOM     11  N   UNL     1       6.019   3.115   0.037  0.00  0.00    -0.263 N 
ATOM     12  C   UNL     1       7.218   3.670   0.053  0.00  0.00    +0.233 C 
ATOM     13  O   UNL     1       7.372   4.872   0.085  0.00  0.00    -0.274 OA
ATOM     14  C   UNL     1       8.394   2.706   0.030  0.00  0.00    +0.151 C 
ATOM     15  S   UNL     1       7.502   1.101  -0.006  0.00  0.00    -0.075 S 
ATOM     16  H   UNL     1       5.237   3.690   0.051  0.00  0.00    +0.157 HD
BRANCH  14  17
ATOM     17  C   UNL     1       9.246   2.901  -1.225  0.00  0.00    +0.149 C 
BRANCH  17  18
ATOM     18  C   UNL     1      10.463   2.015  -1.149  0.00  0.00    +0.358 C 
ATOM     19  O   UNL     1      10.631   1.301  -0.189  0.00  0.00    -0.246 OA
ATOM     20  O   UNL     1      11.360   2.020  -2.147  0.00  0.00    -0.246 OA
ENDBRANCH  17  18
ENDBRANCH  14  17
ENDBRANCH   8   9
ENDBRANCH   3   7
BRANCH   1  21
ATOM     21  O   UNL     1      -2.405   1.059  -0.038  0.00  0.00    -0.489 OA
BRANCH  21  23
ATOM     22  C   UNL     1      -3.732  -0.960  -0.098  0.00  0.00    +0.048 C 
ATOM     23  C   UNL     1      -2.321  -0.367  -0.074  0.00  0.00    +0.226 C 
ENDBRANCH  21  23
ENDBRANCH   1  21
BRANCH   6  24
ATOM     24  O   UNL     1      -2.422   3.809   0.045  0.00  0.00    -0.419 OA
BRANCH  24  25
ATOM     25  C   UNL     1      -3.046   3.919   1.234  0.00  0.00    +0.345 C 
ATOM     26  O   UNL     1      -2.503   3.518   2.244  0.00  0.00    -0.245 OA
BRANCH  25  27
ATOM     27  C   UNL     1      -4.389   4.528   1.309  0.00  0.00    +0.059 A 
ATOM     28  C   UNL     1      -5.012   4.996   0.150  0.00  0.00    +0.016 A 
ATOM     29  C   UNL     1      -6.269   5.559   0.226  0.00  0.00    +0.021 A 
ATOM     30  C   UNL     1      -6.907   5.671   1.450  0.00  0.00    +0.041 A 
ATOM     31  C   UNL     1      -6.292   5.214   2.603  0.00  0.00    +0.021 A 
ATOM     32  C   UNL     1      -5.038   4.644   2.540  0.00  0.00    +0.016 A 
ATOM     33 CL   UNL     1      -8.486   6.388   1.538  0.00  0.00    -0.084 Cl
ENDBRANCH  25  27
ENDBRANCH  24  25
ENDBRANCH   6  24
TORSDOF 9
