REMARK  Name = ZINC03448618
REMARK  12 active torsions:
REMARK  status: ('A' for Active; 'I' for Inactive)
REMARK    1  A    between atoms: C_1  and  C_2
REMARK    2  A    between atoms: C_2  and  O_3
REMARK    3  A    between atoms: O_3  and  C_4
REMARK    4  A    between atoms: C_4  and  C_6
REMARK    5  A    between atoms: C_7  and  C_34
REMARK    6  A    between atoms: C_8  and  C_30
REMARK    7  A    between atoms: C_10  and  N_11
REMARK    8  A    between atoms: C_12  and  C_14
REMARK    9  A    between atoms: C_14  and  N_15
REMARK   10  A    between atoms: C_18  and  C_22
REMARK   11  A    between atoms: C_18  and  C_23
REMARK   12  A    between atoms: N_32  and  C_33
REMARK                            x       y       z     vdW  Elec       q    Type
REMARK                         _______ _______ _______ _____ _____    ______ ____
ROOT
ATOM      1  N   UNL     1       3.750  -2.426   1.391  0.00  0.00    -0.278 N 
ATOM      2  C   UNL     1       5.053  -2.736   1.538  0.00  0.00    +0.236 C 
ATOM      3  O   UNL     1       5.453  -3.193   2.588  0.00  0.00    -0.274 OA
ATOM      4  H   UNL     1       3.429  -2.061   0.552  0.00  0.00    +0.155 HD
ENDROOT
BRANCH   1   9
ATOM      5  C   UNL     1       1.498  -2.372   2.469  0.00  0.00    +0.091 A 
ATOM      6  C   UNL     1       0.816  -2.667   3.642  0.00  0.00    -0.015 A 
ATOM      7  C   UNL     1       1.563  -3.183   4.665  0.00  0.00    +0.079 A 
ATOM      8  S   UNL     1       3.200  -3.243   3.964  0.00  0.00    -0.068 S 
ATOM      9  C   UNL     1       2.869  -2.630   2.436  0.00  0.00    +0.087 A 
ATOM     10  C   UNL     1      -0.666  -2.432   3.780  0.00  0.00    +0.046 C 
BRANCH   7  11
ATOM     11  C   UNL     1       1.127  -3.586   6.004  0.00  0.00    +0.251 C 
ATOM     12  O   UNL     1      -0.043  -3.476   6.321  0.00  0.00    -0.270 OA
ATOM     13  N   UNL     1       2.021  -4.078   6.885  0.00  0.00    -0.314 N 
ATOM     14  C   UNL     1       1.584  -4.481   8.224  0.00  0.00    +0.128 C 
ATOM     15  H   UNL     1       2.953  -4.166   6.632  0.00  0.00    +0.149 HD
ENDBRANCH   7  11
BRANCH   5  16
ATOM     16  C   UNL     1       0.801  -1.814   1.304  0.00  0.00    +0.342 C 
ATOM     17  O   UNL     1       0.321  -2.556   0.470  0.00  0.00    -0.245 OA
BRANCH  16  18
ATOM     18  O   UNL     1       0.693  -0.477   1.160  0.00  0.00    -0.461 OA
BRANCH  18  20
ATOM     19  C   UNL     1      -0.019   1.526   0.010  0.00  0.00    +0.048 C 
ATOM     20  C   UNL     1       0.002  -0.004   0.002  0.00  0.00    +0.229 C 
ENDBRANCH  18  20
ENDBRANCH  16  18
ENDBRANCH   5  16
ENDBRANCH   1   9
BRANCH   2  21
ATOM     21  C   UNL     1       6.013  -2.514   0.398  0.00  0.00    +0.214 C 
BRANCH  21  22
ATOM     22  N   UNL     1       7.359  -2.926   0.806  0.00  0.00    -0.215 N 
ATOM     23  C   UNL     1       8.255  -2.109   1.393  0.00  0.00    +0.251 C 
ATOM     24  O   UNL     1       8.106  -0.939   1.673  0.00  0.00    -0.272 OA
ATOM     25  C   UNL     1       9.489  -2.957   1.632  0.00  0.00    +0.135 C 
ATOM     26  N   UNL     1       9.108  -4.278   1.101  0.00  0.00    -0.281 N 
ATOM     27  C   UNL     1       7.847  -4.161   0.646  0.00  0.00    +0.310 C 
ATOM     28  O   UNL     1       7.223  -5.075   0.144  0.00  0.00    -0.252 OA
ATOM     29  C   UNL     1      10.686  -2.394   0.864  0.00  0.00    +0.047 C 
ATOM     30  H   UNL     1       9.658  -5.077   1.086  0.00  0.00    +0.152 HD
BRANCH  25  31
ATOM     31  C   UNL     1       9.795  -3.046   3.105  0.00  0.00    -0.015 A 
ATOM     32  C   UNL     1       9.452  -2.003   3.945  0.00  0.00    +0.007 A 
ATOM     33  C   UNL     1       9.732  -2.083   5.296  0.00  0.00    +0.020 A 
ATOM     34  C   UNL     1      10.356  -3.207   5.807  0.00  0.00    +0.041 A 
ATOM     35  C   UNL     1      10.699  -4.250   4.966  0.00  0.00    +0.020 A 
ATOM     36  C   UNL     1      10.413  -4.171   3.616  0.00  0.00    +0.007 A 
ATOM     37 CL   UNL     1      10.709  -3.309   7.504  0.00  0.00    -0.084 Cl
ENDBRANCH  25  31
ENDBRANCH  21  22
ENDBRANCH   2  21
TORSDOF 8
