REMARK  Name = ZINC09041976
REMARK  9 active torsions:
REMARK  status: ('A' for Active; 'I' for Inactive)
REMARK    1  A    between atoms: C_1  and  C_2
REMARK    2  A    between atoms: C_2  and  O_3
REMARK    3  A    between atoms: O_3  and  C_4
REMARK    4  A    between atoms: C_6  and  C_11
REMARK    5  A    between atoms: C_9  and  O_10
REMARK    6  A    between atoms: N_12  and  N_13
REMARK    7  A    between atoms: C_14  and  C_16
REMARK    8  A    between atoms: C_16  and  N_17
REMARK    9  A    between atoms: C_28  and  C_32
REMARK                            x       y       z     vdW  Elec       q    Type
REMARK                         _______ _______ _______ _____ _____    ______ ____
ROOT
ATOM      1  N   UNL     1       1.580  -7.081  -0.049  0.00  0.00    -0.205 N 
ATOM      2  C   UNL     1       1.416  -8.419  -0.054  0.00  0.00    +0.254 C 
ATOM      3  O   UNL     1       0.299  -8.893  -0.046  0.00  0.00    -0.272 OA
ATOM      4  H   UNL     1       2.473  -6.702  -0.056  0.00  0.00    +0.177 HD
ENDROOT
BRANCH   1   6
ATOM      5  C   UNL     1       0.619  -4.950  -0.029  0.00  0.00    +0.138 C 
ATOM      6  N   UNL     1       0.461  -6.238  -0.035  0.00  0.00    -0.188 NA
BRANCH   5   9
ATOM      7  C   UNL     1      -1.498  -1.849   0.006  0.00  0.00    +0.162 A 
ATOM      8  C   UNL     1      -0.391  -2.676  -0.009  0.00  0.00    +0.059 A 
ATOM      9  C   UNL     1      -0.559  -4.063  -0.014  0.00  0.00    -0.002 A 
ATOM     10  C   UNL     1      -1.846  -4.608  -0.004  0.00  0.00    +0.013 A 
ATOM     11  C   UNL     1      -2.946  -3.776   0.011  0.00  0.00    +0.050 A 
ATOM     12  C   UNL     1      -2.778  -2.399   0.021  0.00  0.00    +0.158 A 
BRANCH  12  13
ATOM     13  O   UNL     1      -3.866  -1.584   0.042  0.00  0.00    -0.503 OA
ATOM     14  H   UNL     1      -4.194  -1.343  -0.835  0.00  0.00    +0.292 HD
ENDBRANCH  12  13
BRANCH   7  15
ATOM     15  O   UNL     1      -1.339  -0.499   0.012  0.00  0.00    -0.489 OA
BRANCH  15  17
ATOM     16  C   UNL     1      -0.019   1.526   0.010  0.00  0.00    +0.048 C 
ATOM     17  C   UNL     1       0.002  -0.004   0.002  0.00  0.00    +0.226 C 
ENDBRANCH  15  17
ENDBRANCH   7  15
ENDBRANCH   5   9
ENDBRANCH   1   6
BRANCH   2  18
ATOM     18  C   UNL     1       2.619  -9.326  -0.070  0.00  0.00    +0.246 C 
BRANCH  18  19
ATOM     19  N   UNL     1       2.179 -10.723  -0.073  0.00  0.00    -0.201 N 
ATOM     20  C   UNL     1       1.967 -11.352  -1.245  0.00  0.00    +0.279 A 
ATOM     21  O   UNL     1       2.139 -10.769  -2.302  0.00  0.00    -0.265 OA
ATOM     22  C   UNL     1       1.536 -12.721  -1.227  0.00  0.00    +0.079 A 
ATOM     23  C   UNL     1       1.248 -13.591  -2.364  0.00  0.00    -0.023 A 
ATOM     24  C   UNL     1       0.853 -14.853  -2.086  0.00  0.00    -0.004 A 
ATOM     25  S   UNL     1       0.843 -14.951  -0.316  0.00  0.00    -0.071 S 
ATOM     26  C   UNL     1       1.370 -13.293   0.044  0.00  0.00    +0.138 A 
ATOM     27  N   UNL     1       1.595 -12.617   1.166  0.00  0.00    -0.123 NA
ATOM     28  N   UNL     1       1.987 -11.390   1.141  0.00  0.00    -0.061 NA
ATOM     29  C   UNL     1       0.501 -15.930  -3.066  0.00  0.00    +0.046 C 
ATOM     30  C   UNL     1       0.294 -15.283  -4.443  0.00  0.00    -0.009 C 
ATOM     31  C   UNL     1       1.467 -14.340  -4.723  0.00  0.00    +0.008 C 
ATOM     32  C   UNL     1       1.381 -13.117  -3.809  0.00  0.00    +0.037 C 
ATOM     33  C   UNL     1       0.238 -16.371  -5.518  0.00  0.00    +0.008 C 
ENDBRANCH  18  19
ENDBRANCH   2  18
TORSDOF 7
