REMARK  Name = ZINC34749298
REMARK  11 active torsions:
REMARK  status: ('A' for Active; 'I' for Inactive)
REMARK    1  A    between atoms: C_1  and  C_2
REMARK    2  A    between atoms: C_2  and  C_3
REMARK    3  A    between atoms: C_4  and  C_36
REMARK    4  A    between atoms: N_10  and  C_25
REMARK    5  A    between atoms: N_16  and  C_19
REMARK    6  A    between atoms: C_19  and  C_20
REMARK    7  A    between atoms: N_22  and  C_23
REMARK    8  A    between atoms: N_22  and  C_24
REMARK    9  A    between atoms: C_25  and  C_26
REMARK   10  A    between atoms: N_28  and  C_29
REMARK   11  A    between atoms: C_29  and  C_30
REMARK                            x       y       z     vdW  Elec       q    Type
REMARK                         _______ _______ _______ _____ _____    ______ ____
ROOT
ATOM      1  C   UNL     1      -1.474  -0.467   0.038  0.00  0.00    -0.023 A 
ATOM      2  C   UNL     1      -2.148  -0.629   1.187  0.00  0.00    -0.007 A 
ATOM      3  S   UNL     1      -3.752  -1.192   0.649  0.00  0.00    -0.073 S 
ATOM      4  C   UNL     1      -3.471  -1.193  -1.103  0.00  0.00    +0.117 A 
ATOM      5  C   UNL     1      -2.140  -0.750  -1.221  0.00  0.00    +0.076 A 
ATOM      6  C   UNL     1      -1.635  -0.648  -2.556  0.00  0.00    +0.264 A 
ATOM      7  O   UNL     1      -0.491  -0.278  -2.757  0.00  0.00    -0.267 OA
ATOM      8  N   UNL     1      -2.440  -0.966  -3.587  0.00  0.00    -0.271 N 
ATOM      9  C   UNL     1      -3.722  -1.382  -3.382  0.00  0.00    +0.202 A 
ATOM     10  N   UNL     1      -4.210  -1.495  -2.164  0.00  0.00    -0.208 NA
ATOM     11  N   UNL     1      -4.512  -1.697  -4.459  0.00  0.00    -0.304 N 
ATOM     12  C   UNL     1      -4.560  -3.070  -4.986  0.00  0.00    +0.089 C 
ATOM     13  C   UNL     1      -6.029  -3.489  -5.117  0.00  0.00    -0.059 C 
ATOM     14  N   UNL     1      -6.748  -2.501  -5.931  0.00  0.00    +0.387 N 
ATOM     15  C   UNL     1      -6.767  -1.204  -5.244  0.00  0.00    -0.059 C 
ATOM     16  C   UNL     1      -5.340  -0.673  -5.116  0.00  0.00    +0.089 C 
ATOM     17  C   UNL     1      -1.664  -0.393   2.594  0.00  0.00    +0.052 C 
ATOM     18  H   UNL     1      -6.285  -2.401  -6.822  0.00  0.00    -0.081 HD
ENDROOT
BRANCH   1  20
ATOM     19  C   UNL     1      -0.015   1.537  -0.007  0.00  0.00    +0.009 C 
ATOM     20  C   UNL     1      -0.044   0.009   0.054  0.00  0.00    +0.033 C 
ENDBRANCH   1  20
BRANCH  14  21
ATOM     21  C   UNL     1      -8.127  -2.959  -6.148  0.00  0.00    +0.019 C 
BRANCH  21  22
ATOM     22  C   UNL     1      -8.829  -2.010  -7.084  0.00  0.00    +0.199 C 
ATOM     23  O   UNL     1      -8.240  -1.047  -7.527  0.00  0.00    -0.278 OA
ATOM     24  N   UNL     1     -10.113  -2.231  -7.429  0.00  0.00    -0.309 N 
ATOM     25  C   UNL     1     -10.797  -1.308  -8.339  0.00  0.00    +0.131 C 
ATOM     26  C   UNL     1     -10.826  -3.394  -6.894  0.00  0.00    +0.131 C 
ENDBRANCH  21  22
ENDBRANCH  14  21
BRANCH   8  27
ATOM     27  C   UNL     1      -1.928  -0.863  -4.956  0.00  0.00    +0.223 C 
BRANCH  27  28
ATOM     28  C   UNL     1      -1.226  -2.144  -5.327  0.00  0.00    +0.233 C 
ATOM     29  O   UNL     1      -1.159  -3.053  -4.527  0.00  0.00    -0.274 OA
ATOM     30  N   UNL     1      -0.672  -2.279  -6.548  0.00  0.00    -0.310 N 
ATOM     31  H   UNL     1      -0.725  -1.552  -7.188  0.00  0.00    +0.149 HD
BRANCH  30  32
ATOM     32  C   UNL     1       0.011  -3.524  -6.909  0.00  0.00    +0.139 C 
BRANCH  32  33
ATOM     33  C   UNL     1       0.537  -3.418  -8.317  0.00  0.00    -0.030 A 
ATOM     34  C   UNL     1      -0.254  -3.808  -9.382  0.00  0.00    +0.005 A 
ATOM     35  C   UNL     1       0.229  -3.711 -10.674  0.00  0.00    +0.000 A 
ATOM     36  C   UNL     1       1.502  -3.224 -10.901  0.00  0.00    +0.000 A 
ATOM     37  C   UNL     1       2.293  -2.833  -9.836  0.00  0.00    +0.000 A 
ATOM     38  C   UNL     1       1.808  -2.926  -8.545  0.00  0.00    +0.005 A 
ENDBRANCH  32  33
ENDBRANCH  30  32
ENDBRANCH  27  28
ENDBRANCH   8  27
TORSDOF 7
