REMARK  Name = ZINC38603929
REMARK  8 active torsions:
REMARK  status: ('A' for Active; 'I' for Inactive)
REMARK    1  A    between atoms: C_1  and  C_2
REMARK    2  A    between atoms: C_5  and  C_29
REMARK    3  A    between atoms: N_8  and  C_10
REMARK    4  A    between atoms: C_10  and  C_11
REMARK    5  A    between atoms: N_13  and  C_14
REMARK    6  A    between atoms: C_22  and  C_24
REMARK    7  A    between atoms: C_24  and  O_26
REMARK    8  A    between atoms: O_26  and  C_27
REMARK                            x       y       z     vdW  Elec       q    Type
REMARK                         _______ _______ _______ _____ _____    ______ ____
ROOT
ATOM      1  C   UNL     1       2.061   0.604   6.028  0.00  0.00    +0.053 C 
ATOM      2  C   UNL     1       2.452   0.586   7.356  0.00  0.00    +0.019 A 
ATOM      3  C   UNL     1       3.469  -0.120   8.042  0.00  0.00    +0.026 A 
ATOM      4  C   UNL     1       3.629   0.061   9.377  0.00  0.00    +0.019 A 
ATOM      5  C   UNL     1       2.811   0.933  10.102  0.00  0.00    +0.017 A 
ATOM      6  C   UNL     1       1.819   1.641   9.510  0.00  0.00    +0.027 A 
ATOM      7  C   UNL     1       1.589   1.506   8.116  0.00  0.00    +0.045 A 
ATOM      8  N   UNL     1       0.705   2.071   7.319  0.00  0.00    -0.367 N 
ATOM      9  C   UNL     1       0.908   1.580   5.953  0.00  0.00    +0.234 C 
ATOM     10 BR   UNL     1       4.992  -0.890  10.280  0.00  0.00    -0.050 Br
ATOM     11  H   UNL     1       0.030   2.713   7.592  0.00  0.00    +0.161 HD
ENDROOT
BRANCH   1  14
ATOM     12  C   UNL     1       2.307   0.215   3.726  0.00  0.00    +0.200 C 
ATOM     13  O   UNL     1       1.505   1.095   3.495  0.00  0.00    -0.278 OA
ATOM     14  N   UNL     1       2.606  -0.106   5.001  0.00  0.00    -0.288 N 
ATOM     15  H   UNL     1       3.208  -0.843   5.186  0.00  0.00    +0.155 HD
BRANCH  12  16
ATOM     16  C   UNL     1       2.969  -0.519   2.589  0.00  0.00    +0.019 C 
BRANCH  16  22
ATOM     17  C   UNL     1       0.727   1.867  -0.074  0.00  0.00    +0.005 C 
ATOM     18  C   UNL     1       0.509   0.353  -0.108  0.00  0.00    -0.031 C 
ATOM     19  C   UNL     1       1.257  -0.245  -1.304  0.00  0.00    +0.003 C 
ATOM     20  C   UNL     1       2.759  -0.008  -1.123  0.00  0.00    -0.031 C 
ATOM     21  C   UNL     1       3.210  -0.618   0.206  0.00  0.00    -0.075 C 
ATOM     22  N   UNL     1       2.478   0.013   1.311  0.00  0.00    +0.386 N 
ATOM     23  C   UNL     1       1.042  -0.270   1.184  0.00  0.00    -0.075 C 
ATOM     24  C   UNL     1       3.522  -0.669  -2.274  0.00  0.00    +0.005 C 
ATOM     25  H   UNL     1       2.626   1.011   1.285  0.00  0.00    -0.081 HD
ENDBRANCH  16  22
ENDBRANCH  12  16
ENDBRANCH   1  14
BRANCH   9  26
ATOM     26  C   UNL     1      -0.334   0.880   5.466  0.00  0.00    +0.335 C 
ATOM     27  O   UNL     1      -1.196   0.563   6.251  0.00  0.00    -0.248 OA
BRANCH  26  28
ATOM     28  O   UNL     1      -0.483   0.607   4.160  0.00  0.00    -0.466 OA
ATOM     29  C   UNL     1      -1.685  -0.059   3.769  0.00  0.00    +0.280 C 
ENDBRANCH  26  28
ENDBRANCH   9  26
TORSDOF 5
