REMARK  Name = ZINC16232105
REMARK  9 active torsions:
REMARK  status: ('A' for Active; 'I' for Inactive)
REMARK    1  A    between atoms: C_1  and  C_2
REMARK    2  A    between atoms: C_5  and  N_9
REMARK    3  A    between atoms: C_6  and  C_8
REMARK    4  A    between atoms: N_9  and  C_10
REMARK    5  A    between atoms: C_10  and  N_12
REMARK    6  A    between atoms: N_12  and  N_13
REMARK    7  A    between atoms: C_14  and  C_16
REMARK    8  A    between atoms: C_16  and  N_17
REMARK    9  A    between atoms: C_21  and  C_28
REMARK                            x       y       z     vdW  Elec       q    Type
REMARK                         _______ _______ _______ _____ _____    ______ ____
ROOT
ATOM      1  N   UNL     1      -0.106  -6.886   0.025  0.00  0.00    -0.234 N 
ATOM      2  C   UNL     1      -0.190  -8.232   0.024  0.00  0.00    +0.249 C 
ATOM      3  O   UNL     1      -0.278  -8.834  -1.025  0.00  0.00    -0.272 OA
ATOM      4  H   UNL     1      -0.035  -6.405   0.864  0.00  0.00    +0.173 HD
ENDROOT
BRANCH   1   5
ATOM      5  N   UNL     1      -0.122  -6.184  -1.187  0.00  0.00    -0.246 N 
ATOM      6  H   UNL     1      -0.193  -6.665  -2.026  0.00  0.00    +0.172 HD
BRANCH   5   7
ATOM      7  C   UNL     1      -0.039  -4.838  -1.187  0.00  0.00    +0.151 C 
ATOM      8  S   UNL     1      -0.058  -3.979  -2.668  0.00  0.00    -0.017 S 
BRANCH   7   9
ATOM      9  N   UNL     1       0.059  -4.169  -0.021  0.00  0.00    -0.296 N 
ATOM     10  H   UNL     1       0.134  -4.658   0.814  0.00  0.00    +0.154 HD
BRANCH   9  15
ATOM     11  C   UNL     1       0.038   1.503   0.005  0.00  0.00    +0.044 C 
ATOM     12  C   UNL     1       0.044  -0.004  -0.002  0.00  0.00    -0.050 A 
ATOM     13  C   UNL     1       0.855  -0.687  -0.890  0.00  0.00    +0.005 A 
ATOM     14  C   UNL     1       0.863  -2.068  -0.898  0.00  0.00    +0.024 A 
ATOM     15  C   UNL     1       0.054  -2.771  -0.015  0.00  0.00    +0.036 A 
ATOM     16  C   UNL     1      -0.759  -2.082   0.875  0.00  0.00    -0.029 A 
ATOM     17  C   UNL     1      -0.758  -0.700   0.882  0.00  0.00    +0.008 A 
ATOM     18  C   UNL     1      -1.638  -2.840   1.836  0.00  0.00    +0.045 C 
ENDBRANCH   9  15
ENDBRANCH   7   9
ENDBRANCH   5   7
ENDBRANCH   1   5
BRANCH   2  19
ATOM     19  C   UNL     1      -0.173  -8.988   1.328  0.00  0.00    +0.223 C 
BRANCH  19  20
ATOM     20  N   UNL     1      -0.275 -10.425   1.060  0.00  0.00    -0.290 N 
ATOM     21  C   UNL     1      -1.498 -11.011   0.989  0.00  0.00    +0.203 A 
ATOM     22  N   UNL     1      -1.671 -12.277   0.757  0.00  0.00    -0.237 NA
ATOM     23  C   UNL     1      -0.622 -13.114   0.565  0.00  0.00    +0.081 A 
ATOM     24  C   UNL     1      -0.807 -14.475   0.314  0.00  0.00    -0.024 A 
ATOM     25  C   UNL     1       0.287 -15.289   0.124  0.00  0.00    +0.005 A 
ATOM     26  C   UNL     1       1.575 -14.773   0.180  0.00  0.00    +0.001 A 
ATOM     27  C   UNL     1       1.784 -13.434   0.425  0.00  0.00    +0.015 A 
ATOM     28  C   UNL     1       0.690 -12.593   0.620  0.00  0.00    +0.065 A 
ATOM     29  C   UNL     1       0.851 -11.155   0.880  0.00  0.00    +0.262 A 
ATOM     30  O   UNL     1       1.953 -10.642   0.936  0.00  0.00    -0.267 OA
ATOM     31  C   UNL     1      -2.199 -15.051   0.251  0.00  0.00    +0.046 C 
ENDBRANCH  19  20
ENDBRANCH   2  19
TORSDOF 6
