REMARK  Name = ZINC16752088
REMARK  13 active torsions:
REMARK  status: ('A' for Active; 'I' for Inactive)
REMARK    1  A    between atoms: C_1  and  C_2
REMARK    2  A    between atoms: C_2  and  C_4
REMARK    3  A    between atoms: C_2  and  S_14
REMARK    4  A    between atoms: N_9  and  C_10
REMARK    5  A    between atoms: C_10  and  C_11
REMARK    6  A    between atoms: C_10  and  C_12
REMARK    7  A    between atoms: C_10  and  C_13
REMARK    8  A    between atoms: S_14  and  C_15
REMARK    9  A    between atoms: C_18  and  C_27
REMARK   10  A    between atoms: N_19  and  C_20
REMARK   11  A    between atoms: C_20  and  C_21
REMARK   12  A    between atoms: C_30  and  O_33
REMARK   13  A    between atoms: O_33  and  C_34
REMARK                            x       y       z     vdW  Elec       q    Type
REMARK                         _______ _______ _______ _____ _____    ______ ____
ROOT
ATOM      1  C   UNL     1       5.826  -1.161  -0.009  0.00  0.00    +0.193 A 
ATOM      2  N   UNL     1       5.122  -2.252  -0.212  0.00  0.00    -0.122 NA
ATOM      3  N   UNL     1       3.866  -1.976  -0.194  0.00  0.00    -0.128 NA
ATOM      4  C   UNL     1       3.692  -0.693   0.022  0.00  0.00    +0.165 A 
ATOM      5  N   UNL     1       4.941  -0.130   0.141  0.00  0.00    -0.300 N 
ENDROOT
BRANCH   4   6
ATOM      6  C   UNL     1       2.397   0.014   0.113  0.00  0.00    +0.020 A 
ATOM      7  C   UNL     1       2.325   1.266   0.727  0.00  0.00    +0.015 A 
ATOM      8  C   UNL     1       1.116   1.923   0.809  0.00  0.00    +0.046 A 
ATOM      9  C   UNL     1      -0.030   1.341   0.284  0.00  0.00    +0.120 A 
ATOM     10  C   UNL     1       0.037   0.095  -0.327  0.00  0.00    +0.046 A 
ATOM     11  C   UNL     1       1.243  -0.568  -0.414  0.00  0.00    +0.015 A 
BRANCH   9  12
ATOM     12  O   UNL     1      -1.221   1.988   0.372  0.00  0.00    -0.495 OA
ATOM     13  C   UNL     1      -2.359   1.333  -0.189  0.00  0.00    +0.277 C 
ENDBRANCH   9  12
ENDBRANCH   4   6
BRANCH   1  14
ATOM     14  S   UNL     1       7.583  -1.048   0.051  0.00  0.00    -0.074 S 
BRANCH  14  16
ATOM     15  C   UNL     1       7.581  -3.192  -1.642  0.00  0.00    +0.029 C 
ATOM     16  C   UNL     1       8.020  -2.781  -0.235  0.00  0.00    +0.137 C 
BRANCH  16  17
ATOM     17  C   UNL     1       9.511  -2.951  -0.104  0.00  0.00    +0.233 C 
ATOM     18  O   UNL     1      10.242  -1.990  -0.206  0.00  0.00    -0.274 OA
ATOM     19  N   UNL     1      10.032  -4.173   0.126  0.00  0.00    -0.239 N 
ATOM     20  C   UNL     1      11.366  -4.325   0.243  0.00  0.00    +0.306 C 
ATOM     21  O   UNL     1      12.099  -3.361   0.141  0.00  0.00    -0.252 OA
ATOM     22  N   UNL     1      11.887  -5.546   0.474  0.00  0.00    -0.294 N 
ATOM     23  H   UNL     1       9.447  -4.942   0.208  0.00  0.00    +0.159 HD
ATOM     24  H   UNL     1      11.302  -6.316   0.556  0.00  0.00    +0.151 HD
BRANCH  22  25
ATOM     25  C   UNL     1      13.337  -5.712   0.601  0.00  0.00    +0.028 C 
ATOM     26  C   UNL     1      13.847  -4.867   1.770  0.00  0.00    +0.031 C 
ATOM     27  C   UNL     1      13.662  -7.185   0.858  0.00  0.00    +0.031 C 
ATOM     28  C   UNL     1      14.018  -5.258  -0.691  0.00  0.00    +0.031 C 
ENDBRANCH  22  25
ENDBRANCH  16  17
ENDBRANCH  14  16
ENDBRANCH   1  14
BRANCH   5  29
ATOM     29  C   UNL     1       5.258   1.280   0.383  0.00  0.00    +0.157 C 
BRANCH  29  30
ATOM     30  C   UNL     1       5.386   1.523   1.888  0.00  0.00    +0.138 C 
ATOM     31  C   UNL     1       5.605   3.027   2.158  0.00  0.00    +0.035 C 
ATOM     32  C   UNL     1       6.644   3.006   3.312  0.00  0.00    +0.031 C 
ATOM     33  C   UNL     1       7.475   1.754   2.938  0.00  0.00    +0.160 C 
ATOM     34  O   UNL     1       6.525   0.821   2.398  0.00  0.00    -0.375 OA
ENDBRANCH  29  30
ENDBRANCH   5  29
TORSDOF 8
