REMARK  Name = ZINC39848467
REMARK  6 active torsions:
REMARK  status: ('A' for Active; 'I' for Inactive)
REMARK    1  A    between atoms: C_1  and  C_2
REMARK    2  A    between atoms: C_3  and  C_35
REMARK    3  A    between atoms: C_8  and  C_26
REMARK    4  A    between atoms: C_10  and  C_15
REMARK    5  A    between atoms: C_15  and  C_17
REMARK    6  A    between atoms: C_29  and  N_32
REMARK                            x       y       z     vdW  Elec       q    Type
REMARK                         _______ _______ _______ _____ _____    ______ ____
ROOT
ATOM      1  C   UNL     1      -0.146   1.463  -0.077  0.00  0.00    +0.066 C 
ATOM      2  C   UNL     1      -0.122  -0.044  -0.065  0.00  0.00    +0.050 A 
ATOM      3  C   UNL     1      -0.157  -0.762  -1.215  0.00  0.00    +0.011 A 
ATOM      4  S   UNL     1      -0.106  -2.426  -0.570  0.00  0.00    -0.057 S 
ATOM      5  C   UNL     1      -0.046  -2.039   1.067  0.00  0.00    +0.169 A 
ATOM      6  N   UNL     1      -0.061  -0.723   1.064  0.00  0.00    -0.229 NA
ATOM      7  N   UNL     1       0.010  -2.899   2.154  0.00  0.00    -0.232 N 
ATOM      8  C   UNL     1       0.055  -2.503   3.567  0.00  0.00    +0.152 C 
ATOM      9  C   UNL     1       0.109  -3.787   4.362  0.00  0.00    +0.080 C 
ATOM     10  C   UNL     1       0.095  -4.802   3.465  0.00  0.00    +0.250 C 
ATOM     11  C   UNL     1       0.028  -4.243   2.101  0.00  0.00    +0.293 C 
ATOM     12  O   UNL     1      -0.003  -4.901   1.079  0.00  0.00    -0.266 OA
ATOM     13  O   UNL     1       0.133  -6.120   3.772  0.00  0.00    -0.282 OA
ATOM     14  C   UNL     1      -0.222  -0.286  -2.644  0.00  0.00    +0.053 C 
ENDROOT
BRANCH   8  15
ATOM     15  C   UNL     1       1.284  -1.674   3.834  0.00  0.00    -0.022 A 
ATOM     16  C   UNL     1       2.510  -2.074   3.335  0.00  0.00    +0.008 A 
ATOM     17  C   UNL     1       3.638  -1.314   3.580  0.00  0.00    +0.033 A 
ATOM     18  C   UNL     1       3.541  -0.153   4.325  0.00  0.00    +0.126 A 
ATOM     19  C   UNL     1       2.315   0.247   4.824  0.00  0.00    +0.033 A 
ATOM     20  C   UNL     1       1.186  -0.511   4.575  0.00  0.00    +0.008 A 
BRANCH  18  21
ATOM     21  N   UNL     1       4.749   0.660   4.589  0.00  0.00    +0.056 N 
ATOM     22  O   UNL     1       5.820   0.310   4.153  0.00  0.00    -0.126 OA
ATOM     23  O   UNL     1       4.663   1.675   5.240  0.00  0.00    -0.126 OA
ENDBRANCH  18  21
ENDBRANCH   8  15
BRANCH   9  24
ATOM     24  C   UNL     1       0.165  -3.911   5.822  0.00  0.00    +0.230 C 
ATOM     25  O   UNL     1       1.155  -4.377   6.356  0.00  0.00    -0.283 OA
BRANCH  24  26
ATOM     26  C   UNL     1      -0.973  -3.471   6.640  0.00  0.00    +0.176 A 
ATOM     27  C   UNL     1      -0.996  -3.445   8.001  0.00  0.00    +0.061 A 
ATOM     28  C   UNL     1      -2.317  -2.943   8.374  0.00  0.00    +0.021 A 
ATOM     29  C   UNL     1      -2.954  -2.687   9.591  0.00  0.00    +0.011 A 
ATOM     30  C   UNL     1      -4.232  -2.206   9.598  0.00  0.00    +0.001 A 
ATOM     31  C   UNL     1      -4.902  -1.969   8.405  0.00  0.00    +0.004 A 
ATOM     32  C   UNL     1      -4.291  -2.215   7.194  0.00  0.00    +0.047 A 
ATOM     33  C   UNL     1      -2.991  -2.704   7.161  0.00  0.00    +0.136 A 
ATOM     34  O   UNL     1      -2.152  -3.027   6.157  0.00  0.00    -0.452 OA
ENDBRANCH  24  26
ENDBRANCH   9  24
TORSDOF 4
