REMARK  Name = ZINC17082156
REMARK  8 active torsions:
REMARK  status: ('A' for Active; 'I' for Inactive)
REMARK    1  A    between atoms: C_4  and  S_7
REMARK    2  A    between atoms: S_7  and  N_10
REMARK    3  A    between atoms: N_10  and  N_11
REMARK    4  A    between atoms: C_12  and  C_13
REMARK    5  A    between atoms: C_16  and  C_18
REMARK    6  A    between atoms: C_18  and  O_19
REMARK    7  A    between atoms: O_19  and  C_20
REMARK    8  A    between atoms: C_23  and  N_26
REMARK                            x       y       z     vdW  Elec       q    Type
REMARK                         _______ _______ _______ _____ _____    ______ ____
ROOT
ATOM      1  C   UNL     1      -2.205   2.576   3.637  0.00  0.00    +0.148 A 
ATOM      2  C   UNL     1      -2.713   2.880   4.866  0.00  0.00    +0.051 A 
ATOM      3  C   UNL     1      -1.830   3.808   5.451  0.00  0.00    +0.049 A 
ATOM      4  C   UNL     1      -0.838   4.024   4.564  0.00  0.00    +0.143 A 
ATOM      5  O   UNL     1      -1.065   3.275   3.472  0.00  0.00    -0.455 OA
ENDROOT
BRANCH   1   7
ATOM      6  N   UNL     1      -2.257   1.504   1.493  0.00  0.00    -0.171 NA
ATOM      7  C   UNL     1      -2.795   1.646   2.668  0.00  0.00    +0.177 C 
BRANCH   6   8
ATOM      8  N   UNL     1      -1.207   2.344   1.097  0.00  0.00    -0.137 N 
ATOM      9  H   UNL     1      -0.945   3.090   1.659  0.00  0.00    +0.197 HD
BRANCH   8  10
ATOM     10  S   UNL     1      -0.416   2.064  -0.330  0.00  0.00    +0.086 S 
ATOM     11  O   UNL     1       0.022   0.713  -0.293  0.00  0.00    -0.149 OA
ATOM     12  O   UNL     1       0.481   3.151  -0.517  0.00  0.00    -0.149 OA
BRANCH  10  16
ATOM     13  C   UNL     1      -3.489   2.338  -3.642  0.00  0.00    +0.000 A 
ATOM     14  C   UNL     1      -2.800   3.468  -3.244  0.00  0.00    +0.002 A 
ATOM     15  C   UNL     1      -1.861   3.384  -2.233  0.00  0.00    +0.029 A 
ATOM     16  C   UNL     1      -1.612   2.171  -1.619  0.00  0.00    +0.110 A 
ATOM     17  C   UNL     1      -2.298   1.040  -2.021  0.00  0.00    +0.029 A 
ATOM     18  C   UNL     1      -3.240   1.124  -3.029  0.00  0.00    +0.002 A 
ENDBRANCH  10  16
ENDBRANCH   8  10
ENDBRANCH   6   8
ENDBRANCH   1   7
BRANCH   4  19
ATOM     19  C   UNL     1       0.334   4.949   4.766  0.00  0.00    +0.303 C 
BRANCH  19  20
ATOM     20  O   UNL     1       1.410   4.228   5.371  0.00  0.00    -0.484 OA
BRANCH  20  21
ATOM     21  C   UNL     1       2.552   4.921   5.624  0.00  0.00    +0.121 A 
ATOM     22  C   UNL     1       2.637   6.265   5.290  0.00  0.00    +0.048 A 
ATOM     23  C   UNL     1       3.797   6.968   5.552  0.00  0.00    +0.036 A 
ATOM     24  C   UNL     1       4.876   6.331   6.137  0.00  0.00    +0.126 A 
ATOM     25  C   UNL     1       4.795   4.990   6.465  0.00  0.00    +0.036 A 
ATOM     26  C   UNL     1       3.636   4.284   6.210  0.00  0.00    +0.048 A 
BRANCH  24  27
ATOM     27  N   UNL     1       6.119   7.085   6.412  0.00  0.00    +0.056 N 
ATOM     28  O   UNL     1       7.070   6.525   6.927  0.00  0.00    -0.126 OA
ATOM     29  O   UNL     1       6.192   8.266   6.123  0.00  0.00    -0.126 OA
ENDBRANCH  24  27
ENDBRANCH  20  21
ENDBRANCH  19  20
ENDBRANCH   4  19
TORSDOF 8
