REMARK  Name = ZINC24317743
REMARK  12 active torsions:
REMARK  status: ('A' for Active; 'I' for Inactive)
REMARK    1  A    between atoms: C_1  and  C_2
REMARK    2  A    between atoms: C_2  and  O_3
REMARK    3  A    between atoms: O_3  and  C_4
REMARK    4  A    between atoms: C_9  and  C_10
REMARK    5  A    between atoms: C_10  and  N_11
REMARK    6  A    between atoms: C_12  and  C_14
REMARK    7  A    between atoms: C_15  and  C_16
REMARK    8  A    between atoms: C_19  and  S_22
REMARK    9  A    between atoms: S_22  and  N_25
REMARK   10  A    between atoms: N_25  and  C_26
REMARK   11  A    between atoms: C_26  and  C_27
REMARK   12  A    between atoms: C_33  and  C_36
REMARK                            x       y       z     vdW  Elec       q    Type
REMARK                         _______ _______ _______ _____ _____    ______ ____
ROOT
ATOM      1  C   UNL     1       2.266  -3.642   2.914  0.00  0.00    +0.068 C 
ATOM      2  C   UNL     1       3.412  -4.315   3.140  0.00  0.00    +0.013 C 
ENDROOT
BRANCH   2   3
ATOM      3  C   UNL     1       3.968  -4.386   4.501  0.00  0.00    -0.025 A 
ATOM      4  C   UNL     1       3.313  -3.752   5.561  0.00  0.00    +0.010 A 
ATOM      5  C   UNL     1       3.837  -3.826   6.835  0.00  0.00    +0.029 A 
ATOM      6  C   UNL     1       5.014  -4.519   7.063  0.00  0.00    +0.105 A 
ATOM      7  C   UNL     1       5.670  -5.145   6.018  0.00  0.00    +0.029 A 
ATOM      8  C   UNL     1       5.156  -5.084   4.740  0.00  0.00    +0.010 A 
BRANCH   6   9
ATOM      9  S   UNL     1       5.679  -4.604   8.692  0.00  0.00    +0.059 S 
ATOM     10  O   UNL     1       4.593  -4.399   9.585  0.00  0.00    -0.153 OA
ATOM     11  O   UNL     1       6.494  -5.766   8.738  0.00  0.00    -0.153 OA
BRANCH   9  12
ATOM     12  N   UNL     1       6.693  -3.307   8.875  0.00  0.00    -0.183 NA
ATOM     13  H   UNL     1       7.781  -3.468   8.852  0.00  0.00    +0.148 HD
BRANCH  12  14
ATOM     14  C   UNL     1       6.153  -1.945   8.846  0.00  0.00    +0.180 C 
BRANCH  14  15
ATOM     15  C   UNL     1       7.180  -0.987   9.391  0.00  0.00    +0.120 A 
ATOM     16  C   UNL     1       8.120  -0.347   8.671  0.00  0.00    +0.046 A 
ATOM     17  C   UNL     1       8.861   0.445   9.576  0.00  0.00    +0.041 A 
ATOM     18  C   UNL     1       8.331   0.243  10.796  0.00  0.00    +0.195 A 
ATOM     19  O   UNL     1       7.309  -0.621  10.677  0.00  0.00    -0.466 OA
ENDBRANCH  14  15
ENDBRANCH  12  14
ENDBRANCH   9  12
ENDBRANCH   6   9
ENDBRANCH   2   3
BRANCH   1  21
ATOM     20  N   UNL     1       0.568  -2.898   1.333  0.00  0.00    -0.308 N 
ATOM     21  C   UNL     1       1.714  -3.571   1.560  0.00  0.00    +0.237 C 
ATOM     22  O   UNL     1       2.289  -4.120   0.638  0.00  0.00    -0.271 OA
ATOM     23  H   UNL     1       0.048  -2.402   2.166  0.00  0.00    +0.149 HD
BRANCH  20  24
ATOM     24  C   UNL     1       0.015  -2.827  -0.021  0.00  0.00    +0.143 C 
BRANCH  24  30
ATOM     25  C   UNL     1      -1.201  -0.638   0.010  0.00  0.00    +0.126 A 
ATOM     26  C   UNL     1      -2.378   0.099   0.025  0.00  0.00    +0.053 A 
ATOM     27  C   UNL     1      -3.593  -0.548   0.031  0.00  0.00    +0.001 A 
ATOM     28  C   UNL     1      -3.662  -1.935   0.018  0.00  0.00    +0.125 A 
ATOM     29  C   UNL     1      -2.478  -2.669   0.007  0.00  0.00    +0.054 A 
ATOM     30  C   UNL     1      -1.259  -2.023  -0.003  0.00  0.00    +0.015 A 
ATOM     31  O   UNL     1      -4.954  -2.365   0.011  0.00  0.00    -0.488 OA
ATOM     32  C   UNL     1      -5.810  -1.300   0.460  0.00  0.00    +0.175 C 
ATOM     33  C   UNL     1      -5.019  -0.033   0.057  0.00  0.00    +0.083 C 
ATOM     34  C   UNL     1      -6.000  -1.361   1.977  0.00  0.00    +0.052 C 
BRANCH  25  35
ATOM     35  O   UNL     1       0.002  -0.004   0.002  0.00  0.00    -0.492 OA
BRANCH  35  37
ATOM     36  C   UNL     1       1.418   1.954  -0.001  0.00  0.00    +0.048 C 
ATOM     37  C   UNL     1      -0.017   1.425   0.010  0.00  0.00    +0.225 C 
ENDBRANCH  35  37
ENDBRANCH  25  35
ENDBRANCH  24  30
ENDBRANCH  20  24
ENDBRANCH   1  21
TORSDOF 10
