REMARK  Name = ZINC39599048
REMARK  7 active torsions:
REMARK  status: ('A' for Active; 'I' for Inactive)
REMARK    1  A    between atoms: C_1  and  O_2
REMARK    2  A    between atoms: O_2  and  C_3
REMARK    3  A    between atoms: C_9  and  C_12
REMARK    4  A    between atoms: C_12  and  C_13
REMARK    5  A    between atoms: C_13  and  N_14
REMARK    6  A    between atoms: C_15  and  C_17
REMARK    7  A    between atoms: C_28  and  C_30
REMARK                            x       y       z     vdW  Elec       q    Type
REMARK                         _______ _______ _______ _____ _____    ______ ____
ROOT
ATOM      1  C   UNL     1      -2.368  -9.028  -0.397  0.00  0.00    +0.100 C 
ATOM      2  C   UNL     1      -2.231  -8.436   1.024  0.00  0.00    +0.121 C 
ATOM      3  N   UNL     1      -3.596  -7.974   1.370  0.00  0.00    -0.296 N 
ATOM      4  C   UNL     1      -4.490  -9.024   0.826  0.00  0.00    +0.115 C 
ATOM      5  C   UNL     1      -3.851  -9.416  -0.521  0.00  0.00    -0.004 C 
ATOM      6  C   UNL     1      -3.986 -10.918  -0.753  0.00  0.00    -0.010 C 
ATOM      7  C   UNL     1      -5.466 -11.271  -0.932  0.00  0.00    -0.082 C 
ATOM      8  N   UNL     1      -6.013 -10.529  -2.074  0.00  0.00    +0.379 N 
ATOM      9  C   UNL     1      -5.964  -9.087  -1.803  0.00  0.00    -0.082 C 
ATOM     10  C   UNL     1      -4.506  -8.641  -1.661  0.00  0.00    -0.010 C 
ATOM     11  C   UNL     1      -3.946  -6.853   2.031  0.00  0.00    +0.247 C 
ATOM     12  O   UNL     1      -3.103  -6.021   2.307  0.00  0.00    -0.270 OA
ATOM     13  H   UNL     1      -5.469 -10.733  -2.898  0.00  0.00    -0.086 HD
ATOM     14  H   UNL     1      -6.970 -10.809  -2.227  0.00  0.00    -0.086 HD
ENDROOT
BRANCH  11  15
ATOM     15  C   UNL     1      -5.355  -6.634   2.421  0.00  0.00    +0.037 A 
ATOM     16  C   UNL     1      -6.232  -7.715   2.514  0.00  0.00    +0.014 A 
ATOM     17  C   UNL     1      -7.545  -7.505   2.878  0.00  0.00    +0.021 A 
ATOM     18  C   UNL     1      -7.994  -6.223   3.152  0.00  0.00    +0.041 A 
ATOM     19  C   UNL     1      -7.128  -5.146   3.062  0.00  0.00    +0.021 A 
ATOM     20  C   UNL     1      -5.811  -5.345   2.704  0.00  0.00    +0.014 A 
ATOM     21 CL   UNL     1      -9.649  -5.966   3.609  0.00  0.00    -0.084 Cl
ENDBRANCH  11  15
BRANCH   1  23
ATOM     22  N   UNL     1      -1.596  -8.383  -2.656  0.00  0.00    -0.315 N 
ATOM     23  C   UNL     1      -2.007  -7.995  -1.433  0.00  0.00    +0.218 C 
ATOM     24  O   UNL     1      -2.087  -6.814  -1.166  0.00  0.00    -0.275 OA
ATOM     25  H   UNL     1      -1.532  -9.327  -2.870  0.00  0.00    +0.149 HD
BRANCH  22  26
ATOM     26  C   UNL     1      -1.245  -7.378  -3.663  0.00  0.00    +0.109 C 
BRANCH  26  27
ATOM     27  C   UNL     1      -0.814  -8.079  -4.953  0.00  0.00    +0.056 C 
BRANCH  27  34
ATOM     28  C   UNL     1       3.125  -5.686  -5.874  0.00  0.00    +0.121 A 
ATOM     29  C   UNL     1       2.985  -4.819  -6.954  0.00  0.00    +0.047 A 
ATOM     30  C   UNL     1       1.789  -4.729  -7.631  0.00  0.00    +0.030 A 
ATOM     31  C   UNL     1       0.707  -5.508  -7.236  0.00  0.00    +0.047 A 
ATOM     32  N   UNL     1      -0.586  -5.638  -7.700  0.00  0.00    -0.360 N 
ATOM     33  C   UNL     1      -1.260  -6.558  -6.945  0.00  0.00    +0.087 A 
ATOM     34  C   UNL     1      -0.453  -7.046  -5.990  0.00  0.00    -0.021 A 
ATOM     35  C   UNL     1       0.845  -6.384  -6.145  0.00  0.00    +0.006 A 
ATOM     36  C   UNL     1       2.064  -6.471  -5.470  0.00  0.00    +0.056 A 
ATOM     37  H   UNL     1      -0.961  -5.149  -8.449  0.00  0.00    +0.165 HD
BRANCH  28  39
ATOM     38  C   UNL     1       5.372  -4.927  -5.690  0.00  0.00    +0.277 C 
ATOM     39  O   UNL     1       4.314  -5.763  -5.217  0.00  0.00    -0.495 OA
ENDBRANCH  28  39
ENDBRANCH  27  34
ENDBRANCH  26  27
ENDBRANCH  22  26
ENDBRANCH   1  23
TORSDOF 6
