REMARK  Name = ZINC12523965
REMARK  7 active torsions:
REMARK  status: ('A' for Active; 'I' for Inactive)
REMARK    1  A    between atoms: C_1  and  C_2
REMARK    2  A    between atoms: C_5  and  S_8
REMARK    3  A    between atoms: S_8  and  N_11
REMARK    4  A    between atoms: C_12  and  C_13
REMARK    5  A    between atoms: C_12  and  N_19
REMARK    6  A    between atoms: N_19  and  C_20
REMARK    7  A    between atoms: C_23  and  N_26
REMARK                            x       y       z     vdW  Elec       q    Type
REMARK                         _______ _______ _______ _____ _____    ______ ____
ROOT
ATOM      1  N   UNL     1       2.105  -5.193  -0.583  0.00  0.00    -0.111 NA
ATOM      2  C   UNL     1       2.194  -6.421  -0.158  0.00  0.00    +0.172 C 
ENDROOT
BRANCH   2   3
ATOM      3  C   UNL     1       1.037  -7.335  -0.287  0.00  0.00    +0.018 A 
ATOM      4  C   UNL     1       0.470  -7.575  -1.538  0.00  0.00    +0.011 A 
ATOM      5  C   UNL     1      -0.609  -8.428  -1.652  0.00  0.00    +0.001 A 
ATOM      6  C   UNL     1      -1.127  -9.045  -0.528  0.00  0.00    +0.000 A 
ATOM      7  C   UNL     1      -0.569  -8.811   0.717  0.00  0.00    +0.001 A 
ATOM      8  C   UNL     1       0.513  -7.965   0.842  0.00  0.00    +0.011 A 
ENDBRANCH   2   3
BRANCH   1   9
ATOM      9  S   UNL     1       0.647  -4.599  -1.098  0.00  0.00    +0.100 S 
ATOM     10  O   UNL     1      -0.240  -4.684   0.009  0.00  0.00    -0.146 OA
ATOM     11  O   UNL     1       0.373  -5.223  -2.345  0.00  0.00    -0.146 OA
BRANCH   9  16
ATOM     12  C   UNL     1       1.414   1.275  -2.243  0.00  0.00    +0.044 C 
ATOM     13  C   UNL     1       1.223  -0.192  -1.957  0.00  0.00    -0.050 A 
ATOM     14  C   UNL     1       1.430  -1.124  -2.957  0.00  0.00    +0.005 A 
ATOM     15  C   UNL     1       1.255  -2.470  -2.694  0.00  0.00    +0.029 A 
ATOM     16  C   UNL     1       0.872  -2.884  -1.432  0.00  0.00    +0.113 A 
ATOM     17  C   UNL     1       0.665  -1.952  -0.432  0.00  0.00    +0.029 A 
ATOM     18  C   UNL     1       0.845  -0.606  -0.693  0.00  0.00    +0.005 A 
ENDBRANCH   9  16
ENDBRANCH   1   9
BRANCH   2  19
ATOM     19  N   UNL     1       3.368  -6.870   0.411  0.00  0.00    -0.194 NA
BRANCH  19  20
ATOM     20  C   UNL     1       4.217  -5.970   1.062  0.00  0.00    +0.056 A 
ATOM     21  C   UNL     1       3.746  -4.722   1.449  0.00  0.00    +0.027 A 
ATOM     22  C   UNL     1       4.588  -3.836   2.091  0.00  0.00    +0.034 A 
ATOM     23  C   UNL     1       5.900  -4.191   2.350  0.00  0.00    +0.126 A 
ATOM     24  C   UNL     1       6.372  -5.432   1.966  0.00  0.00    +0.034 A 
ATOM     25  C   UNL     1       5.534  -6.325   1.329  0.00  0.00    +0.027 A 
BRANCH  23  26
ATOM     26  N   UNL     1       6.800  -3.238   3.039  0.00  0.00    +0.056 N 
ATOM     27  O   UNL     1       6.388  -2.152   3.374  0.00  0.00    -0.126 OA
ATOM     28  O   UNL     1       7.947  -3.547   3.265  0.00  0.00    -0.126 OA
ENDBRANCH  23  26
ENDBRANCH  19  20
ENDBRANCH   2  19
TORSDOF 6
