REMARK  Name = ZINC21037826
REMARK  9 active torsions:
REMARK  status: ('A' for Active; 'I' for Inactive)
REMARK    1  A    between atoms: C_1  and  N_2
REMARK    2  A    between atoms: N_2  and  C_3
REMARK    3  A    between atoms: N_2  and  C_4
REMARK    4  A    between atoms: C_7  and  N_10
REMARK    5  A    between atoms: C_11  and  C_13
REMARK    6  A    between atoms: C_13  and  S_14
REMARK    7  A    between atoms: S_14  and  C_15
REMARK    8  A    between atoms: N_20  and  N_21
REMARK    9  A    between atoms: C_22  and  C_23
REMARK                            x       y       z     vdW  Elec       q    Type
REMARK                         _______ _______ _______ _____ _____    ______ ____
ROOT
ATOM      1  C   UNL     1      -0.018   1.360   0.018  0.00  0.00    +0.211 A 
ATOM      2  N   UNL     1       0.001  -0.005   0.009  0.00  0.00    -0.186 NA
ATOM      3  C   UNL     1       1.306  -0.411   0.005  0.00  0.00    +0.232 A 
ATOM      4  N   UNL     1       2.063   0.660   0.010  0.00  0.00    -0.245 N 
ATOM      5  N   UNL     1       1.224   1.782   0.018  0.00  0.00    -0.144 NA
ATOM      6  N   UNL     1       1.753  -1.724  -0.004  0.00  0.00    -0.205 N 
ATOM      7  H   UNL     1       1.028  -2.551  -0.007  0.00  0.00    +0.177 HD
ATOM      8  H   UNL     1       3.158   0.560   0.007  0.00  0.00    +0.192 HD
ENDROOT
BRANCH   6   9
ATOM      9  N   UNL     1       3.127  -1.997  -0.008  0.00  0.00    -0.188 NA
ATOM     10  C   UNL     1       3.545  -3.227  -0.015  0.00  0.00    +0.138 C 
BRANCH  10  11
ATOM     11  C   UNL     1       4.991  -3.514  -0.020  0.00  0.00    -0.004 A 
ATOM     12  C   UNL     1       5.444  -4.836  -0.028  0.00  0.00    +0.009 A 
ATOM     13  C   UNL     1       6.798  -5.098  -0.033  0.00  0.00    +0.002 A 
ATOM     14  C   UNL     1       7.708  -4.055  -0.029  0.00  0.00    +0.015 A 
ATOM     15  C   UNL     1       7.266  -2.743  -0.021  0.00  0.00    +0.018 A 
ATOM     16  C   UNL     1       5.914  -2.466  -0.021  0.00  0.00    +0.024 A 
ATOM     17 BR   UNL     1       8.519  -1.326  -0.016  0.00  0.00    -0.050 Br
ENDBRANCH  10  11
ENDBRANCH   6   9
BRANCH   1  18
ATOM     18  S   UNL     1      -1.457   2.377   0.020  0.00  0.00    -0.075 S 
BRANCH  18  19
ATOM     19  C   UNL     1      -0.800   4.067   0.032  0.00  0.00    +0.173 C 
BRANCH  19  21
ATOM     20  N   UNL     1      -1.693   6.375   0.043  0.00  0.00    -0.285 N 
ATOM     21  C   UNL     1      -1.943   5.050   0.035  0.00  0.00    +0.227 C 
ATOM     22  O   UNL     1      -3.088   4.649   0.029  0.00  0.00    -0.275 OA
ATOM     23  H   UNL     1      -0.658   6.738   0.125  0.00  0.00    +0.155 HD
BRANCH  20  27
ATOM     24  C   UNL     1      -4.843   9.094  -0.240  0.00  0.00    +0.029 A 
ATOM     25  C   UNL     1      -5.015   7.901   0.451  0.00  0.00    +0.025 A 
ATOM     26  C   UNL     1      -3.972   7.001   0.544  0.00  0.00    +0.025 A 
ATOM     27  C   UNL     1      -2.751   7.288  -0.052  0.00  0.00    +0.034 A 
ATOM     28  C   UNL     1      -2.577   8.483  -0.737  0.00  0.00    +0.025 A 
ATOM     29  C   UNL     1      -3.621   9.381  -0.836  0.00  0.00    +0.025 A 
BRANCH  24  31
ATOM     30  C   UNL     1      -7.150   9.755   0.385  0.00  0.00    +0.129 C 
ATOM     31  N   UNL     1      -5.899  10.006  -0.335  0.00  0.00    -0.336 N 
ATOM     32  C   UNL     1      -5.755  11.211  -1.155  0.00  0.00    +0.129 C 
ENDBRANCH  24  31
ENDBRANCH  20  27
ENDBRANCH  19  21
ENDBRANCH  18  19
ENDBRANCH   1  18
TORSDOF 7
