REMARK  Name = ZINC36597490
REMARK  14 active torsions:
REMARK  status: ('A' for Active; 'I' for Inactive)
REMARK    1  A    between atoms: C_1  and  C_2
REMARK    2  A    between atoms: C_5  and  C_7
REMARK    3  A    between atoms: C_7  and  N_8
REMARK    4  A    between atoms: N_8  and  C_9
REMARK    5  A    between atoms: C_9  and  C_11
REMARK    6  A    between atoms: C_9  and  C_18
REMARK    7  A    between atoms: C_16  and  O_17
REMARK    8  A    between atoms: N_20  and  C_21
REMARK    9  A    between atoms: C_21  and  C_22
REMARK   10  A    between atoms: C_21  and  C_23
REMARK   11  A    between atoms: C_21  and  C_24
REMARK   12  A    between atoms: C_25  and  C_27
REMARK   13  A    between atoms: C_28  and  O_34
REMARK   14  A    between atoms: C_32  and  O_33
REMARK                            x       y       z     vdW  Elec       q    Type
REMARK                         _______ _______ _______ _____ _____    ______ ____
ROOT
ATOM      1  N   UNL     1       2.328  -3.656  -1.077  0.00  0.00    -0.274 N 
ATOM      2  C   UNL     1       2.467  -3.504   0.255  0.00  0.00    +0.255 C 
ATOM      3  O   UNL     1       3.286  -2.720   0.695  0.00  0.00    -0.270 OA
ENDROOT
BRANCH   2   4
ATOM      4  C   UNL     1       1.627  -4.287   1.176  0.00  0.00    +0.119 A 
ATOM      5  C   UNL     1       2.061  -5.539   1.636  0.00  0.00    +0.133 A 
ATOM      6  C   UNL     1       1.263  -6.267   2.503  0.00  0.00    +0.046 A 
ATOM      7  C   UNL     1       0.043  -5.763   2.916  0.00  0.00    +0.007 A 
ATOM      8  C   UNL     1      -0.394  -4.531   2.468  0.00  0.00    +0.046 A 
ATOM      9  C   UNL     1       0.391  -3.783   1.605  0.00  0.00    +0.133 A 
BRANCH   9  10
ATOM     10  O   UNL     1      -0.038  -2.571   1.172  0.00  0.00    -0.506 OA
ATOM     11  H   UNL     1      -0.558  -2.606   0.358  0.00  0.00    +0.292 HD
ENDBRANCH   9  10
BRANCH   5  12
ATOM     12  O   UNL     1       3.257  -6.036   1.233  0.00  0.00    -0.506 OA
ATOM     13  H   UNL     1       3.998  -5.790   1.804  0.00  0.00    +0.292 HD
ENDBRANCH   5  12
ENDBRANCH   2   4
BRANCH   1  14
ATOM     14  C   UNL     1       1.265  -4.511  -1.610  0.00  0.00    +0.183 C 
BRANCH  14  19
ATOM     15  C   UNL     1       3.559  -8.308  -4.010  0.00  0.00    +0.086 C 
ATOM     16  C   UNL     1       2.820  -7.530  -2.952  0.00  0.00    +0.102 A 
ATOM     17  C   UNL     1       2.403  -8.013  -1.768  0.00  0.00    +0.045 A 
ATOM     18  C   UNL     1       1.760  -6.949  -1.095  0.00  0.00    +0.046 A 
ATOM     19  C   UNL     1       1.823  -5.879  -1.909  0.00  0.00    +0.122 A 
ATOM     20  O   UNL     1       2.471  -6.236  -3.030  0.00  0.00    -0.463 OA
ENDBRANCH  14  19
ENDBRANCH   1  14
BRANCH   1  21
ATOM     21  C   UNL     1       3.241  -2.965  -1.992  0.00  0.00    +0.196 C 
BRANCH  21  22
ATOM     22  C   UNL     1       2.996  -1.480  -1.920  0.00  0.00    +0.023 A 
ATOM     23  C   UNL     1       2.317  -0.943  -0.843  0.00  0.00    +0.009 A 
ATOM     24  C   UNL     1       2.091   0.419  -0.776  0.00  0.00    +0.001 A 
ATOM     25  C   UNL     1       2.545   1.248  -1.786  0.00  0.00    +0.004 A 
ATOM     26  C   UNL     1       3.225   0.716  -2.864  0.00  0.00    +0.046 A 
ATOM     27  C   UNL     1       3.457  -0.650  -2.931  0.00  0.00    +0.122 A 
BRANCH  27  28
ATOM     28  O   UNL     1       4.131  -1.176  -3.988  0.00  0.00    -0.506 OA
ATOM     29  H   UNL     1       3.564  -1.432  -4.728  0.00  0.00    +0.292 HD
ENDBRANCH  27  28
ENDBRANCH  21  22
BRANCH  21  30
ATOM     30  C   UNL     1       4.665  -3.260  -1.598  0.00  0.00    +0.239 C 
ATOM     31  O   UNL     1       4.896  -3.975  -0.647  0.00  0.00    -0.273 OA
ATOM     32  N   UNL     1       5.683  -2.727  -2.303  0.00  0.00    -0.309 N 
ATOM     33  H   UNL     1       5.499  -2.155  -3.064  0.00  0.00    +0.149 HD
BRANCH  32  34
ATOM     34  C   UNL     1       7.068  -3.013  -1.920  0.00  0.00    +0.026 C 
ATOM     35  C   UNL     1       7.316  -4.521  -1.994  0.00  0.00    +0.031 C 
ATOM     36  C   UNL     1       8.021  -2.292  -2.876  0.00  0.00    +0.031 C 
ATOM     37  C   UNL     1       7.313  -2.525  -0.491  0.00  0.00    +0.031 C 
ENDBRANCH  32  34
ENDBRANCH  21  30
ENDBRANCH   1  21
TORSDOF 10
