REMARK  Name = ZINC16345608
REMARK  13 active torsions:
REMARK  status: ('A' for Active; 'I' for Inactive)
REMARK    1  A    between atoms: C_1  and  C_2
REMARK    2  A    between atoms: C_2  and  O_3
REMARK    3  A    between atoms: O_3  and  C_4
REMARK    4  A    between atoms: C_4  and  C_6
REMARK    5  A    between atoms: C_7  and  C_33
REMARK    6  A    between atoms: C_8  and  C_28
REMARK    7  A    between atoms: C_10  and  N_11
REMARK    8  A    between atoms: N_11  and  C_12
REMARK    9  A    between atoms: C_12  and  N_14
REMARK   10  A    between atoms: C_20  and  C_22
REMARK   11  A    between atoms: C_28  and  O_30
REMARK   12  A    between atoms: O_30  and  C_31
REMARK   13  A    between atoms: C_31  and  C_32
REMARK                            x       y       z     vdW  Elec       q    Type
REMARK                         _______ _______ _______ _____ _____    ______ ____
ROOT
ATOM      1  N   UNL     1      -0.288   2.567   4.794  0.00  0.00    -0.291 N 
ATOM      2  H   UNL     1       0.655   2.481   5.000  0.00  0.00    +0.154 HD
ENDROOT
BRANCH   1   7
ATOM      3  C   UNL     1      -0.024   1.800   2.425  0.00  0.00    +0.091 A 
ATOM      4  C   UNL     1      -0.722   1.553   1.253  0.00  0.00    -0.014 A 
ATOM      5  C   UNL     1      -2.073   1.776   1.259  0.00  0.00    +0.102 A 
ATOM      6  S   UNL     1      -2.373   2.328   2.927  0.00  0.00    -0.066 S 
ATOM      7  C   UNL     1      -0.750   2.255   3.532  0.00  0.00    +0.086 A 
ATOM      8  C   UNL     1      -0.018   1.062   0.015  0.00  0.00    +0.046 C 
BRANCH   3   9
ATOM      9  C   UNL     1       1.426   1.593   2.502  0.00  0.00    +0.342 C 
ATOM     10  O   UNL     1       2.186   2.502   2.230  0.00  0.00    -0.245 OA
BRANCH   9  11
ATOM     11  O   UNL     1       1.916   0.393   2.876  0.00  0.00    -0.461 OA
BRANCH  11  13
ATOM     12  C   UNL     1       3.726  -1.159   3.370  0.00  0.00    +0.048 C 
ATOM     13  C   UNL     1       3.361   0.260   2.930  0.00  0.00    +0.229 C 
ENDBRANCH  11  13
ENDBRANCH   9  11
ENDBRANCH   3   9
BRANCH   5  14
ATOM     14  C   UNL     1      -3.032   1.603   0.169  0.00  0.00    +0.346 C 
ATOM     15  O   UNL     1      -2.652   1.210  -0.919  0.00  0.00    -0.244 OA
BRANCH  14  16
ATOM     16  O   UNL     1      -4.338   1.877   0.368  0.00  0.00    -0.461 OA
BRANCH  16  17
ATOM     17  C   UNL     1      -5.218   1.685  -0.741  0.00  0.00    +0.229 C 
ATOM     18  C   UNL     1      -6.646   2.044  -0.327  0.00  0.00    +0.048 C 
ENDBRANCH  16  17
ENDBRANCH  14  16
ENDBRANCH   5  14
ENDBRANCH   1   7
BRANCH   1  19
ATOM     19  C   UNL     1      -1.148   2.994   5.740  0.00  0.00    +0.138 C 
ATOM     20  S   UNL     1      -2.789   3.276   5.341  0.00  0.00    -0.018 S 
BRANCH  19  21
ATOM     21  N   UNL     1      -0.717   3.197   7.001  0.00  0.00    -0.309 N 
ATOM     22  C   UNL     1       0.708   3.063   7.334  0.00  0.00    +0.126 C 
ATOM     23  C   UNL     1       1.178   4.371   7.992  0.00  0.00    +0.127 C 
ATOM     24  N   UNL     1       0.231   4.726   9.059  0.00  0.00    -0.296 N 
ATOM     25  C   UNL     1      -1.194   4.855   8.726  0.00  0.00    +0.127 C 
ATOM     26  C   UNL     1      -1.664   3.552   8.067  0.00  0.00    +0.126 C 
ATOM     27  C   UNL     1       0.663   4.928  10.319  0.00  0.00    +0.245 C 
ATOM     28  O   UNL     1      -0.128   5.220  11.191  0.00  0.00    -0.273 OA
BRANCH  27  29
ATOM     29  C   UNL     1       2.128   4.793  10.645  0.00  0.00    +0.204 C 
ATOM     30  C   UNL     1       2.931   5.886   9.914  0.00  0.00    +0.043 C 
ATOM     31  C   UNL     1       3.640   6.661  11.052  0.00  0.00    +0.031 C 
ATOM     32  C   UNL     1       3.614   5.632  12.211  0.00  0.00    +0.161 C 
ATOM     33  O   UNL     1       2.334   4.978  12.056  0.00  0.00    -0.367 OA
ENDBRANCH  27  29
ENDBRANCH  19  21
ENDBRANCH   1  19
TORSDOF 10
