REMARK  Name = ZINC03898770
REMARK  4 active torsions:
REMARK  status: ('A' for Active; 'I' for Inactive)
REMARK    1  A    between atoms: C_2  and  C_9
REMARK    2  A    between atoms: C_5  and  N_6
REMARK    3  A    between atoms: N_10  and  N_11
REMARK    4  A    between atoms: C_12  and  C_14
REMARK                            x       y       z     vdW  Elec       q    Type
REMARK                         _______ _______ _______ _____ _____    ______ ____
ROOT
ATOM      1  N   UNL     1       0.002  -0.004   0.002  0.00  0.00    -0.207 N 
ATOM      2  C   UNL     1      -1.156  -0.694   0.009  0.00  0.00    +0.238 C 
ATOM      3  O   UNL     1      -2.215  -0.102   0.023  0.00  0.00    -0.273 OA
ATOM      4  H   UNL     1       0.849  -0.478  -0.009  0.00  0.00    +0.177 HD
ENDROOT
BRANCH   2   5
ATOM      5  C   UNL     1      -1.135  -2.201   0.001  0.00  0.00    +0.049 C 
ATOM      6  C   UNL     1      -0.419  -2.694  -1.258  0.00  0.00    +0.019 C 
ATOM      7  C   UNL     1      -0.399  -4.224  -1.266  0.00  0.00    -0.009 C 
ATOM      8  C   UNL     1      -1.834  -4.753  -1.255  0.00  0.00    +0.007 C 
ATOM      9  C   UNL     1      -2.550  -4.260   0.004  0.00  0.00    -0.009 C 
ATOM     10  C   UNL     1      -2.571  -2.730   0.012  0.00  0.00    +0.019 C 
ATOM     11  C   UNL     1      -1.810  -4.767   1.243  0.00  0.00    +0.007 C 
ATOM     12  C   UNL     1      -0.375  -4.237   1.232  0.00  0.00    -0.009 C 
ATOM     13  C   UNL     1       0.342  -4.731  -0.027  0.00  0.00    +0.007 C 
ATOM     14  C   UNL     1      -0.395  -2.707   1.241  0.00  0.00    +0.019 C 
ENDBRANCH   2   5
BRANCH   1  16
ATOM     15  C   UNL     1       1.098   2.061   0.003  0.00  0.00    +0.139 C 
ATOM     16  N   UNL     1      -0.017   1.397   0.010  0.00  0.00    -0.188 NA
BRANCH  15  18
ATOM     17  C   UNL     1       2.298   4.298   0.009  0.00  0.00    +0.050 A 
ATOM     18  C   UNL     1       1.078   3.535   0.011  0.00  0.00    +0.004 A 
ATOM     19  C   UNL     1      -0.102   4.229   0.026  0.00  0.00    +0.057 A 
ATOM     20  S   UNL     1       0.449   5.925   0.030  0.00  0.00    -0.072 S 
ATOM     21  C   UNL     1       2.210   5.644   0.012  0.00  0.00    +0.164 A 
BRANCH  21  22
ATOM     22  N   UNL     1       3.304   6.641   0.007  0.00  0.00    +0.063 N 
ATOM     23  O   UNL     1       4.464   6.272  -0.007  0.00  0.00    -0.126 OA
ATOM     24  O   UNL     1       3.043   7.831   0.017  0.00  0.00    -0.126 OA
ENDBRANCH  21  22
ENDBRANCH  15  18
ENDBRANCH   1  16
TORSDOF 4
