REMARK  Name = ZINC36151030
REMARK  14 active torsions:
REMARK  status: ('A' for Active; 'I' for Inactive)
REMARK    1  A    between atoms: C_1  and  C_2
REMARK    2  A    between atoms: C_2  and  C_3
REMARK    3  A    between atoms: C_3  and  N_4
REMARK    4  A    between atoms: N_4  and  C_5
REMARK    5  A    between atoms: N_4  and  C_23
REMARK    6  A    between atoms: C_5  and  C_6
REMARK    7  A    between atoms: C_7  and  C_17
REMARK    8  A    between atoms: C_10  and  N_11
REMARK    9  A    between atoms: C_23  and  C_24
REMARK   10  A    between atoms: C_24  and  C_26
REMARK   11  A    between atoms: C_24  and  O_34
REMARK   12  A    between atoms: C_26  and  O_27
REMARK   13  A    between atoms: O_27  and  C_28
REMARK   14  A    between atoms: C_28  and  C_29
REMARK                            x       y       z     vdW  Elec       q    Type
REMARK                         _______ _______ _______ _____ _____    ______ ____
ROOT
ATOM      1  C   UNL     1      -2.036  -2.227  -0.470  0.00  0.00    -0.035 C 
ENDROOT
BRANCH   1   2
ATOM      2  C   UNL     1      -2.583  -2.022  -1.859  0.00  0.00    +0.025 A 
ATOM      3  C   UNL     1      -3.596  -1.111  -2.225  0.00  0.00    +0.117 A 
ATOM      4  N   UNL     1      -3.796  -1.226  -3.518  0.00  0.00    -0.076 NA
ATOM      5  O   UNL     1      -2.912  -2.217  -4.011  0.00  0.00    -0.339 OA
ATOM      6  C   UNL     1      -2.186  -2.678  -2.979  0.00  0.00    +0.222 A 
BRANCH   6   7
ATOM      7  N   UNL     1      -1.206  -3.651  -3.045  0.00  0.00    -0.295 N 
ATOM      8  C   UNL     1      -1.551  -5.080  -2.972  0.00  0.00    +0.136 C 
ATOM      9  C   UNL     1      -0.878  -5.801  -4.145  0.00  0.00    +0.179 C 
ATOM     10  O   UNL     1       0.516  -5.484  -4.155  0.00  0.00    -0.377 OA
ATOM     11  C   UNL     1       0.800  -4.098  -4.355  0.00  0.00    +0.179 C 
ATOM     12  C   UNL     1       0.213  -3.289  -3.198  0.00  0.00    +0.136 C 
ENDBRANCH   6   7
BRANCH   3  13
ATOM     13  C   UNL     1      -4.311  -0.186  -1.310  0.00  0.00    +0.004 A 
ATOM     14  C   UNL     1      -4.741  -0.630  -0.062  0.00  0.00    +0.010 A 
ATOM     15  C   UNL     1      -5.404   0.235   0.785  0.00  0.00    +0.001 A 
ATOM     16  C   UNL     1      -5.642   1.541   0.396  0.00  0.00    +0.000 A 
ATOM     17  C   UNL     1      -5.216   1.987  -0.842  0.00  0.00    +0.001 A 
ATOM     18  C   UNL     1      -4.548   1.132  -1.694  0.00  0.00    +0.010 A 
ENDBRANCH   3  13
ENDBRANCH   1   2
BRANCH   1  19
ATOM     19  N   UNL     1      -0.810  -1.434  -0.305  0.00  0.00    +0.384 N 
ATOM     20  H   UNL     1      -0.155  -1.672  -1.035  0.00  0.00    -0.081 HD
BRANCH  19  21
ATOM     21  C   UNL     1      -1.137  -0.004  -0.387  0.00  0.00    -0.079 C 
BRANCH  21  23
ATOM     22  C   UNL     1      -0.176   2.294  -0.580  0.00  0.00    +0.002 C 
ATOM     23  C   UNL     1       0.154   0.816  -0.358  0.00  0.00    -0.022 C 
ENDBRANCH  21  23
ENDBRANCH  19  21
BRANCH  19  24
ATOM     24  C   UNL     1      -0.211  -1.725   1.004  0.00  0.00    -0.044 C 
BRANCH  24  25
ATOM     25  C   UNL     1       0.266  -3.179   1.035  0.00  0.00    +0.124 C 
BRANCH  25  26
ATOM     26  O   UNL     1       1.322  -3.353   0.088  0.00  0.00    -0.391 OA
ATOM     27  H   UNL     1       2.123  -2.853   0.295  0.00  0.00    +0.210 HD
ENDBRANCH  25  26
BRANCH  25  28
ATOM     28  C   UNL     1       0.777  -3.519   2.436  0.00  0.00    +0.189 C 
BRANCH  28  29
ATOM     29  O   UNL     1       1.113  -4.906   2.497  0.00  0.00    -0.370 OA
BRANCH  29  30
ATOM     30  C   UNL     1       1.603  -5.330   3.771  0.00  0.00    +0.234 C 
BRANCH  30  31
ATOM     31  C   UNL     1       1.925  -6.801   3.721  0.00  0.00    +0.130 A 
ATOM     32  C   UNL     1       3.113  -7.336   3.386  0.00  0.00    +0.047 A 
ATOM     33  C   UNL     1       2.970  -8.739   3.472  0.00  0.00    +0.041 A 
ATOM     34  C   UNL     1       1.702  -8.979   3.855  0.00  0.00    +0.195 A 
ATOM     35  O   UNL     1       1.076  -7.801   4.010  0.00  0.00    -0.465 OA
ENDBRANCH  30  31
ENDBRANCH  29  30
ENDBRANCH  28  29
ENDBRANCH  25  28
ENDBRANCH  24  25
ENDBRANCH  19  24
ENDBRANCH   1  19
TORSDOF 13
