REMARK  Name = ZINC02344757
REMARK  10 active torsions:
REMARK  status: ('A' for Active; 'I' for Inactive)
REMARK    1  A    between atoms: C_6  and  C_7
REMARK    2  A    between atoms: C_8  and  C_9
REMARK    3  A    between atoms: C_8  and  N_19
REMARK    4  A    between atoms: N_11  and  C_12
REMARK    5  A    between atoms: C_12  and  C_13
REMARK    6  A    between atoms: C_13  and  C_14
REMARK    7  A    between atoms: C_14  and  C_15
REMARK    8  A    between atoms: C_15  and  C_16
REMARK    9  A    between atoms: C_16  and  C_17
REMARK   10  A    between atoms: C_20  and  C_22
REMARK                            x       y       z     vdW  Elec       q    Type
REMARK                         _______ _______ _______ _____ _____    ______ ____
ROOT
ATOM      1  C   UNL     1      -0.101   1.492  -0.160  0.00  0.00    +0.036 C 
ATOM      2  C   UNL     1       1.028   2.099   0.276  0.00  0.00    +0.097 C 
ENDROOT
BRANCH   1   8
ATOM      3  C   UNL     1       0.920  -0.162  -1.711  0.00  0.00    +0.012 A 
ATOM      4  C   UNL     1       0.984  -1.431  -2.243  0.00  0.00    +0.050 A 
ATOM      5  C   UNL     1       0.097  -2.412  -1.820  0.00  0.00    +0.166 A 
ATOM      6  C   UNL     1      -0.862  -2.117  -0.850  0.00  0.00    +0.167 A 
ATOM      7  C   UNL     1      -0.929  -0.849  -0.308  0.00  0.00    +0.057 A 
ATOM      8  C   UNL     1      -0.034   0.140  -0.734  0.00  0.00    -0.019 A 
ATOM      9  O   UNL     1      -1.602  -3.240  -0.614  0.00  0.00    -0.453 OA
ATOM     10  C   UNL     1      -0.826  -4.330  -1.146  0.00  0.00    +0.466 C 
ATOM     11  O   UNL     1      -0.046  -3.717  -2.189  0.00  0.00    -0.453 OA
ENDBRANCH   1   8
BRANCH   2  12
ATOM     12  C   UNL     1       2.275   1.331   0.398  0.00  0.00    +0.258 C 
ATOM     13  O   UNL     1       2.265   0.125   0.235  0.00  0.00    -0.269 OA
ATOM     14  N   UNL     1       3.429   1.962   0.690  0.00  0.00    -0.310 N 
ATOM     15  H   UNL     1       3.437   2.924   0.819  0.00  0.00    +0.149 HD
BRANCH  14  16
ATOM     16  C   UNL     1       4.672   1.197   0.812  0.00  0.00    +0.104 C 
BRANCH  16  17
ATOM     17  C   UNL     1       5.825   2.146   1.146  0.00  0.00    +0.019 C 
BRANCH  17  18
ATOM     18  C   UNL     1       7.123   1.346   1.273  0.00  0.00    +0.002 C 
BRANCH  18  19
ATOM     19  C   UNL     1       8.276   2.295   1.607  0.00  0.00    +0.011 C 
BRANCH  19  20
ATOM     20  C   UNL     1       9.574   1.495   1.735  0.00  0.00    +0.125 C 
BRANCH  20  21
ATOM     21  C   UNL     1      10.709   2.430   2.064  0.00  0.00    +0.356 C 
ATOM     22  O   UNL     1      10.501   3.614   2.184  0.00  0.00    -0.246 OA
ATOM     23  O   UNL     1      11.951   1.947   2.223  0.00  0.00    -0.246 OA
ENDBRANCH  20  21
ENDBRANCH  19  20
ENDBRANCH  18  19
ENDBRANCH  17  18
ENDBRANCH  16  17
ENDBRANCH  14  16
ENDBRANCH   2  12
BRANCH   2  24
ATOM     24  N   UNL     1       1.008   3.457   0.609  0.00  0.00    -0.275 N 
ATOM     25  C   UNL     1       1.328   3.849   1.858  0.00  0.00    +0.284 C 
ATOM     26  O   UNL     1       1.722   3.032   2.670  0.00  0.00    -0.266 OA
ATOM     27  H   UNL     1       0.763   4.117  -0.058  0.00  0.00    +0.155 HD
BRANCH  25  28
ATOM     28  C   UNL     1       1.202   5.258   2.239  0.00  0.00    +0.191 A 
ATOM     29  C   UNL     1       1.491   5.787   3.465  0.00  0.00    +0.056 A 
ATOM     30  C   UNL     1       1.227   7.163   3.383  0.00  0.00    +0.058 A 
ATOM     31  C   UNL     1       0.793   7.411   2.126  0.00  0.00    +0.171 A 
ATOM     32  O   UNL     1       0.785   6.262   1.438  0.00  0.00    -0.444 OA
ATOM     33 BR   UNL     1       0.289   9.103   1.449  0.00  0.00    -0.008 Br
ENDBRANCH  25  28
ENDBRANCH   2  24
TORSDOF 10
