REMARK  Name = ZINC08086097
REMARK  5 active torsions:
REMARK  status: ('A' for Active; 'I' for Inactive)
REMARK    1  A    between atoms: C_1  and  C_2
REMARK    2  A    between atoms: C_2  and  C_4
REMARK    3  A    between atoms: C_2  and  N_11
REMARK    4  A    between atoms: C_12  and  C_14
REMARK    5  A    between atoms: C_19  and  N_20
REMARK                            x       y       z     vdW  Elec       q    Type
REMARK                         _______ _______ _______ _____ _____    ______ ____
ROOT
ATOM      1  N   UNL     1       0.927   1.285   0.560  0.00  0.00    -0.305 N 
ATOM      2  C   UNL     1      -0.284   0.820   0.197  0.00  0.00    +0.247 C 
ATOM      3  O   UNL     1      -0.429  -0.359  -0.064  0.00  0.00    -0.270 OA
ATOM      4  H   UNL     1       1.043   2.225   0.768  0.00  0.00    +0.150 HD
ENDROOT
BRANCH   2   5
ATOM      5  C   UNL     1      -1.435   1.743   0.110  0.00  0.00    +0.067 A 
ATOM      6  C   UNL     1      -1.791   2.525   1.210  0.00  0.00    +0.017 A 
ATOM      7  C   UNL     1      -2.865   3.385   1.123  0.00  0.00    +0.021 A 
ATOM      8  C   UNL     1      -3.591   3.474  -0.053  0.00  0.00    +0.043 A 
ATOM      9  C   UNL     1      -3.243   2.700  -1.148  0.00  0.00    +0.053 A 
ATOM     10  C   UNL     1      -2.167   1.840  -1.074  0.00  0.00    +0.140 A 
ATOM     11 CL   UNL     1      -4.942   4.559  -0.156  0.00  0.00    -0.083 Cl
BRANCH  10  12
ATOM     12  N   UNL     1      -1.793   1.019  -2.247  0.00  0.00    +0.057 N 
ATOM     13  O   UNL     1      -2.503   1.011  -3.237  0.00  0.00    -0.126 OA
ATOM     14  O   UNL     1      -0.775   0.350  -2.223  0.00  0.00    -0.126 OA
ENDBRANCH  10  12
ENDBRANCH   2   5
BRANCH   1  16
ATOM     15  C   UNL     1       2.703   0.224  -0.744  0.00  0.00    +0.033 C 
ATOM     16  C   UNL     1       2.069   0.371   0.640  0.00  0.00    +0.100 C 
BRANCH  16  17
ATOM     17  C   UNL     1       3.088   0.924   1.604  0.00  0.00    -0.027 A 
ATOM     18  C   UNL     1       3.362   2.279   1.617  0.00  0.00    +0.007 A 
ATOM     19  C   UNL     1       4.292   2.787   2.504  0.00  0.00    +0.020 A 
ATOM     20  C   UNL     1       4.958   1.938   3.371  0.00  0.00    +0.041 A 
ATOM     21  C   UNL     1       4.687   0.581   3.353  0.00  0.00    +0.020 A 
ATOM     22  C   UNL     1       3.753   0.075   2.469  0.00  0.00    +0.007 A 
ATOM     23 CL   UNL     1       6.132   2.574   4.480  0.00  0.00    -0.084 Cl
ENDBRANCH  16  17
ENDBRANCH   1  16
TORSDOF 4
