REMARK  Name = ZINC09408899
REMARK  5 active torsions:
REMARK  status: ('A' for Active; 'I' for Inactive)
REMARK    1  A    between atoms: C_4  and  O_32
REMARK    2  A    between atoms: C_5  and  C_7
REMARK    3  A    between atoms: N_15  and  C_25
REMARK    4  A    between atoms: C_16  and  C_18
REMARK    5  A    between atoms: C_25  and  C_26
REMARK                            x       y       z     vdW  Elec       q    Type
REMARK                         _______ _______ _______ _____ _____    ______ ____
ROOT
ATOM      1  C   UNL     1       5.968  -3.441   2.359  0.00  0.00    +0.102 A 
ATOM      2  C   UNL     1       5.325  -2.386   1.704  0.00  0.00    +0.035 A 
ATOM      3  C   UNL     1       4.878  -2.905   0.504  0.00  0.00    +0.126 A 
ATOM      4  N   UNL     1       5.262  -4.216   0.490  0.00  0.00    -0.272 N 
ATOM      5  H   UNL     1       5.082  -4.860  -0.253  0.00  0.00    +0.189 HD
ATOM      6  N   UNL     1       5.891  -4.499   1.575  0.00  0.00    -0.173 NA
ATOM      7  C   UNL     1       4.190  -1.842  -0.237  0.00  0.00    +0.266 C 
ATOM      8  O   UNL     1       3.681  -1.977  -1.333  0.00  0.00    -0.268 OA
ATOM      9  N   UNL     1       4.202  -0.696   0.468  0.00  0.00    -0.283 N 
ATOM     10  C   UNL     1       4.914  -0.940   1.730  0.00  0.00    +0.141 C 
ENDROOT
BRANCH  10  11
ATOM     11  C   UNL     1       6.130  -0.053   1.819  0.00  0.00    -0.021 A 
ATOM     12  C   UNL     1       6.911   0.163   0.698  0.00  0.00    +0.006 A 
ATOM     13  C   UNL     1       8.023   0.981   0.778  0.00  0.00    +0.001 A 
ATOM     14  C   UNL     1       8.361   1.572   1.980  0.00  0.00    +0.015 A 
ATOM     15  C   UNL     1       7.583   1.351   3.103  0.00  0.00    +0.018 A 
ATOM     16  C   UNL     1       6.467   0.538   3.021  0.00  0.00    +0.021 A 
ATOM     17 BR   UNL     1       8.046   2.160   4.748  0.00  0.00    -0.050 Br
ENDBRANCH  10  11
BRANCH   1  22
ATOM     18  C   UNL     1       7.234  -2.139   5.652  0.00  0.00    +0.001 A 
ATOM     19  C   UNL     1       7.835  -3.268   6.180  0.00  0.00    +0.004 A 
ATOM     20  C   UNL     1       7.832  -4.455   5.473  0.00  0.00    +0.046 A 
ATOM     21  C   UNL     1       7.223  -4.521   4.230  0.00  0.00    +0.126 A 
ATOM     22  C   UNL     1       6.620  -3.381   3.692  0.00  0.00    +0.044 A 
ATOM     23  C   UNL     1       6.627  -2.190   4.413  0.00  0.00    +0.014 A 
BRANCH  21  24
ATOM     24  O   UNL     1       7.215  -5.689   3.536  0.00  0.00    -0.506 OA
ATOM     25  H   UNL     1       7.977  -5.804   2.951  0.00  0.00    +0.292 HD
ENDBRANCH  21  24
ENDBRANCH   1  22
BRANCH   9  26
ATOM     26  C   UNL     1       3.613   0.577   0.047  0.00  0.00    +0.140 C 
BRANCH  26  27
ATOM     27  C   UNL     1       2.161   0.650   0.525  0.00  0.00    +0.136 C 
ATOM     28  C   UNL     1       1.477   1.937  -0.002  0.00  0.00    +0.035 C 
ATOM     29  C   UNL     1      -0.019   1.537   0.011  0.00  0.00    +0.031 C 
ATOM     30  C   UNL     1       0.002  -0.004   0.002  0.00  0.00    +0.160 C 
ATOM     31  O   UNL     1       1.379  -0.412  -0.062  0.00  0.00    -0.375 OA
ENDBRANCH  26  27
ENDBRANCH   9  26
TORSDOF 5
