REMARK  Name = ZINC15912707
REMARK  9 active torsions:
REMARK  status: ('A' for Active; 'I' for Inactive)
REMARK    1  A    between atoms: C_1  and  C_2
REMARK    2  A    between atoms: C_5  and  S_8
REMARK    3  A    between atoms: S_8  and  N_11
REMARK    4  A    between atoms: C_14  and  C_17
REMARK    5  A    between atoms: N_19  and  N_20
REMARK    6  A    between atoms: N_20  and  C_21
REMARK    7  A    between atoms: C_21  and  N_23
REMARK    8  A    between atoms: N_23  and  C_24
REMARK    9  A    between atoms: C_24  and  C_25
REMARK                            x       y       z     vdW  Elec       q    Type
REMARK                         _______ _______ _______ _____ _____    ______ ____
ROOT
ATOM      1  C   UNL     1       8.641  -2.232  -1.692  0.00  0.00    +0.232 C 
ATOM      2  O   UNL     1       9.814  -2.379  -1.422  0.00  0.00    -0.274 OA
ATOM      3  N   UNL     1       7.772  -1.849  -0.736  0.00  0.00    -0.235 N 
ATOM      4  H   UNL     1       6.833  -1.731  -0.952  0.00  0.00    +0.173 HD
ENDROOT
BRANCH   1   8
ATOM      5  N   UNL     1       7.730  -4.078  -5.391  0.00  0.00    -0.177 NA
ATOM      6  C   UNL     1       8.841  -3.117  -5.412  0.00  0.00    +0.110 C 
ATOM      7  C   UNL     1       9.333  -2.901  -3.978  0.00  0.00    +0.030 C 
ATOM      8  C   UNL     1       8.155  -2.479  -3.097  0.00  0.00    +0.079 C 
ATOM      9  C   UNL     1       7.102  -3.590  -3.084  0.00  0.00    +0.030 C 
ATOM     10  C   UNL     1       6.585  -3.814  -4.509  0.00  0.00    +0.110 C 
BRANCH   5  11
ATOM     11  S   UNL     1       7.766  -5.431  -6.345  0.00  0.00    +0.061 S 
ATOM     12  O   UNL     1       6.416  -5.828  -6.538  0.00  0.00    -0.153 OA
ATOM     13  O   UNL     1       8.638  -5.141  -7.429  0.00  0.00    -0.153 OA
BRANCH  11  18
ATOM     14  C   UNL     1      10.405  -9.805  -3.134  0.00  0.00    +0.044 C 
ATOM     15  C   UNL     1       9.746  -8.713  -3.936  0.00  0.00    -0.050 A 
ATOM     16  C   UNL     1       8.376  -8.542  -3.875  0.00  0.00    +0.005 A 
ATOM     17  C   UNL     1       7.771  -7.540  -4.611  0.00  0.00    +0.029 A 
ATOM     18  C   UNL     1       8.537  -6.709  -5.407  0.00  0.00    +0.105 A 
ATOM     19  C   UNL     1       9.907  -6.883  -5.471  0.00  0.00    +0.029 A 
ATOM     20  C   UNL     1      10.512  -7.882  -4.732  0.00  0.00    +0.005 A 
ENDBRANCH  11  18
ENDBRANCH   5  11
ENDBRANCH   1   8
BRANCH   3  21
ATOM     21  N   UNL     1       8.224  -1.619   0.570  0.00  0.00    -0.246 N 
ATOM     22  H   UNL     1       9.162  -1.736   0.786  0.00  0.00    +0.172 HD
BRANCH  21  23
ATOM     23  C   UNL     1       7.355  -1.236   1.526  0.00  0.00    +0.147 C 
ATOM     24  S   UNL     1       7.907  -0.955   3.122  0.00  0.00    -0.017 S 
BRANCH  23  25
ATOM     25  N   UNL     1       6.051  -1.073   1.226  0.00  0.00    -0.321 N 
ATOM     26  H   UNL     1       5.738  -1.231   0.322  0.00  0.00    +0.148 HD
BRANCH  25  27
ATOM     27  C   UNL     1       5.107  -0.655   2.265  0.00  0.00    +0.138 C 
BRANCH  27  28
ATOM     28  C   UNL     1       3.725  -0.548   1.674  0.00  0.00    -0.027 A 
ATOM     29  C   UNL     1       2.885  -1.646   1.677  0.00  0.00    +0.009 A 
ATOM     30  C   UNL     1       1.617  -1.553   1.135  0.00  0.00    +0.050 A 
ATOM     31  C   UNL     1       1.183  -0.356   0.589  0.00  0.00    +0.166 A 
ATOM     32  C   UNL     1       2.028   0.751   0.586  0.00  0.00    +0.167 A 
ATOM     33  C   UNL     1       3.298   0.650   1.131  0.00  0.00    +0.054 A 
ATOM     34  O   UNL     1       1.376   1.797  -0.001  0.00  0.00    -0.453 OA
ATOM     35  C   UNL     1      -0.018   1.436   0.010  0.00  0.00    +0.466 C 
ATOM     36  O   UNL     1       0.002  -0.004   0.002  0.00  0.00    -0.453 OA
ENDBRANCH  27  28
ENDBRANCH  25  27
ENDBRANCH  23  25
ENDBRANCH  21  23
ENDBRANCH   3  21
TORSDOF 8
