REMARK  Name = ZINC43268596
REMARK  3 active torsions:
REMARK  status: ('A' for Active; 'I' for Inactive)
REMARK    1  A    between atoms: C_6  and  C_7
REMARK    2  A    between atoms: C_13  and  C_15
REMARK    3  A    between atoms: C_15  and  N_16
REMARK                            x       y       z     vdW  Elec       q    Type
REMARK                         _______ _______ _______ _____ _____    ______ ____
ROOT
ATOM      1  C   UNL     1      -1.269  -0.768   0.006  0.00  0.00    +0.080 A 
ATOM      2  C   UNL     1      -2.467  -0.116  -0.090  0.00  0.00    +0.076 A 
ATOM      3  S   UNL     1      -3.601  -1.498  -0.036  0.00  0.00    -0.060 S 
ATOM      4  C   UNL     1      -2.373  -2.789   0.109  0.00  0.00    +0.165 A 
ATOM      5  N   UNL     1      -1.254  -2.090   0.098  0.00  0.00    -0.225 NA
ATOM      6  N   UNL     1      -2.551  -4.164   0.202  0.00  0.00    -0.263 N 
ATOM      7  C   UNL     1      -3.793  -4.686   0.190  0.00  0.00    +0.240 C 
ATOM      8  O   UNL     1      -4.757  -3.955   0.097  0.00  0.00    -0.273 OA
ATOM      9  H   UNL     1      -1.780  -4.748   0.277  0.00  0.00    +0.157 HD
ENDROOT
BRANCH   1  15
ATOM     10  C   UNL     1      -0.017   1.389   0.010  0.00  0.00    +0.010 A 
ATOM     11  C   UNL     1       1.171   2.087   0.002  0.00  0.00    +0.004 A 
ATOM     12  C   UNL     1       2.388   1.416  -0.012  0.00  0.00    -0.044 A 
ATOM     13  C   UNL     1       2.413   0.038  -0.014  0.00  0.00    -0.044 A 
ATOM     14  C   UNL     1       1.222  -0.673  -0.010  0.00  0.00    +0.014 A 
ATOM     15  C   UNL     1       0.002  -0.004   0.002  0.00  0.00    +0.001 A 
ATOM     16  C   UNL     1       3.697  -0.750  -0.012  0.00  0.00    +0.035 C 
ATOM     17  C   UNL     1       4.868   0.129  -0.445  0.00  0.00    +0.005 C 
ATOM     18  C   UNL     1       4.849   1.410   0.398  0.00  0.00    +0.005 C 
ATOM     19  C   UNL     1       3.644   2.248  -0.027  0.00  0.00    +0.035 C 
ENDBRANCH   1  15
BRANCH   7  20
ATOM     20  C   UNL     1      -3.986  -6.177   0.292  0.00  0.00    +0.239 C 
BRANCH  20  21
ATOM     21  N   UNL     1      -5.417  -6.488   0.256  0.00  0.00    -0.260 N 
ATOM     22  C   UNL     1      -6.023  -7.337  -0.600  0.00  0.00    +0.111 A 
ATOM     23  C   UNL     1      -7.344  -7.345  -0.306  0.00  0.00    +0.074 A 
ATOM     24  C   UNL     1      -7.551  -6.473   0.767  0.00  0.00    +0.235 A 
ATOM     25  N   UNL     1      -6.396  -5.963   1.109  0.00  0.00    -0.146 NA
ATOM     26  N   UNL     1      -8.853  -6.181   1.410  0.00  0.00    +0.077 N 
ATOM     27  O   UNL     1      -9.858  -6.719   1.010  0.00  0.00    -0.125 OA
ATOM     28  O   UNL     1      -8.909  -5.405   2.335  0.00  0.00    -0.125 OA
ENDBRANCH  20  21
ENDBRANCH   7  20
TORSDOF 3
