REMARK  Name = ZINC39478498
REMARK  4 active torsions:
REMARK  status: ('A' for Active; 'I' for Inactive)
REMARK    1  A    between atoms: C_4  and  C_7
REMARK    2  A    between atoms: N_16  and  C_19
REMARK    3  A    between atoms: C_19  and  C_20
REMARK    4  A    between atoms: C_25  and  C_26
REMARK                            x       y       z     vdW  Elec       q    Type
REMARK                         _______ _______ _______ _____ _____    ______ ____
ROOT
ATOM      1  C   UNL     1       3.711  -0.707  -0.038  0.00  0.00    +0.048 C 
ATOM      2  N   UNL     1       4.720   0.076  -0.783  0.00  0.00    -0.267 NA
ATOM      3  N   UNL     1       5.161  -0.759  -1.907  0.00  0.00    -0.271 NA
ATOM      4  C   UNL     1       4.872  -2.143  -1.472  0.00  0.00    +0.019 C 
ATOM      5  N   UNL     1       3.564  -1.989  -0.750  0.00  0.00    +0.405 N 
ATOM      6  C   UNL     1       3.504  -3.116   0.189  0.00  0.00    -0.058 C 
ATOM      7  C   UNL     1       2.579  -4.189  -0.337  0.00  0.00    +0.066 C 
ATOM      8  N   UNL     1       2.731  -4.426  -1.793  0.00  0.00    -0.303 NA
ATOM      9  C   UNL     1       4.130  -4.450  -2.208  0.00  0.00    +0.084 C 
ATOM     10  C   UNL     1       4.652  -3.073  -2.630  0.00  0.00    +0.016 C 
ATOM     11  H   UNL     1       5.498   0.322  -0.189  0.00  0.00    +0.139 HD
ATOM     12  H   UNL     1       6.146  -0.634  -2.086  0.00  0.00    +0.139 HD
ATOM     13  H   UNL     1       2.780  -1.978  -1.385  0.00  0.00    -0.077 HD
ENDROOT
BRANCH   1  17
ATOM     14  C   UNL     1      -0.017   1.378   0.010  0.00  0.00    +0.000 A 
ATOM     15  C   UNL     1       1.171   2.086   0.002  0.00  0.00    +0.000 A 
ATOM     16  C   UNL     1       2.377   1.411  -0.013  0.00  0.00    +0.003 A 
ATOM     17  C   UNL     1       2.396   0.029  -0.020  0.00  0.00    -0.046 A 
ATOM     18  C   UNL     1       1.208  -0.679  -0.012  0.00  0.00    +0.003 A 
ATOM     19  C   UNL     1       0.002  -0.004   0.002  0.00  0.00    +0.000 A 
ENDBRANCH   1  17
BRANCH   8  20
ATOM     20  C   UNL     1       2.040  -5.655  -2.201  0.00  0.00    +0.099 C 
BRANCH  20  21
ATOM     21  C   UNL     1       2.005  -5.737  -3.729  0.00  0.00    +0.097 C 
ATOM     22  C   UNL     1       1.096  -4.667  -4.300  0.00  0.00    +0.118 C 
ATOM     23  N   UNL     1       0.154  -5.293  -4.927  0.00  0.00    -0.161 NA
ATOM     24  N   UNL     1       0.297  -6.675  -4.861  0.00  0.00    -0.153 NA
ATOM     25  C   UNL     1       1.356  -7.031  -4.180  0.00  0.00    +0.080 C 
BRANCH  25  26
ATOM     26  C   UNL     1       1.822  -8.400  -3.907  0.00  0.00    -0.001 A 
ATOM     27  C   UNL     1       2.979  -8.611  -3.151  0.00  0.00    +0.010 A 
ATOM     28  C   UNL     1       3.409  -9.897  -2.899  0.00  0.00    +0.001 A 
ATOM     29  C   UNL     1       2.699 -10.977  -3.393  0.00  0.00    +0.000 A 
ATOM     30  C   UNL     1       1.552 -10.776  -4.142  0.00  0.00    +0.001 A 
ATOM     31  C   UNL     1       1.106  -9.497  -4.397  0.00  0.00    +0.010 A 
ENDBRANCH  25  26
ENDBRANCH  20  21
ENDBRANCH   8  20
TORSDOF 4
