REMARK  Name = ZINC01234655
REMARK  7 active torsions:
REMARK  status: ('A' for Active; 'I' for Inactive)
REMARK    1  A    between atoms: C_1  and  C_2
REMARK    2  A    between atoms: C_4  and  O_9
REMARK    3  A    between atoms: O_9  and  C_10
REMARK    4  A    between atoms: C_10  and  C_11
REMARK    5  A    between atoms: N_13  and  N_14
REMARK    6  A    between atoms: C_15  and  C_16
REMARK    7  A    between atoms: C_20  and  N_22
REMARK                            x       y       z     vdW  Elec       q    Type
REMARK                         _______ _______ _______ _____ _____    ______ ____
ROOT
ATOM      1  C   UNL     1      -1.412  -0.526   0.013  0.00  0.00    +0.270 C 
ATOM      2  O   UNL     1      -2.344   0.250   0.026  0.00  0.00    -0.270 OA
ATOM      3  N   UNL     1      -1.640  -1.854   0.008  0.00  0.00    -0.204 N 
ATOM      4  H   UNL     1      -0.894  -2.474  -0.003  0.00  0.00    +0.177 HD
ENDROOT
BRANCH   3   5
ATOM      5  N   UNL     1      -2.954  -2.339   0.018  0.00  0.00    -0.188 NA
ATOM      6  C   UNL     1      -3.174  -3.618   0.013  0.00  0.00    +0.138 C 
BRANCH   6   7
ATOM      7  C   UNL     1      -4.558  -4.128   0.023  0.00  0.00    -0.003 A 
ATOM      8  C   UNL     1      -5.634  -3.237   0.044  0.00  0.00    +0.011 A 
ATOM      9  C   UNL     1      -6.925  -3.721   0.050  0.00  0.00    +0.023 A 
ATOM     10  C   UNL     1      -7.156  -5.087   0.044  0.00  0.00    +0.071 A 
ATOM     11  C   UNL     1      -6.094  -5.975   0.029  0.00  0.00    +0.145 A 
ATOM     12  C   UNL     1      -4.798  -5.504   0.018  0.00  0.00    +0.043 A 
ATOM     13 CL   UNL     1      -8.785  -5.688   0.057  0.00  0.00    -0.081 Cl
BRANCH  11  14
ATOM     14  N   UNL     1      -6.350  -7.433   0.023  0.00  0.00    +0.058 N 
ATOM     15  O   UNL     1      -5.417  -8.215   0.009  0.00  0.00    -0.126 OA
ATOM     16  O   UNL     1      -7.495  -7.850   0.032  0.00  0.00    -0.126 OA
ENDBRANCH  11  14
ENDBRANCH   6   7
ENDBRANCH   3   5
BRANCH   1  17
ATOM     17  C   UNL     1       0.002  -0.004   0.002  0.00  0.00    +0.326 C 
BRANCH  17  18
ATOM     18  O   UNL     1      -0.017   1.425   0.010  0.00  0.00    -0.483 OA
BRANCH  18  22
ATOM     19  C   UNL     1       2.523   5.592   0.008  0.00  0.00    +0.045 C 
ATOM     20  C   UNL     1       2.463   4.086   0.001  0.00  0.00    -0.029 A 
ATOM     21  C   UNL     1       1.240   3.444   0.009  0.00  0.00    +0.050 A 
ATOM     22  C   UNL     1       1.185   2.058   0.002  0.00  0.00    +0.122 A 
ATOM     23  C   UNL     1       2.360   1.319  -0.008  0.00  0.00    +0.047 A 
ATOM     24  C   UNL     1       3.580   1.965  -0.021  0.00  0.00    +0.024 A 
ATOM     25  C   UNL     1       3.633   3.348  -0.014  0.00  0.00    +0.044 A 
ATOM     26 CL   UNL     1       5.169   4.157  -0.024  0.00  0.00    -0.083 Cl
ENDBRANCH  18  22
ENDBRANCH  17  18
ENDBRANCH   1  17
TORSDOF 6
