REMARK  Name = ZINC35292952
REMARK  18 active torsions:
REMARK  status: ('A' for Active; 'I' for Inactive)
REMARK    1  A    between atoms: C_1  and  C_2
REMARK    2  A    between atoms: C_2  and  C_3
REMARK    3  A    between atoms: C_3  and  C_4
REMARK    4  A    between atoms: C_4  and  C_5
REMARK    5  A    between atoms: C_12  and  C_14
REMARK    6  A    between atoms: C_19  and  S_21
REMARK    7  A    between atoms: S_21  and  C_22
REMARK    8  A    between atoms: C_22  and  C_23
REMARK    9  A    between atoms: N_25  and  C_26
REMARK   10  A    between atoms: C_26  and  C_28
REMARK   11  A    between atoms: C_26  and  C_29
REMARK   12  A    between atoms: C_29  and  C_30
REMARK   13  A    between atoms: C_30  and  C_31
REMARK   14  A    between atoms: C_31  and  N_32
REMARK   15  A    between atoms: N_32  and  C_33
REMARK   16  A    between atoms: N_32  and  C_35
REMARK   17  A    between atoms: C_33  and  C_34
REMARK   18  A    between atoms: C_35  and  C_36
REMARK                            x       y       z     vdW  Elec       q    Type
REMARK                         _______ _______ _______ _____ _____    ______ ____
ROOT
ATOM      1  C   UNL     1      -4.632  -1.684   0.886  0.00  0.00    +0.216 C 
ATOM      2  O   UNL     1      -5.618  -1.006   1.081  0.00  0.00    -0.276 OA
ATOM      3  N   UNL     1      -4.749  -3.020   0.750  0.00  0.00    -0.296 N 
ATOM      4  C   UNL     1      -3.562  -3.855   0.519  0.00  0.00    +0.127 C 
ATOM      5  C   UNL     1      -3.784  -4.679  -0.756  0.00  0.00    +0.125 C 
ATOM      6  N   UNL     1      -5.100  -5.326  -0.674  0.00  0.00    -0.312 N 
ATOM      7  C   UNL     1      -6.287  -4.491  -0.443  0.00  0.00    +0.128 C 
ATOM      8  C   UNL     1      -6.065  -3.668   0.838  0.00  0.00    +0.090 C 
ATOM      9  C   UNL     1      -6.104  -4.590   2.058  0.00  0.00    +0.029 C 
ATOM     10  C   UNL     1      -5.221  -6.699  -0.814  0.00  0.00    +0.127 A 
ATOM     11  C   UNL     1      -4.097  -7.486  -1.073  0.00  0.00    +0.083 A 
ATOM     12  C   UNL     1      -4.264  -8.852  -1.204  0.00  0.00    +0.135 A 
ATOM     13  N   UNL     1      -5.478  -9.372  -1.080  0.00  0.00    -0.210 NA
ATOM     14  C   UNL     1      -6.527  -8.600  -0.834  0.00  0.00    +0.192 A 
ATOM     15  N   UNL     1      -6.407  -7.287  -0.697  0.00  0.00    -0.207 NA
ATOM     16 CL   UNL     1      -2.901  -9.877  -1.527  0.00  0.00    -0.062 Cl
ENDROOT
BRANCH   1  17
ATOM     17  C   UNL     1      -3.276  -1.034   0.794  0.00  0.00    +0.096 C 
BRANCH  17  18
ATOM     18  C   UNL     1      -3.421   0.478   0.981  0.00  0.00    +0.009 C 
BRANCH  18  20
ATOM     19  C   UNL     1      -2.190   2.650   1.075  0.00  0.00    +0.004 C 
ATOM     20  C   UNL     1      -2.044   1.138   0.888  0.00  0.00    -0.003 C 
ENDBRANCH  18  20
ENDBRANCH  17  18
ENDBRANCH   1  17
BRANCH  14  21
ATOM     21  S   UNL     1      -8.119  -9.338  -0.678  0.00  0.00    -0.077 S 
BRANCH  21  22
ATOM     22  C   UNL     1      -7.809 -11.108  -0.927  0.00  0.00    +0.173 C 
BRANCH  22  23
ATOM     23  C   UNL     1      -9.107 -11.866  -0.818  0.00  0.00    +0.224 C 
ATOM     24  O   UNL     1     -10.140 -11.271  -0.595  0.00  0.00    -0.275 OA
ATOM     25  N   UNL     1      -9.120 -13.205  -0.969  0.00  0.00    -0.312 N 
ATOM     26  H   UNL     1      -8.294 -13.681  -1.148  0.00  0.00    +0.149 HD
BRANCH  25  27
ATOM     27  C   UNL     1     -10.382 -13.942  -0.863  0.00  0.00    +0.070 C 
ATOM     28  C   UNL     1     -11.095 -13.929  -2.217  0.00  0.00    +0.028 C 
BRANCH  27  29
ATOM     29  C   UNL     1     -10.095 -15.387  -0.451  0.00  0.00    +0.020 C 
BRANCH  29  30
ATOM     30  C   UNL     1      -9.496 -15.407   0.956  0.00  0.00    -0.017 C 
BRANCH  30  31
ATOM     31  C   UNL     1      -9.209 -16.852   1.369  0.00  0.00    -0.079 C 
BRANCH  31  32
ATOM     32  N   UNL     1      -8.633 -16.871   2.720  0.00  0.00    +0.379 N 
ATOM     33  H   UNL     1      -7.819 -16.276   2.747  0.00  0.00    -0.082 HD
BRANCH  32  34
ATOM     34  C   UNL     1      -9.629 -16.382   3.683  0.00  0.00    -0.082 C 
ATOM     35  C   UNL     1      -8.991 -16.282   5.070  0.00  0.00    -0.017 C 
ENDBRANCH  32  34
BRANCH  32  36
ATOM     36  C   UNL     1      -8.248 -18.245   3.069  0.00  0.00    -0.082 C 
ATOM     37  C   UNL     1      -7.094 -18.694   2.171  0.00  0.00    -0.017 C 
ENDBRANCH  32  36
ENDBRANCH  31  32
ENDBRANCH  30  31
ENDBRANCH  29  30
ENDBRANCH  27  29
ENDBRANCH  25  27
ENDBRANCH  22  23
ENDBRANCH  21  22
ENDBRANCH  14  21
TORSDOF 13
