REMARK  Name = ZINC66574319
REMARK  9 active torsions:
REMARK  status: ('A' for Active; 'I' for Inactive)
REMARK    1  A    between atoms: C_1  and  C_2
REMARK    2  A    between atoms: N_11  and  C_15
REMARK    3  A    between atoms: C_15  and  C_16
REMARK    4  A    between atoms: N_18  and  N_19
REMARK    5  A    between atoms: C_20  and  C_22
REMARK    6  A    between atoms: C_22  and  C_23
REMARK    7  A    between atoms: C_23  and  C_24
REMARK    8  A    between atoms: C_24  and  C_25
REMARK    9  A    between atoms: C_24  and  C_26
REMARK                            x       y       z     vdW  Elec       q    Type
REMARK                         _______ _______ _______ _____ _____    ______ ____
ROOT
ATOM      1  C   UNL     1      -0.019   1.526   0.010  0.00  0.00    +0.010 C 
ATOM      2  C   UNL     1       0.002  -0.004   0.002  0.00  0.00    +0.018 C 
ATOM      3  C   UNL     1      -1.434  -0.534   0.012  0.00  0.00    +0.006 C 
ATOM      4  C   UNL     1      -1.412  -2.064   0.024  0.00  0.00    +0.000 C 
ATOM      5  C   UNL     1      -0.687  -2.556   1.279  0.00  0.00    +0.003 C 
ATOM      6  C   UNL     1       0.752  -2.033   1.273  0.00  0.00    +0.035 C 
ATOM      7  C   UNL     1       0.740  -0.509   1.237  0.00  0.00    +0.115 C 
ATOM      8  C   UNL     1       2.151   0.030   1.266  0.00  0.00    +0.247 C 
ATOM      9  O   UNL     1       3.026  -0.158   0.448  0.00  0.00    -0.273 OA
ATOM     10  N   UNL     1       2.233   0.767   2.394  0.00  0.00    -0.215 N 
ATOM     11  C   UNL     1       1.077   0.763   3.069  0.00  0.00    +0.310 C 
ATOM     12  O   UNL     1       0.904   1.356   4.116  0.00  0.00    -0.252 OA
ATOM     13  N   UNL     1       0.127   0.030   2.458  0.00  0.00    -0.285 N 
ATOM     14  H   UNL     1      -0.782  -0.114   2.764  0.00  0.00    +0.151 HD
ENDROOT
BRANCH  10  15
ATOM     15  C   UNL     1       3.436   1.482   2.825  0.00  0.00    +0.215 C 
BRANCH  15  16
ATOM     16  C   UNL     1       3.425   2.876   2.253  0.00  0.00    +0.247 C 
ATOM     17  O   UNL     1       2.503   3.237   1.554  0.00  0.00    -0.273 OA
ATOM     18  N   UNL     1       4.441   3.721   2.519  0.00  0.00    -0.233 N 
ATOM     19  H   UNL     1       5.178   3.433   3.078  0.00  0.00    +0.173 HD
BRANCH  18  20
ATOM     20  N   UNL     1       4.430   5.017   1.987  0.00  0.00    -0.234 N 
ATOM     21  C   UNL     1       5.446   5.863   2.253  0.00  0.00    +0.229 C 
ATOM     22  O   UNL     1       6.368   5.502   2.952  0.00  0.00    -0.274 OA
ATOM     23  H   UNL     1       3.692   5.306   1.428  0.00  0.00    +0.173 HD
BRANCH  21  24
ATOM     24  C   UNL     1       5.434   7.257   1.681  0.00  0.00    +0.097 C 
BRANCH  24  25
ATOM     25  C   UNL     1       6.692   8.004   2.132  0.00  0.00    +0.012 C 
BRANCH  25  26
ATOM     26  C   UNL     1       6.680   9.419   1.551  0.00  0.00    -0.017 C 
ATOM     27  C   UNL     1       5.509  10.204   2.144  0.00  0.00    +0.007 C 
ATOM     28  C   UNL     1       7.994  10.123   1.897  0.00  0.00    +0.007 C 
ENDBRANCH  25  26
ENDBRANCH  24  25
ENDBRANCH  21  24
ENDBRANCH  18  20
ENDBRANCH  15  16
ENDBRANCH  10  15
TORSDOF 6
