REMARK  Name = ZINC13048575
REMARK  10 active torsions:
REMARK  status: ('A' for Active; 'I' for Inactive)
REMARK    1  A    between atoms: C_1  and  C_2
REMARK    2  A    between atoms: C_2  and  C_3
REMARK    3  A    between atoms: C_2  and  C_4
REMARK    4  A    between atoms: C_4  and  N_5
REMARK    5  A    between atoms: C_11  and  C_30
REMARK    6  A    between atoms: C_15  and  S_16
REMARK    7  A    between atoms: S_16  and  C_17
REMARK    8  A    between atoms: C_17  and  C_18
REMARK    9  A    between atoms: N_20  and  C_21
REMARK   10  A    between atoms: C_26  and  C_27
REMARK                            x       y       z     vdW  Elec       q    Type
REMARK                         _______ _______ _______ _____ _____    ______ ____
ROOT
ATOM      1  N   UNL     1       0.613  -1.957  -1.289  0.00  0.00    -0.287 N 
ATOM      2  C   UNL     1      -0.434  -2.539  -1.917  0.00  0.00    +0.262 A 
ATOM      3  O   UNL     1      -1.312  -1.871  -2.432  0.00  0.00    -0.267 OA
ATOM      4  C   UNL     1      -0.473  -4.010  -1.956  0.00  0.00    +0.065 A 
ATOM      5  C   UNL     1      -1.513  -4.699  -2.579  0.00  0.00    +0.016 A 
ATOM      6  C   UNL     1      -1.513  -6.064  -2.592  0.00  0.00    +0.016 A 
ATOM      7  C   UNL     1      -0.476  -6.783  -1.984  0.00  0.00    +0.065 A 
ATOM      8  C   UNL     1       0.570  -6.118  -1.357  0.00  0.00    +0.043 A 
ATOM      9  C   UNL     1       0.581  -4.720  -1.337  0.00  0.00    +0.080 A 
ATOM     10  N   UNL     1       1.579  -4.029  -0.738  0.00  0.00    -0.223 NA
ATOM     11  C   UNL     1       1.593  -2.720  -0.722  0.00  0.00    +0.173 A 
ENDROOT
BRANCH   7  12
ATOM     12  C   UNL     1      -0.494  -8.262  -2.010  0.00  0.00    +0.387 C 
ATOM     13  O   UNL     1       0.402  -8.890  -1.484  0.00  0.00    -0.241 OA
ATOM     14  O   UNL     1      -1.506  -8.913  -2.617  0.00  0.00    -0.241 OA
ENDBRANCH   7  12
BRANCH   1  15
ATOM     15  C   UNL     1       0.700  -0.496  -1.224  0.00  0.00    +0.130 C 
BRANCH  15  17
ATOM     16  C   UNL     1      -0.025   1.530   0.046  0.00  0.00    +0.009 C 
ATOM     17  C   UNL     1      -0.006   0.001   0.040  0.00  0.00    +0.003 C 
ATOM     18  C   UNL     1       0.742  -0.505   1.274  0.00  0.00    +0.009 C 
ENDBRANCH  15  17
ENDBRANCH   1  15
BRANCH  11  19
ATOM     19  S   UNL     1       2.937  -1.904   0.076  0.00  0.00    -0.078 S 
BRANCH  19  20
ATOM     20  C   UNL     1       3.895  -3.338   0.624  0.00  0.00    +0.173 C 
BRANCH  20  21
ATOM     21  C   UNL     1       5.128  -2.870   1.353  0.00  0.00    +0.228 C 
ATOM     22  O   UNL     1       5.338  -1.683   1.488  0.00  0.00    -0.275 OA
ATOM     23  N   UNL     1       5.997  -3.770   1.854  0.00  0.00    -0.284 N 
ATOM     24  H   UNL     1       5.797  -4.718   1.803  0.00  0.00    +0.155 HD
BRANCH  23  25
ATOM     25  C   UNL     1       7.183  -3.339   2.445  0.00  0.00    +0.052 A 
ATOM     26  C   UNL     1       7.213  -2.153   3.165  0.00  0.00    +0.044 A 
ATOM     27  C   UNL     1       8.390  -1.728   3.751  0.00  0.00    +0.043 A 
ATOM     28  C   UNL     1       9.548  -2.481   3.625  0.00  0.00    +0.021 A 
ATOM     29  C   UNL     1       9.537  -3.660   2.913  0.00  0.00    +0.022 A 
ATOM     30  C   UNL     1       8.352  -4.105   2.320  0.00  0.00    +0.073 A 
ATOM     31 CL   UNL     1       8.419  -0.243   4.650  0.00  0.00    -0.083 Cl
BRANCH  30  32
ATOM     32  C   UNL     1       8.333  -5.333   1.584  0.00  0.00    +0.101 C 
ATOM     33  N   UNL     1       8.318  -6.308   1.001  0.00  0.00    -0.191 NA
ENDBRANCH  30  32
ENDBRANCH  23  25
ENDBRANCH  20  21
ENDBRANCH  19  20
ENDBRANCH  11  19
TORSDOF 8
