REMARK  Name = ZINC40096567
REMARK  12 active torsions:
REMARK  status: ('A' for Active; 'I' for Inactive)
REMARK    1  A    between atoms: C_1  and  C_2
REMARK    2  A    between atoms: C_2  and  C_3
REMARK    3  A    between atoms: C_3  and  C_4
REMARK    4  A    between atoms: C_4  and  C_5
REMARK    5  A    between atoms: C_5  and  O_6
REMARK    6  A    between atoms: O_6  and  C_7
REMARK    7  A    between atoms: C_10  and  C_13
REMARK    8  A    between atoms: C_15  and  C_24
REMARK    9  A    between atoms: N_19  and  C_20
REMARK   10  A    between atoms: C_20  and  C_21
REMARK   11  A    between atoms: C_21  and  O_22
REMARK   12  A    between atoms: C_24  and  C_26
REMARK                            x       y       z     vdW  Elec       q    Type
REMARK                         _______ _______ _______ _____ _____    ______ ____
ROOT
ATOM      1  C   UNL     1       3.833  -6.178  -6.381  0.00  0.00    +0.145 C 
ATOM      2  C   UNL     1       5.253  -6.693  -6.430  0.00  0.00    +0.076 C 
ATOM      3  C   UNL     1       5.184  -7.998  -6.780  0.00  0.00    +0.249 C 
ATOM      4  C   UNL     1       3.767  -8.376  -6.967  0.00  0.00    +0.288 C 
ATOM      5  O   UNL     1       3.377  -9.482  -7.284  0.00  0.00    -0.266 OA
ATOM      6  N   UNL     1       2.973  -7.314  -6.736  0.00  0.00    -0.281 N 
ATOM      7  O   UNL     1       6.243  -8.826  -6.935  0.00  0.00    -0.282 OA
ENDROOT
BRANCH   1  11
ATOM      8  C   UNL     1       2.903  -4.803  -2.443  0.00  0.00    +0.121 A 
ATOM      9  C   UNL     1       3.126  -3.890  -3.464  0.00  0.00    +0.046 A 
ATOM     10  C   UNL     1       3.427  -4.337  -4.736  0.00  0.00    +0.009 A 
ATOM     11  C   UNL     1       3.505  -5.694  -4.992  0.00  0.00    -0.022 A 
ATOM     12  C   UNL     1       3.283  -6.606  -3.978  0.00  0.00    +0.009 A 
ATOM     13  C   UNL     1       2.987  -6.164  -2.703  0.00  0.00    +0.046 A 
BRANCH   8  14
ATOM     14  O   UNL     1       2.607  -4.366  -1.191  0.00  0.00    -0.492 OA
BRANCH  14  15
ATOM     15  C   UNL     1       2.536  -2.952  -0.998  0.00  0.00    +0.229 C 
BRANCH  15  16
ATOM     16  C   UNL     1       2.195  -2.654   0.464  0.00  0.00    +0.041 C 
BRANCH  16  17
ATOM     17  C   UNL     1       2.119  -1.140   0.671  0.00  0.00    +0.003 C 
BRANCH  17  19
ATOM     18  C   UNL     1       1.703   0.673   2.339  0.00  0.00    +0.004 C 
ATOM     19  C   UNL     1       1.778  -0.841   2.132  0.00  0.00    -0.003 C 
ENDBRANCH  17  19
ENDBRANCH  16  17
ENDBRANCH  15  16
ENDBRANCH  14  15
ENDBRANCH   8  14
ENDBRANCH   1  11
BRANCH   2  20
ATOM     20  C   UNL     1       6.471  -5.925  -6.153  0.00  0.00    +0.195 C 
ATOM     21  O   UNL     1       7.176  -6.224  -5.207  0.00  0.00    -0.287 OA
BRANCH  20  22
ATOM     22  C   UNL     1       6.841  -4.790  -7.020  0.00  0.00    +0.026 A 
ATOM     23  C   UNL     1       6.096  -4.513  -8.170  0.00  0.00    +0.015 A 
ATOM     24  C   UNL     1       6.444  -3.454  -8.977  0.00  0.00    +0.050 A 
ATOM     25  C   UNL     1       7.537  -2.656  -8.655  0.00  0.00    +0.162 A 
ATOM     26  C   UNL     1       8.283  -2.925  -7.509  0.00  0.00    +0.163 A 
ATOM     27  C   UNL     1       7.935  -3.984  -6.692  0.00  0.00    +0.061 A 
ATOM     28  O   UNL     1       9.350  -2.148  -7.175  0.00  0.00    -0.485 OA
ATOM     29  C   UNL     1       9.891  -1.320  -8.210  0.00  0.00    +0.270 C 
ATOM     30  C   UNL     1       8.726  -0.616  -8.920  0.00  0.00    +0.270 C 
ATOM     31  O   UNL     1       7.865  -1.618  -9.469  0.00  0.00    -0.485 OA
ENDBRANCH  20  22
ENDBRANCH   2  20
BRANCH   6  32
ATOM     32  C   UNL     1       1.510  -7.294  -6.821  0.00  0.00    +0.137 C 
BRANCH  32  33
ATOM     33  C   UNL     1       1.087  -6.918  -8.242  0.00  0.00    +0.175 C 
BRANCH  33  34
ATOM     34  O   UNL     1       1.505  -7.940  -9.149  0.00  0.00    -0.393 OA
ATOM     35  H   UNL     1       1.270  -7.767 -10.072  0.00  0.00    +0.209 HD
ENDBRANCH  33  34
ENDBRANCH  32  33
ENDBRANCH   6  32
TORSDOF 11
