REMARK  Name = ZINC21601826
REMARK  11 active torsions:
REMARK  status: ('A' for Active; 'I' for Inactive)
REMARK    1  A    between atoms: C_1  and  C_2
REMARK    2  A    between atoms: C_2  and  C_4
REMARK    3  A    between atoms: C_2  and  O_13
REMARK    4  A    between atoms: N_9  and  C_10
REMARK    5  A    between atoms: C_10  and  C_11
REMARK    6  A    between atoms: C_10  and  C_12
REMARK    7  A    between atoms: O_13  and  C_14
REMARK    8  A    between atoms: C_14  and  C_16
REMARK    9  A    between atoms: C_19  and  N_22
REMARK   10  A    between atoms: N_22  and  S_23
REMARK   11  A    between atoms: S_23  and  C_26
REMARK                            x       y       z     vdW  Elec       q    Type
REMARK                         _______ _______ _______ _____ _____    ______ ____
ROOT
ATOM      1  C   UNL     1       2.805  -1.191  -2.208  0.00  0.00    +0.059 A 
ATOM      2  C   UNL     1       2.117  -1.484  -3.390  0.00  0.00    +0.017 A 
ATOM      3  C   UNL     1       2.808  -1.903  -4.498  0.00  0.00    +0.025 A 
ATOM      4  C   UNL     1       4.193  -2.037  -4.447  0.00  0.00    +0.048 A 
ATOM      5  C   UNL     1       4.881  -1.747  -3.272  0.00  0.00    +0.025 A 
ATOM      6  C   UNL     1       4.197  -1.322  -2.162  0.00  0.00    +0.017 A 
ENDROOT
BRANCH   1   7
ATOM      7  C   UNL     1       2.066  -0.740  -1.016  0.00  0.00    +0.340 C 
ATOM      8  O   UNL     1       2.666  -0.482   0.009  0.00  0.00    -0.245 OA
BRANCH   7   9
ATOM      9  O   UNL     1       0.725  -0.615  -1.062  0.00  0.00    -0.449 OA
BRANCH   9  11
ATOM     10  C   UNL     1      -0.016   1.354   0.127  0.00  0.00    +0.062 C 
ATOM     11  C   UNL     1       0.073  -0.173   0.131  0.00  0.00    +0.259 C 
BRANCH  11  12
ATOM     12  C   UNL     1      -1.314  -0.758   0.191  0.00  0.00    +0.261 C 
ATOM     13  O   UNL     1      -1.740  -1.406  -0.740  0.00  0.00    -0.271 OA
ATOM     14  N   UNL     1      -2.082  -0.559   1.281  0.00  0.00    -0.237 N 
ATOM     15  C   UNL     1      -3.323  -1.082   1.335  0.00  0.00    +0.306 C 
ATOM     16  O   UNL     1      -3.750  -1.732   0.401  0.00  0.00    -0.252 OA
ATOM     17  N   UNL     1      -4.091  -0.884   2.424  0.00  0.00    -0.297 N 
ATOM     18  H   UNL     1      -1.742  -0.040   2.026  0.00  0.00    +0.159 HD
ATOM     19  H   UNL     1      -3.751  -0.365   3.170  0.00  0.00    +0.151 HD
BRANCH  17  20
ATOM     20  C   UNL     1      -5.440  -1.452   2.483  0.00  0.00    +0.068 C 
ATOM     21  C   UNL     1      -5.364  -2.897   2.981  0.00  0.00    +0.027 C 
ATOM     22  C   UNL     1      -6.300  -0.627   3.443  0.00  0.00    +0.027 C 
ENDBRANCH  17  20
ENDBRANCH  11  12
ENDBRANCH   9  11
ENDBRANCH   7   9
ENDBRANCH   1   7
BRANCH   4  23
ATOM     23  N   UNL     1       4.890  -2.463  -5.572  0.00  0.00    -0.216 N 
ATOM     24  H   UNL     1       4.572  -3.225  -6.080  0.00  0.00    +0.174 HD
BRANCH  23  25
ATOM     25  S   UNL     1       6.265  -1.669  -6.044  0.00  0.00    +0.072 S 
ATOM     26  O   UNL     1       7.109  -1.605  -4.903  0.00  0.00    -0.150 OA
ATOM     27  O   UNL     1       6.679  -2.264  -7.266  0.00  0.00    -0.150 OA
BRANCH  25  28
ATOM     28  C   UNL     1       5.804  -0.011  -6.423  0.00  0.00    +0.112 A 
ATOM     29  C   UNL     1       5.310   0.299  -7.676  0.00  0.00    +0.032 A 
ATOM     30  C   UNL     1       4.949   1.598  -7.978  0.00  0.00    +0.051 A 
ATOM     31  C   UNL     1       5.080   2.595  -7.023  0.00  0.00    +0.162 A 
ATOM     32  C   UNL     1       5.574   2.284  -5.762  0.00  0.00    +0.164 A 
ATOM     33  C   UNL     1       5.932   0.977  -5.465  0.00  0.00    +0.078 A 
ATOM     34  O   UNL     1       5.703   3.245  -4.807  0.00  0.00    -0.485 OA
ATOM     35  C   UNL     1       5.681   4.605  -5.256  0.00  0.00    +0.270 C 
ATOM     36  C   UNL     1       4.514   4.768  -6.239  0.00  0.00    +0.270 C 
ATOM     37  O   UNL     1       4.723   3.871  -7.335  0.00  0.00    -0.485 OA
ENDBRANCH  25  28
ENDBRANCH  23  25
ENDBRANCH   4  23
TORSDOF 8
