REMARK  Name = ZINC20568345
REMARK  8 active torsions:
REMARK  status: ('A' for Active; 'I' for Inactive)
REMARK    1  A    between atoms: C_1  and  C_2
REMARK    2  A    between atoms: C_2  and  C_33
REMARK    3  A    between atoms: C_6  and  C_20
REMARK    4  A    between atoms: C_8  and  C_18
REMARK    5  A    between atoms: C_9  and  N_17
REMARK    6  A    between atoms: N_10  and  C_11
REMARK    7  A    between atoms: C_23  and  S_26
REMARK    8  A    between atoms: S_26  and  N_29
REMARK                            x       y       z     vdW  Elec       q    Type
REMARK                         _______ _______ _______ _____ _____    ______ ____
ROOT
ATOM      1  C   UNL     1       4.268   3.891  -2.070  0.00  0.00    +0.011 C 
ATOM      2  C   UNL     1       4.622   4.013  -0.587  0.00  0.00    -0.023 C 
ATOM      3  C   UNL     1       3.579   3.272   0.253  0.00  0.00    +0.058 C 
ATOM      4  C   UNL     1       3.581   1.808  -0.112  0.00  0.00    +0.025 C 
ATOM      5  C   UNL     1       4.709   1.199  -0.534  0.00  0.00    +0.025 C 
ATOM      6  C   UNL     1       4.710  -0.264  -0.900  0.00  0.00    +0.097 C 
ATOM      7  C   UNL     1       3.509  -0.965  -0.334  0.00  0.00    +0.077 C 
ATOM      8  C   UNL     1       2.422  -0.266   0.088  0.00  0.00    +0.107 C 
ATOM      9  N   UNL     1       2.409   1.107  -0.001  0.00  0.00    -0.260 N 
ATOM     10  C   UNL     1       5.917   1.909  -0.650  0.00  0.00    +0.162 C 
ATOM     11  O   UNL     1       6.919   1.327  -1.015  0.00  0.00    -0.292 OA
ATOM     12  C   UNL     1       5.992   3.377  -0.330  0.00  0.00    +0.086 C 
ATOM     13  C   UNL     1       4.651   5.489  -0.185  0.00  0.00    +0.011 C 
ENDROOT
BRANCH   9  14
ATOM     14  C   UNL     1       1.190   1.794   0.029  0.00  0.00    +0.040 A 
ATOM     15  C   UNL     1       0.517   2.070  -1.155  0.00  0.00    +0.024 A 
ATOM     16  C   UNL     1      -0.683   2.752  -1.123  0.00  0.00    +0.002 A 
ATOM     17  C   UNL     1      -1.222   3.150   0.087  0.00  0.00    +0.000 A 
ATOM     18  C   UNL     1      -0.554   2.878   1.268  0.00  0.00    +0.002 A 
ATOM     19  C   UNL     1       0.649   2.201   1.242  0.00  0.00    +0.024 A 
ENDBRANCH   9  14
BRANCH   6  20
ATOM     20  C   UNL     1       4.698  -0.398  -2.401  0.00  0.00    -0.035 A 
ATOM     21  C   UNL     1       3.652   0.130  -3.134  0.00  0.00    +0.006 A 
ATOM     22  C   UNL     1       3.644   0.011  -4.511  0.00  0.00    +0.029 A 
ATOM     23  C   UNL     1       4.677  -0.644  -5.154  0.00  0.00    +0.105 A 
ATOM     24  C   UNL     1       5.721  -1.177  -4.421  0.00  0.00    +0.029 A 
ATOM     25  C   UNL     1       5.731  -1.054  -3.044  0.00  0.00    +0.006 A 
BRANCH  23  26
ATOM     26  S   UNL     1       4.664  -0.801  -6.909  0.00  0.00    +0.056 S 
ATOM     27  O   UNL     1       3.855   0.257  -7.405  0.00  0.00    -0.153 OA
ATOM     28  O   UNL     1       6.015  -0.979  -7.311  0.00  0.00    -0.153 OA
BRANCH  26  29
ATOM     29  N   UNL     1       3.873  -2.211  -7.269  0.00  0.00    -0.204 NA
ATOM     30  H   UNL     1       3.843  -2.346  -8.360  0.00  0.00    +0.144 HD
ATOM     31  H   UNL     1       2.846  -2.165  -6.877  0.00  0.00    +0.144 HD
ENDBRANCH  26  29
ENDBRANCH  23  26
ENDBRANCH   6  20
BRANCH   8  32
ATOM     32  N   UNL     1       1.333  -0.931   0.599  0.00  0.00    -0.345 N 
ATOM     33  H   UNL     1       0.454  -0.365   0.941  0.00  0.00    +0.144 HD
ATOM     34  H   UNL     1       1.341  -2.029   0.667  0.00  0.00    +0.144 HD
ENDBRANCH   8  32
BRANCH   7  35
ATOM     35  C   UNL     1       3.511  -2.393  -0.233  0.00  0.00    +0.099 C 
ATOM     36  N   UNL     1       3.512  -3.526  -0.152  0.00  0.00    -0.191 NA
ENDBRANCH   7  35
TORSDOF 6
