REMARK  Name = ZINC66453313
REMARK  7 active torsions:
REMARK  status: ('A' for Active; 'I' for Inactive)
REMARK    1  A    between atoms: C_1  and  C_2
REMARK    2  A    between atoms: C_2  and  C_3
REMARK    3  A    between atoms: C_3  and  C_4
REMARK    4  A    between atoms: C_4  and  C_5
REMARK    5  A    between atoms: C_5  and  N_6
REMARK    6  A    between atoms: C_7  and  C_9
REMARK    7  A    between atoms: C_20  and  N_24
REMARK                            x       y       z     vdW  Elec       q    Type
REMARK                         _______ _______ _______ _____ _____    ______ ____
ROOT
ATOM      1  C   UNL     1       2.078  -6.153  -3.560  0.00  0.00    +0.078 C 
ATOM      2  C   UNL     1       0.643  -6.682  -3.548  0.00  0.00    +0.032 C 
ATOM      3  C   UNL     1       0.667  -8.214  -3.521  0.00  0.00    +0.108 C 
ATOM      4  N   UNL     1       1.478  -8.693  -4.649  0.00  0.00    -0.310 N 
ATOM      5  C   UNL     1       2.844  -8.177  -4.808  0.00  0.00    +0.108 C 
ATOM      6  C   UNL     1       2.795  -6.646  -4.820  0.00  0.00    +0.032 C 
ATOM      7  C   UNL     1       0.965  -9.611  -5.543  0.00  0.00    +0.162 A 
ATOM      8  N   UNL     1      -0.224 -10.169  -5.560  0.00  0.00    -0.225 NA
ATOM      9  C   UNL     1      -0.594 -11.060  -6.506  0.00  0.00    +0.080 A 
ATOM     10  C   UNL     1      -1.832 -11.730  -6.638  0.00  0.00    +0.031 A 
ATOM     11  C   UNL     1      -2.046 -12.612  -7.665  0.00  0.00    +0.035 A 
ATOM     12  C   UNL     1      -1.063 -12.879  -8.607  0.00  0.00    +0.127 A 
ATOM     13  C   UNL     1       0.160 -12.241  -8.509  0.00  0.00    +0.050 A 
ATOM     14  C   UNL     1       0.383 -11.357  -7.483  0.00  0.00    +0.043 A 
ATOM     15  S   UNL     1       1.746 -10.336  -6.978  0.00  0.00    -0.052 S 
ENDROOT
BRANCH   1  17
ATOM     16  N   UNL     1       1.475  -3.986  -2.532  0.00  0.00    -0.315 N 
ATOM     17  C   UNL     1       2.058  -4.646  -3.552  0.00  0.00    +0.216 C 
ATOM     18  O   UNL     1       2.566  -4.028  -4.463  0.00  0.00    -0.276 OA
ATOM     19  H   UNL     1       1.069  -4.480  -1.803  0.00  0.00    +0.149 HD
BRANCH  16  20
ATOM     20  C   UNL     1       1.455  -2.521  -2.524  0.00  0.00    +0.104 C 
BRANCH  20  21
ATOM     21  C   UNL     1       0.739  -2.027  -1.265  0.00  0.00    +0.019 C 
BRANCH  21  22
ATOM     22  C   UNL     1       0.718  -0.497  -1.257  0.00  0.00    +0.001 C 
BRANCH  22  24
ATOM     23  C   UNL     1      -0.019   1.526   0.010  0.00  0.00    +0.004 C 
ATOM     24  C   UNL     1       0.002  -0.004   0.002  0.00  0.00    -0.003 C 
ENDBRANCH  22  24
ENDBRANCH  21  22
ENDBRANCH  20  21
ENDBRANCH  16  20
ENDBRANCH   1  17
BRANCH  12  25
ATOM     25  N   UNL     1      -1.321 -13.837  -9.706  0.00  0.00    +0.056 N 
ATOM     26  O   UNL     1      -2.393 -14.391  -9.786  0.00  0.00    -0.126 OA
ATOM     27  O   UNL     1      -0.460 -14.065 -10.523  0.00  0.00    -0.126 OA
ENDBRANCH  12  25
TORSDOF 6
