REMARK  Name = ZINC63647532
REMARK  8 active torsions:
REMARK  status: ('A' for Active; 'I' for Inactive)
REMARK    1  A    between atoms: C_1  and  C_2
REMARK    2  A    between atoms: C_2  and  C_3
REMARK    3  A    between atoms: C_3  and  C_4
REMARK    4  A    between atoms: C_4  and  O_5
REMARK    5  A    between atoms: O_5  and  C_6
REMARK    6  A    between atoms: C_11  and  C_12
REMARK    7  A    between atoms: C_14  and  C_18
REMARK    8  A    between atoms: C_21  and  C_24
REMARK                            x       y       z     vdW  Elec       q    Type
REMARK                         _______ _______ _______ _____ _____    ______ ____
ROOT
ATOM      1  C   UNL     1       2.724  -3.444  -4.753  0.00  0.00    +0.095 C 
ATOM      2  C   UNL     1       2.682  -2.098  -4.692  0.00  0.00    +0.037 C 
ATOM      3  C   UNL     1       3.391  -1.655  -5.960  0.00  0.00    +0.215 C 
ATOM      4  N   UNL     1       3.759  -2.928  -6.602  0.00  0.00    -0.174 NA
ATOM      5  N   UNL     1       3.366  -3.848  -5.881  0.00  0.00    -0.153 NA
ENDROOT
BRANCH   1  11
ATOM      6  C   UNL     1       1.514  -3.833  -2.603  0.00  0.00    +0.130 A 
ATOM      7  C   UNL     1       0.981  -4.692  -1.655  0.00  0.00    +0.046 A 
ATOM      8  C   UNL     1       1.088  -6.059  -1.822  0.00  0.00    +0.004 A 
ATOM      9  C   UNL     1       1.728  -6.579  -2.934  0.00  0.00    +0.001 A 
ATOM     10  C   UNL     1       2.263  -5.735  -3.885  0.00  0.00    +0.014 A 
ATOM     11  C   UNL     1       2.156  -4.355  -3.730  0.00  0.00    +0.043 A 
BRANCH   6  12
ATOM     12  O   UNL     1       1.408  -2.488  -2.441  0.00  0.00    -0.491 OA
BRANCH  12  13
ATOM     13  C   UNL     1       0.739  -2.027  -1.265  0.00  0.00    +0.229 C 
BRANCH  13  14
ATOM     14  C   UNL     1       0.718  -0.497  -1.257  0.00  0.00    +0.041 C 
BRANCH  14  16
ATOM     15  C   UNL     1      -0.019   1.526   0.010  0.00  0.00    +0.004 C 
ATOM     16  C   UNL     1       0.002  -0.004   0.002  0.00  0.00    -0.000 C 
ENDBRANCH  14  16
ENDBRANCH  13  14
ENDBRANCH  12  13
ENDBRANCH   6  12
ENDBRANCH   1  11
BRANCH   3  17
ATOM     17  C   UNL     1       4.638  -0.835  -5.623  0.00  0.00    +0.322 C 
ATOM     18  N   UNL     1       5.276  -0.342  -6.853  0.00  0.00    -0.287 N 
ATOM     19  C   UNL     1       6.547  -0.886  -6.890  0.00  0.00    +0.168 C 
ATOM     20  N   UNL     1       6.765  -1.636  -5.859  0.00  0.00    -0.067 NA
ATOM     21  O   UNL     1       5.633  -1.667  -5.007  0.00  0.00    -0.367 OA
ATOM     22  H   UNL     1       4.881   0.250  -7.512  0.00  0.00    +0.151 HD
BRANCH  19  23
ATOM     23  C   UNL     1       7.530  -0.643  -7.969  0.00  0.00    +0.022 A 
ATOM     24  C   UNL     1       7.200   0.189  -9.040  0.00  0.00    +0.015 A 
ATOM     25  C   UNL     1       8.117   0.415 -10.045  0.00  0.00    +0.050 A 
ATOM     26  C   UNL     1       9.369  -0.182  -9.995  0.00  0.00    +0.166 A 
ATOM     27  C   UNL     1       9.703  -1.015  -8.928  0.00  0.00    +0.167 A 
ATOM     28  C   UNL     1       8.790  -1.240  -7.915  0.00  0.00    +0.061 A 
ATOM     29  O   UNL     1      10.976  -1.472  -9.114  0.00  0.00    -0.453 OA
ATOM     30  C   UNL     1      11.267  -1.241 -10.505  0.00  0.00    +0.466 C 
ATOM     31  O   UNL     1      10.432  -0.120 -10.848  0.00  0.00    -0.453 OA
ENDBRANCH  19  23
ENDBRANCH   3  17
TORSDOF 7
