REMARK  Name = ZINC16215085
REMARK  11 active torsions:
REMARK  status: ('A' for Active; 'I' for Inactive)
REMARK    1  A    between atoms: C_1  and  O_2
REMARK    2  A    between atoms: O_2  and  C_3
REMARK    3  A    between atoms: C_5  and  N_11
REMARK    4  A    between atoms: C_7  and  O_9
REMARK    5  A    between atoms: O_9  and  C_10
REMARK    6  A    between atoms: N_11  and  S_12
REMARK    7  A    between atoms: S_12  and  C_15
REMARK    8  A    between atoms: C_18  and  N_21
REMARK    9  A    between atoms: N_21  and  C_22
REMARK   10  A    between atoms: C_23  and  C_24
REMARK   11  A    between atoms: C_23  and  C_26
REMARK                            x       y       z     vdW  Elec       q    Type
REMARK                         _______ _______ _______ _____ _____    ______ ____
ROOT
ATOM      1  C   UNL     1      -4.045  -6.483   0.033  0.00  0.00    +0.111 A 
ATOM      2  C   UNL     1      -3.994  -7.168  -1.167  0.00  0.00    +0.031 A 
ATOM      3  C   UNL     1      -3.777  -8.532  -1.177  0.00  0.00    +0.025 A 
ATOM      4  C   UNL     1      -3.609  -9.215   0.021  0.00  0.00    +0.031 A 
ATOM      5  C   UNL     1      -3.661  -8.524   1.224  0.00  0.00    +0.025 A 
ATOM      6  C   UNL     1      -3.873  -7.159   1.227  0.00  0.00    +0.031 A 
ENDROOT
BRANCH   1   7
ATOM      7  S   UNL     1      -4.323  -4.743   0.041  0.00  0.00    +0.093 S 
ATOM      8  O   UNL     1      -4.864  -4.423   1.315  0.00  0.00    -0.148 OA
ATOM      9  O   UNL     1      -4.996  -4.433  -1.172  0.00  0.00    -0.148 OA
BRANCH   7  10
ATOM     10  N   UNL     1      -2.840  -4.010  -0.041  0.00  0.00    -0.078 NA
BRANCH  10  13
ATOM     11  C   UNL     1      -1.467  -0.613  -0.127  0.00  0.00    +0.222 A 
ATOM     12  C   UNL     1      -1.507  -2.001  -0.119  0.00  0.00    +0.114 A 
ATOM     13  C   UNL     1      -2.749  -2.627  -0.051  0.00  0.00    +0.173 A 
ATOM     14  N   UNL     1      -3.849  -1.879   0.004  0.00  0.00    -0.176 NA
ATOM     15  C   UNL     1      -3.770  -0.559  -0.006  0.00  0.00    +0.323 A 
ATOM     16  N   UNL     1      -2.607   0.069  -0.065  0.00  0.00    -0.160 NA
BRANCH  11  18
ATOM     17  C   UNL     1      -0.323   1.467  -0.190  0.00  0.00    +0.279 C 
ATOM     18  O   UNL     1      -0.280   0.039  -0.193  0.00  0.00    -0.479 OA
ENDBRANCH  11  18
BRANCH  15  19
ATOM     19  O   UNL     1      -4.910   0.170   0.051  0.00  0.00    -0.466 OA
ATOM     20  C   UNL     1      -4.772   1.592   0.038  0.00  0.00    +0.280 C 
ENDBRANCH  15  19
ENDBRANCH  10  13
ENDBRANCH   7  10
ENDBRANCH   1   7
BRANCH   4  21
ATOM     21  N   UNL     1      -3.389 -10.595   0.014  0.00  0.00    -0.320 N 
ATOM     22  H   UNL     1      -3.354 -11.077  -0.827  0.00  0.00    +0.152 HD
BRANCH  21  23
ATOM     23  C   UNL     1      -3.225 -11.262   1.185  0.00  0.00    +0.088 C 
ATOM     24  C   UNL     1      -3.101 -12.637   1.186  0.00  0.00    +0.090 C 
BRANCH  24  25
ATOM     25  C   UNL     1      -3.001 -13.369  -0.090  0.00  0.00    +0.233 A 
ATOM     26  N   UNL     1      -3.004 -14.674  -0.211  0.00  0.00    -0.209 NA
ATOM     27  C   UNL     1      -2.898 -14.991  -1.528  0.00  0.00    +0.111 A 
ATOM     28  C   UNL     1      -2.851 -16.198  -2.228  0.00  0.00    +0.051 A 
ATOM     29  C   UNL     1      -2.736 -16.188  -3.602  0.00  0.00    +0.043 A 
ATOM     30  C   UNL     1      -2.666 -14.985  -4.291  0.00  0.00    +0.024 A 
ATOM     31  C   UNL     1      -2.711 -13.785  -3.611  0.00  0.00    +0.050 A 
ATOM     32  C   UNL     1      -2.827 -13.777  -2.230  0.00  0.00    +0.156 A 
ATOM     33  O   UNL     1      -2.899 -12.794  -1.304  0.00  0.00    -0.435 OA
ATOM     34 CL   UNL     1      -2.677 -17.687  -4.474  0.00  0.00    -0.083 Cl
ENDBRANCH  24  25
BRANCH  24  35
ATOM     35  C   UNL     1      -3.069 -13.345   2.410  0.00  0.00    +0.265 C 
ATOM     36  O   UNL     1      -2.960 -14.554   2.411  0.00  0.00    -0.295 OA
ENDBRANCH  24  35
ENDBRANCH  21  23
ENDBRANCH   4  21
TORSDOF 9
