REMARK  Name = ZINC23409338
REMARK  12 active torsions:
REMARK  status: ('A' for Active; 'I' for Inactive)
REMARK    1  A    between atoms: C_1  and  C_2
REMARK    2  A    between atoms: C_2  and  C_4
REMARK    3  A    between atoms: C_2  and  N_12
REMARK    4  A    between atoms: C_4  and  C_5
REMARK    5  A    between atoms: C_5  and  C_6
REMARK    6  A    between atoms: N_12  and  C_13
REMARK    7  A    between atoms: C_16  and  S_22
REMARK    8  A    between atoms: C_18  and  N_19
REMARK    9  A    between atoms: S_22  and  N_25
REMARK   10  A    between atoms: N_25  and  C_26
REMARK   11  A    between atoms: C_26  and  C_27
REMARK   12  A    between atoms: C_27  and  N_28
REMARK                            x       y       z     vdW  Elec       q    Type
REMARK                         _______ _______ _______ _____ _____    ______ ____
ROOT
ATOM      1  C   UNL     1      -0.634   0.863  -2.380  0.00  0.00    +0.058 A 
ATOM      2  C   UNL     1       0.226  -0.222  -2.488  0.00  0.00    +0.027 A 
ATOM      3  C   UNL     1       0.340  -0.895  -3.688  0.00  0.00    +0.030 A 
ATOM      4  C   UNL     1      -0.392  -0.481  -4.786  0.00  0.00    +0.108 A 
ATOM      5  C   UNL     1      -1.245   0.602  -4.684  0.00  0.00    +0.063 A 
ATOM      6  C   UNL     1      -1.368   1.275  -3.485  0.00  0.00    +0.149 A 
ENDROOT
BRANCH   6   7
ATOM      7  N   UNL     1      -2.282   2.435  -3.377  0.00  0.00    +0.058 N 
ATOM      8  O   UNL     1      -3.008   2.728  -4.310  0.00  0.00    -0.126 OA
ATOM      9  O   UNL     1      -2.308   3.096  -2.354  0.00  0.00    -0.126 OA
ENDBRANCH   6   7
BRANCH   4  10
ATOM     10  S   UNL     1      -0.237  -1.337  -6.319  0.00  0.00    +0.059 S 
ATOM     11  O   UNL     1       0.211  -2.649  -6.008  0.00  0.00    -0.153 OA
ATOM     12  O   UNL     1      -1.436  -1.094  -7.043  0.00  0.00    -0.153 OA
BRANCH  10  13
ATOM     13  N   UNL     1       0.984  -0.608  -7.166  0.00  0.00    -0.189 NA
ATOM     14  H   UNL     1       0.734   0.047  -8.014  0.00  0.00    +0.148 HD
BRANCH  13  15
ATOM     15  C   UNL     1       2.358  -0.658  -6.660  0.00  0.00    +0.121 C 
BRANCH  15  16
ATOM     16  C   UNL     1       3.327  -0.256  -7.773  0.00  0.00    +0.101 C 
BRANCH  16  17
ATOM     17  N   UNL     1       4.704  -0.305  -7.266  0.00  0.00    -0.297 NA
ATOM     18  C   UNL     1       4.923   0.719  -6.234  0.00  0.00    +0.112 C 
ATOM     19  C   UNL     1       6.349   0.593  -5.691  0.00  0.00    +0.175 C 
ATOM     20  O   UNL     1       7.277   0.707  -6.773  0.00  0.00    -0.377 OA
ATOM     21  C   UNL     1       7.093  -0.276  -7.796  0.00  0.00    +0.175 C 
ATOM     22  C   UNL     1       5.675  -0.158  -8.360  0.00  0.00    +0.112 C 
ENDBRANCH  16  17
ENDBRANCH  15  16
ENDBRANCH  13  15
ENDBRANCH  10  13
ENDBRANCH   4  10
BRANCH   1  23
ATOM     23  N   UNL     1      -0.757   1.542  -1.166  0.00  0.00    -0.339 N 
ATOM     24  H   UNL     1      -1.364   2.457  -1.106  0.00  0.00    +0.146 HD
BRANCH  23  26
ATOM     25  C   UNL     1       1.364   1.551   0.053  0.00  0.00    +0.028 C 
ATOM     26  C   UNL     1      -0.076   1.035   0.029  0.00  0.00    +0.068 C 
BRANCH  26  27
ATOM     27  C   UNL     1      -0.813   1.519   1.279  0.00  0.00    +0.026 C 
BRANCH  27  28
ATOM     28  C   UNL     1      -2.212   0.901   1.318  0.00  0.00    +0.037 C 
BRANCH  28  29
ATOM     29  C   UNL     1      -2.938   1.378   2.550  0.00  0.00    -0.047 A 
ATOM     30  C   UNL     1      -2.846   0.659   3.727  0.00  0.00    +0.003 A 
ATOM     31  C   UNL     1      -3.507   1.099   4.859  0.00  0.00    +0.000 A 
ATOM     32  C   UNL     1      -4.269   2.252   4.810  0.00  0.00    +0.000 A 
ATOM     33  C   UNL     1      -4.365   2.967   3.631  0.00  0.00    +0.000 A 
ATOM     34  C   UNL     1      -3.700   2.530   2.501  0.00  0.00    +0.003 A 
ENDBRANCH  28  29
ENDBRANCH  27  28
ENDBRANCH  26  27
ENDBRANCH  23  26
ENDBRANCH   1  23
TORSDOF 11
