REMARK  Name = ZINC10247888
REMARK  15 active torsions:
REMARK  status: ('A' for Active; 'I' for Inactive)
REMARK    1  A    between atoms: C_1  and  C_2
REMARK    2  A    between atoms: C_2  and  O_3
REMARK    3  A    between atoms: O_3  and  C_4
REMARK    4  A    between atoms: C_4  and  C_6
REMARK    5  A    between atoms: C_7  and  C_33
REMARK    6  A    between atoms: C_8  and  C_29
REMARK    7  A    between atoms: C_10  and  N_11
REMARK    8  A    between atoms: C_12  and  C_14
REMARK    9  A    between atoms: C_14  and  O_15
REMARK   10  A    between atoms: O_15  and  C_16
REMARK   11  A    between atoms: C_16  and  C_18
REMARK   12  A    between atoms: C_20  and  N_26
REMARK   13  A    between atoms: C_23  and  N_24
REMARK   14  A    between atoms: N_24  and  C_25
REMARK   15  A    between atoms: N_31  and  C_32
REMARK                            x       y       z     vdW  Elec       q    Type
REMARK                         _______ _______ _______ _____ _____    ______ ____
ROOT
ATOM      1  N   UNL     1       3.045   7.861  -0.284  0.00  0.00    -0.277 N 
ATOM      2  C   UNL     1       3.022   6.513  -0.262  0.00  0.00    +0.255 C 
ATOM      3  O   UNL     1       4.057   5.888  -0.352  0.00  0.00    -0.272 OA
ATOM      4  H   UNL     1       2.217   8.361  -0.212  0.00  0.00    +0.155 HD
ENDROOT
BRANCH   1   9
ATOM      5  C   UNL     1       4.477   9.909  -0.449  0.00  0.00    +0.091 A 
ATOM      6  C   UNL     1       5.788  10.340  -0.581  0.00  0.00    -0.015 A 
ATOM      7  C   UNL     1       6.766   9.386  -0.660  0.00  0.00    +0.079 A 
ATOM      8  S   UNL     1       5.843   7.866  -0.543  0.00  0.00    -0.068 S 
ATOM      9  C   UNL     1       4.247   8.529  -0.408  0.00  0.00    +0.087 A 
ATOM     10  C   UNL     1       6.125  11.808  -0.634  0.00  0.00    +0.046 C 
BRANCH   7  11
ATOM     11  C   UNL     1       8.213   9.569  -0.800  0.00  0.00    +0.251 C 
ATOM     12  O   UNL     1       8.681  10.691  -0.861  0.00  0.00    -0.270 OA
ATOM     13  N   UNL     1       9.024   8.495  -0.863  0.00  0.00    -0.314 N 
ATOM     14  C   UNL     1      10.471   8.678  -1.003  0.00  0.00    +0.128 C 
ATOM     15  H   UNL     1       8.651   7.601  -0.814  0.00  0.00    +0.149 HD
ENDBRANCH   7  11
BRANCH   5  16
ATOM     16  C   UNL     1       3.369  10.866  -0.358  0.00  0.00    +0.342 C 
ATOM     17  O   UNL     1       3.009  11.278   0.728  0.00  0.00    -0.245 OA
BRANCH  16  18
ATOM     18  O   UNL     1       2.749  11.289  -1.478  0.00  0.00    -0.461 OA
BRANCH  18  20
ATOM     19  C   UNL     1       1.085  12.597  -2.683  0.00  0.00    +0.048 C 
ATOM     20  C   UNL     1       1.661  12.236  -1.312  0.00  0.00    +0.229 C 
ENDBRANCH  18  20
ENDBRANCH  16  18
ENDBRANCH   5  16
ENDBRANCH   1   9
BRANCH   2  21
ATOM     21  C   UNL     1       1.710   5.784  -0.127  0.00  0.00    +0.328 C 
BRANCH  21  22
ATOM     22  O   UNL     1       1.950   4.352  -0.129  0.00  0.00    -0.452 OA
BRANCH  22  23
ATOM     23  C   UNL     1       0.873   3.550  -0.015  0.00  0.00    +0.342 C 
ATOM     24  O   UNL     1      -0.237   4.035   0.084  0.00  0.00    -0.245 OA
BRANCH  23  25
ATOM     25  C   UNL     1       1.040   2.087  -0.010  0.00  0.00    +0.082 A 
ATOM     26  C   UNL     1       2.320   1.526   0.000  0.00  0.00    +0.049 A 
ATOM     27  C   UNL     1       2.470   0.157   0.005  0.00  0.00    +0.127 A 
ATOM     28  C   UNL     1       1.357  -0.670  -0.001  0.00  0.00    +0.034 A 
ATOM     29  C   UNL     1       0.087  -0.132  -0.011  0.00  0.00    +0.026 A 
ATOM     30  C   UNL     1      -0.085   1.247  -0.016  0.00  0.00    +0.041 A 
BRANCH  30  31
ATOM     31  N   UNL     1      -1.362   1.791  -0.032  0.00  0.00    -0.346 N 
ATOM     32  C   UNL     1      -2.529   0.916  -0.167  0.00  0.00    +0.125 C 
ATOM     33  H   UNL     1      -1.482   2.751   0.046  0.00  0.00    +0.146 HD
ENDBRANCH  30  31
BRANCH  27  34
ATOM     34  N   UNL     1       3.827  -0.435   0.015  0.00  0.00    +0.056 N 
ATOM     35  O   UNL     1       3.963  -1.646   0.019  0.00  0.00    -0.126 OA
ATOM     36  O   UNL     1       4.807   0.288   0.020  0.00  0.00    -0.126 OA
ENDBRANCH  27  34
ENDBRANCH  23  25
ENDBRANCH  22  23
ENDBRANCH  21  22
ENDBRANCH   2  21
TORSDOF 11
