REMARK  Name = ZINC03185170
REMARK  10 active torsions:
REMARK  status: ('A' for Active; 'I' for Inactive)
REMARK    1  A    between atoms: C_1  and  C_2
REMARK    2  A    between atoms: C_5  and  O_8
REMARK    3  A    between atoms: O_8  and  C_9
REMARK    4  A    between atoms: N_11  and  C_12
REMARK    5  A    between atoms: C_12  and  C_13
REMARK    6  A    between atoms: C_13  and  O_14
REMARK    7  A    between atoms: O_14  and  C_15
REMARK    8  A    between atoms: N_17  and  S_18
REMARK    9  A    between atoms: S_18  and  C_21
REMARK   10  A    between atoms: C_24  and  C_27
REMARK                            x       y       z     vdW  Elec       q    Type
REMARK                         _______ _______ _______ _____ _____    ______ ____
ROOT
ATOM      1  O   UNL     1      -1.815   3.641  -2.621  0.00  0.00    -0.448 OA
ENDROOT
BRANCH   1   2
ATOM      2  C   UNL     1      -1.095   3.252  -1.552  0.00  0.00    +0.420 C 
ATOM      3  O   UNL     1      -0.663   4.081  -0.776  0.00  0.00    -0.225 OA
ATOM      4  N   UNL     1      -0.853   1.943  -1.344  0.00  0.00    -0.151 N 
ATOM      5  H   UNL     1      -1.198   1.281  -1.964  0.00  0.00    +0.180 HD
BRANCH   4   6
ATOM      6  S   UNL     1       0.033   1.463  -0.029  0.00  0.00    +0.077 S 
ATOM      7  O   UNL     1       0.089   0.044  -0.073  0.00  0.00    -0.150 OA
ATOM      8  O   UNL     1       1.201   2.272  -0.010  0.00  0.00    -0.150 OA
BRANCH   6   9
ATOM      9  C   UNL     1      -0.896   1.886   1.407  0.00  0.00    +0.109 A 
ATOM     10  C   UNL     1      -0.722   3.121   2.004  0.00  0.00    +0.029 A 
ATOM     11  C   UNL     1      -1.454   3.454   3.128  0.00  0.00    +0.005 A 
ATOM     12  C   UNL     1      -2.353   2.550   3.661  0.00  0.00    -0.050 A 
ATOM     13  C   UNL     1      -2.524   1.313   3.067  0.00  0.00    +0.005 A 
ATOM     14  C   UNL     1      -1.795   0.981   1.940  0.00  0.00    +0.029 A 
ATOM     15  C   UNL     1      -3.148   2.912   4.889  0.00  0.00    +0.044 C 
ENDBRANCH   6   9
ENDBRANCH   4   6
ENDBRANCH   1   2
BRANCH   1  16
ATOM     16  C   UNL     1      -2.037   5.067  -2.783  0.00  0.00    +0.252 C 
BRANCH  16  17
ATOM     17  C   UNL     1      -2.868   5.315  -4.043  0.00  0.00    +0.148 C 
BRANCH  17  20
ATOM     18  C   UNL     1      -5.112   4.829  -4.859  0.00  0.00    +0.406 C 
ATOM     19  O   UNL     1      -4.827   5.399  -5.894  0.00  0.00    -0.226 OA
ATOM     20  N   UNL     1      -4.202   4.732  -3.870  0.00  0.00    -0.278 N 
ATOM     21  H   UNL     1      -4.429   4.278  -3.044  0.00  0.00    +0.152 HD
BRANCH  18  22
ATOM     22  O   UNL     1      -6.338   4.294  -4.701  0.00  0.00    -0.412 OA
BRANCH  22  27
ATOM     23  C   UNL     1     -10.081   5.207  -8.810  0.00  0.00    +0.044 C 
ATOM     24  C   UNL     1      -9.079   4.963  -7.711  0.00  0.00    -0.050 A 
ATOM     25  C   UNL     1      -8.082   4.020  -7.882  0.00  0.00    +0.007 A 
ATOM     26  C   UNL     1      -7.163   3.795  -6.876  0.00  0.00    +0.047 A 
ATOM     27  C   UNL     1      -7.241   4.514  -5.693  0.00  0.00    +0.133 A 
ATOM     28  C   UNL     1      -8.245   5.456  -5.521  0.00  0.00    +0.047 A 
ATOM     29  C   UNL     1      -9.159   5.682  -6.532  0.00  0.00    +0.007 A 
ENDBRANCH  22  27
ENDBRANCH  18  22
ENDBRANCH  17  20
ENDBRANCH  16  17
ENDBRANCH   1  16
TORSDOF 8
