REMARK  Name = ZINC08583378
REMARK  11 active torsions:
REMARK  status: ('A' for Active; 'I' for Inactive)
REMARK    1  A    between atoms: C_1  and  C_2
REMARK    2  A    between atoms: C_2  and  C_3
REMARK    3  A    between atoms: N_9  and  C_10
REMARK    4  A    between atoms: C_10  and  C_11
REMARK    5  A    between atoms: C_11  and  C_12
REMARK    6  A    between atoms: C_12  and  N_13
REMARK    7  A    between atoms: C_14  and  C_16
REMARK    8  A    between atoms: C_16  and  N_17
REMARK    9  A    between atoms: C_20  and  S_28
REMARK   10  A    between atoms: S_28  and  N_31
REMARK   11  A    between atoms: C_34  and  C_37
REMARK                            x       y       z     vdW  Elec       q    Type
REMARK                         _______ _______ _______ _____ _____    ______ ____
ROOT
ATOM      1  N   UNL     1      -3.503   6.143   6.859  0.00  0.00    -0.261 N 
ATOM      2  C   UNL     1      -2.549   6.835   7.601  0.00  0.00    +0.052 A 
ATOM      3  C   UNL     1      -1.284   6.282   7.773  0.00  0.00    +0.053 A 
ATOM      4  C   UNL     1      -0.328   6.952   8.510  0.00  0.00    +0.107 A 
ATOM      5  C   UNL     1      -0.615   8.178   9.083  0.00  0.00    +0.030 A 
ATOM      6  C   UNL     1      -1.867   8.740   8.918  0.00  0.00    +0.018 A 
ATOM      7  C   UNL     1      -2.830   8.074   8.178  0.00  0.00    +0.030 A 
ATOM      8  S   UNL     1      -4.429   8.785   7.950  0.00  0.00    -0.114 S 
ATOM      9  C   UNL     1      -4.925   8.130   6.328  0.00  0.00    +0.170 C 
ATOM     10  C   UNL     1      -4.571   6.669   6.265  0.00  0.00    +0.230 C 
ATOM     11  O   UNL     1      -5.302   5.929   5.641  0.00  0.00    -0.274 OA
ENDROOT
BRANCH   4  12
ATOM     12  S   UNL     1       1.270   6.240   8.721  0.00  0.00    +0.061 S 
ATOM     13  O   UNL     1       1.813   6.806   9.906  0.00  0.00    -0.153 OA
ATOM     14  O   UNL     1       1.117   4.839   8.547  0.00  0.00    -0.153 OA
BRANCH  12  15
ATOM     15  N   UNL     1       2.213   6.773   7.468  0.00  0.00    -0.177 NA
ATOM     16  C   UNL     1       2.281   6.018   6.209  0.00  0.00    +0.110 C 
ATOM     17  C   UNL     1       3.751   5.734   5.883  0.00  0.00    +0.020 C 
ATOM     18  C   UNL     1       4.529   7.051   5.869  0.00  0.00    -0.012 C 
ATOM     19  C   UNL     1       4.459   7.703   7.252  0.00  0.00    +0.020 C 
ATOM     20  C   UNL     1       2.993   8.012   7.591  0.00  0.00    +0.110 C 
ATOM     21  C   UNL     1       5.991   6.775   5.510  0.00  0.00    +0.007 C 
ENDBRANCH  12  15
ENDBRANCH   4  12
BRANCH   1  22
ATOM     22  C   UNL     1      -3.310   4.698   6.715  0.00  0.00    +0.209 C 
BRANCH  22  24
ATOM     23  N   UNL     1      -2.172   3.153   5.154  0.00  0.00    -0.314 N 
ATOM     24  C   UNL     1      -2.480   4.422   5.489  0.00  0.00    +0.231 C 
ATOM     25  O   UNL     1      -2.088   5.342   4.802  0.00  0.00    -0.274 OA
ATOM     26  H   UNL     1      -2.486   2.418   5.703  0.00  0.00    +0.149 HD
BRANCH  23  27
ATOM     27  C   UNL     1      -1.365   2.885   3.962  0.00  0.00    +0.102 C 
BRANCH  27  28
ATOM     28  C   UNL     1      -1.163   1.376   3.811  0.00  0.00    +0.000 C 
BRANCH  28  29
ATOM     29  C   UNL     1      -0.320   1.096   2.566  0.00  0.00    -0.077 C 
BRANCH  29  35
ATOM     30  C   UNL     1       0.584  -0.628   1.166  0.00  0.00    -0.069 C 
ATOM     31  C   UNL     1       0.716  -2.140   0.972  0.00  0.00    -0.015 C 
ATOM     32  C   UNL     1       1.502  -2.733   2.145  0.00  0.00    -0.003 C 
ATOM     33  C   UNL     1       0.792  -2.376   3.454  0.00  0.00    -0.019 C 
ATOM     34  C   UNL     1       0.657  -0.856   3.557  0.00  0.00    -0.078 C 
ATOM     35  N   UNL     1      -0.126  -0.353   2.421  0.00  0.00    +0.382 N 
ATOM     36  H   UNL     1      -1.025  -0.811   2.405  0.00  0.00    -0.081 HD
BRANCH  30  38
ATOM     37  C   UNL     1       0.583  -0.238  -1.302  0.00  0.00    +0.002 C 
ATOM     38  C   UNL     1      -0.201  -0.031  -0.004  0.00  0.00    -0.019 C 
ENDBRANCH  30  38
ENDBRANCH  29  35
ENDBRANCH  28  29
ENDBRANCH  27  28
ENDBRANCH  23  27
ENDBRANCH  22  24
ENDBRANCH   1  22
TORSDOF 9
