REMARK  Name = ZINC13178185
REMARK  7 active torsions:
REMARK  status: ('A' for Active; 'I' for Inactive)
REMARK    1  A    between atoms: C_6  and  C_7
REMARK    2  A    between atoms: C_7  and  C_9
REMARK    3  A    between atoms: C_7  and  N_12
REMARK    4  A    between atoms: C_9  and  C_10
REMARK    5  A    between atoms: C_13  and  C_15
REMARK    6  A    between atoms: C_18  and  C_20
REMARK    7  A    between atoms: C_23  and  N_27
REMARK                            x       y       z     vdW  Elec       q    Type
REMARK                         _______ _______ _______ _____ _____    ______ ____
ROOT
ATOM      1  N   UNL     1      -0.869   1.791   0.955  0.00  0.00    -0.301 N 
ATOM      2  C   UNL     1      -0.944   1.189   2.158  0.00  0.00    +0.280 C 
ATOM      3  O   UNL     1      -0.461   0.082   2.317  0.00  0.00    -0.267 OA
ATOM      4  H   UNL     1      -1.316   2.639   0.808  0.00  0.00    +0.150 HD
ENDROOT
BRANCH   2   5
ATOM      5  C   UNL     1      -1.606   1.866   3.276  0.00  0.00    +0.190 A 
ATOM      6  C   UNL     1      -1.756   1.365   4.551  0.00  0.00    +0.055 A 
ATOM      7  C   UNL     1      -2.439   2.337   5.288  0.00  0.00    +0.051 A 
ATOM      8  C   UNL     1      -2.686   3.381   4.445  0.00  0.00    +0.137 A 
ATOM      9  O   UNL     1      -2.179   3.087   3.236  0.00  0.00    -0.450 OA
BRANCH   8  10
ATOM     10  C   UNL     1      -3.392   4.628   4.802  0.00  0.00    +0.036 A 
ATOM     11  C   UNL     1      -4.629   4.573   5.448  0.00  0.00    +0.015 A 
ATOM     12  C   UNL     1      -5.282   5.742   5.782  0.00  0.00    +0.033 A 
ATOM     13  C   UNL     1      -4.718   6.967   5.470  0.00  0.00    +0.128 A 
ATOM     14  C   UNL     1      -3.496   7.030   4.826  0.00  0.00    +0.053 A 
ATOM     15  C   UNL     1      -2.829   5.868   4.489  0.00  0.00    +0.054 A 
ATOM     16 CL   UNL     1      -1.295   5.949   3.680  0.00  0.00    -0.083 Cl
BRANCH  13  17
ATOM     17  N   UNL     1      -5.428   8.216   5.827  0.00  0.00    +0.056 N 
ATOM     18  O   UNL     1      -4.935   9.296   5.553  0.00  0.00    -0.126 OA
ATOM     19  O   UNL     1      -6.505   8.164   6.394  0.00  0.00    -0.126 OA
ENDBRANCH  13  17
ENDBRANCH   8  10
ENDBRANCH   2   5
BRANCH   1  20
ATOM     20  C   UNL     1      -0.113   1.163  -0.132  0.00  0.00    +0.114 C 
BRANCH  20  26
ATOM     21  C   UNL     1      -1.051   2.940  -1.626  0.00  0.00    +0.008 A 
ATOM     22  C   UNL     1      -1.551   3.364  -2.842  0.00  0.00    +0.038 A 
ATOM     23  C   UNL     1      -1.677   2.466  -3.889  0.00  0.00    +0.123 A 
ATOM     24  C   UNL     1      -1.295   1.146  -3.718  0.00  0.00    +0.038 A 
ATOM     25  C   UNL     1      -0.789   0.726  -2.502  0.00  0.00    +0.008 A 
ATOM     26  C   UNL     1      -0.665   1.623  -1.458  0.00  0.00    -0.027 A 
ATOM     27  F   UNL     1      -2.171   2.878  -5.077  0.00  0.00    -0.205 F 
ENDBRANCH  20  26
BRANCH  20  28
ATOM     28  C   UNL     1       1.360   1.563  -0.026  0.00  0.00    +0.152 C 
BRANCH  28  29
ATOM     29  C   UNL     1       2.163   0.794  -1.042  0.00  0.00    +0.358 C 
ATOM     30  O   UNL     1       1.639  -0.080  -1.692  0.00  0.00    -0.246 OA
ATOM     31  O   UNL     1       3.462   1.079  -1.226  0.00  0.00    -0.246 OA
ENDBRANCH  28  29
ENDBRANCH  20  28
ENDBRANCH   1  20
TORSDOF 7
