REMARK  Name = ZINC40082300
REMARK  12 active torsions:
REMARK  status: ('A' for Active; 'I' for Inactive)
REMARK    1  A    between atoms: C_1  and  C_2
REMARK    2  A    between atoms: C_2  and  C_3
REMARK    3  A    between atoms: C_3  and  O_4
REMARK    4  A    between atoms: O_4  and  C_5
REMARK    5  A    between atoms: C_8  and  C_12
REMARK    6  A    between atoms: C_9  and  C_11
REMARK    7  A    between atoms: C_12  and  C_14
REMARK    8  A    between atoms: N_18  and  C_30
REMARK    9  A    between atoms: C_19  and  C_21
REMARK   10  A    between atoms: C_25  and  N_27
REMARK   11  A    between atoms: C_30  and  C_31
REMARK   12  A    between atoms: C_31  and  O_32
REMARK                            x       y       z     vdW  Elec       q    Type
REMARK                         _______ _______ _______ _____ _____    ______ ____
ROOT
ATOM      1  C   UNL     1       3.967  -3.681  -6.942  0.00  0.00    +0.076 C 
ATOM      2  C   UNL     1       3.996  -4.291  -8.150  0.00  0.00    +0.249 C 
ATOM      3  C   UNL     1       4.232  -3.278  -9.200  0.00  0.00    +0.288 C 
ATOM      4  O   UNL     1       4.311  -3.512 -10.390  0.00  0.00    -0.266 OA
ATOM      5  N   UNL     1       4.347  -2.058  -8.644  0.00  0.00    -0.281 N 
ATOM      6  C   UNL     1       4.185  -2.207  -7.193  0.00  0.00    +0.145 C 
ATOM      7  O   UNL     1       3.834  -5.617  -8.362  0.00  0.00    -0.282 OA
ENDROOT
BRANCH   6   8
ATOM      8  C   UNL     1       2.992  -1.418  -6.718  0.00  0.00    -0.020 A 
ATOM      9  C   UNL     1       1.742  -1.664  -7.256  0.00  0.00    +0.006 A 
ATOM     10  C   UNL     1       0.648  -0.941  -6.821  0.00  0.00    +0.003 A 
ATOM     11  C   UNL     1       0.802   0.028  -5.847  0.00  0.00    +0.033 A 
ATOM     12  C   UNL     1       2.051   0.273  -5.309  0.00  0.00    +0.127 A 
ATOM     13  C   UNL     1       3.146  -0.453  -5.741  0.00  0.00    +0.038 A 
BRANCH  12  14
ATOM     14  N   UNL     1       2.217   1.311  -4.266  0.00  0.00    +0.056 N 
ATOM     15  O   UNL     1       1.248   1.879  -3.819  0.00  0.00    -0.126 OA
ATOM     16  O   UNL     1       3.322   1.592  -3.863  0.00  0.00    -0.126 OA
ENDBRANCH  12  14
ENDBRANCH   6   8
BRANCH   1  17
ATOM     17  C   UNL     1       3.757  -4.325  -5.642  0.00  0.00    +0.195 C 
ATOM     18  O   UNL     1       3.646  -3.647  -4.638  0.00  0.00    -0.287 OA
BRANCH  17  22
ATOM     19  C   UNL     1       3.539  -8.558  -5.381  0.00  0.00    +0.121 A 
ATOM     20  C   UNL     1       2.382  -7.796  -5.263  0.00  0.00    +0.046 A 
ATOM     21  C   UNL     1       2.449  -6.423  -5.346  0.00  0.00    +0.015 A 
ATOM     22  C   UNL     1       3.682  -5.796  -5.551  0.00  0.00    +0.025 A 
ATOM     23  C   UNL     1       4.842  -6.567  -5.670  0.00  0.00    -0.036 A 
ATOM     24  C   UNL     1       4.768  -7.939  -5.580  0.00  0.00    +0.049 A 
ATOM     25  C   UNL     1       6.173  -5.896  -5.891  0.00  0.00    +0.044 C 
BRANCH  19  26
ATOM     26  O   UNL     1       3.469  -9.911  -5.298  0.00  0.00    -0.492 OA
BRANCH  26  27
ATOM     27  C   UNL     1       2.165 -10.489  -5.209  0.00  0.00    +0.229 C 
BRANCH  27  29
ATOM     28  C   UNL     1       0.884 -12.633  -5.151  0.00  0.00    +0.007 C 
ATOM     29  C   UNL     1       2.280 -12.014  -5.246  0.00  0.00    +0.038 C 
ENDBRANCH  27  29
ENDBRANCH  26  27
ENDBRANCH  19  26
ENDBRANCH  17  22
ENDBRANCH   1  17
BRANCH   5  30
ATOM     30  C   UNL     1       4.586  -0.803  -9.361  0.00  0.00    +0.137 C 
BRANCH  30  31
ATOM     31  C   UNL     1       3.257  -0.256  -9.887  0.00  0.00    +0.175 C 
BRANCH  31  32
ATOM     32  O   UNL     1       2.446   0.164  -8.789  0.00  0.00    -0.393 OA
ATOM     33  H   UNL     1       1.586   0.522  -9.049  0.00  0.00    +0.209 HD
ENDBRANCH  31  32
ENDBRANCH  30  31
ENDBRANCH   5  30
TORSDOF 10
