REMARK  Name = ZINC14371310
REMARK  7 active torsions:
REMARK  status: ('A' for Active; 'I' for Inactive)
REMARK    1  A    between atoms: C_1  and  C_2
REMARK    2  A    between atoms: C_2  and  C_4
REMARK    3  A    between atoms: C_2  and  O_23
REMARK    4  A    between atoms: N_6  and  N_7
REMARK    5  A    between atoms: C_8  and  C_10
REMARK    6  A    between atoms: C_15  and  C_16
REMARK    7  A    between atoms: O_23  and  C_24
REMARK                            x       y       z     vdW  Elec       q    Type
REMARK                         _______ _______ _______ _____ _____    ______ ____
ROOT
ATOM      1  N   UNL     1      -3.390  -0.817   0.814  0.00  0.00    -0.230 N 
ATOM      2  C   UNL     1      -4.124  -0.611   1.925  0.00  0.00    +0.264 C 
ATOM      3  O   UNL     1      -3.639  -0.025   2.874  0.00  0.00    -0.269 OA
ATOM      4  H   UNL     1      -3.777  -1.284   0.057  0.00  0.00    +0.173 HD
ENDROOT
BRANCH   2   5
ATOM      5  C   UNL     1      -5.513  -1.095   1.990  0.00  0.00    +0.083 A 
ATOM      6  C   UNL     1      -6.165  -1.866   1.050  0.00  0.00    +0.118 A 
ATOM      7  N   UNL     1      -7.412  -2.087   1.491  0.00  0.00    -0.283 N 
ATOM      8  H   UNL     1      -8.088  -2.602   1.022  0.00  0.00    +0.188 HD
ATOM      9  N   UNL     1      -7.592  -1.462   2.728  0.00  0.00    -0.173 NA
ATOM     10  C   UNL     1      -6.476  -0.859   3.070  0.00  0.00    +0.105 A 
BRANCH  10  11
ATOM     11  C   UNL     1      -6.237  -0.084   4.311  0.00  0.00    +0.003 A 
ATOM     12  C   UNL     1      -5.574   1.141   4.254  0.00  0.00    +0.011 A 
ATOM     13  C   UNL     1      -5.354   1.858   5.412  0.00  0.00    +0.020 A 
ATOM     14  C   UNL     1      -5.790   1.363   6.630  0.00  0.00    +0.041 A 
ATOM     15  C   UNL     1      -6.449   0.148   6.692  0.00  0.00    +0.020 A 
ATOM     16  C   UNL     1      -6.679  -0.575   5.539  0.00  0.00    +0.011 A 
ATOM     17 CL   UNL     1      -5.510   2.271   8.083  0.00  0.00    -0.084 Cl
ENDBRANCH  10  11
ENDBRANCH   2   5
BRANCH   1  20
ATOM     18  C   UNL     1      -1.334  -0.562  -0.360  0.00  0.00    +0.270 C 
ATOM     19  O   UNL     1      -1.818  -1.146  -1.306  0.00  0.00    -0.270 OA
ATOM     20  N   UNL     1      -2.068  -0.356   0.752  0.00  0.00    -0.231 N 
ATOM     21  H   UNL     1      -1.681   0.111   1.509  0.00  0.00    +0.173 HD
BRANCH  18  23
ATOM     22  C   UNL     1       0.098   1.463  -0.372  0.00  0.00    +0.062 C 
ATOM     23  C   UNL     1       0.087  -0.066  -0.426  0.00  0.00    +0.257 C 
BRANCH  23  24
ATOM     24  O   UNL     1       0.688  -0.503  -1.647  0.00  0.00    -0.480 OA
BRANCH  24  25
ATOM     25  C   UNL     1       2.042  -0.617  -1.663  0.00  0.00    +0.122 A 
ATOM     26  C   UNL     1       2.786  -0.213  -0.564  0.00  0.00    +0.048 A 
ATOM     27  C   UNL     1       4.162  -0.329  -0.582  0.00  0.00    +0.042 A 
ATOM     28  C   UNL     1       4.800  -0.848  -1.696  0.00  0.00    +0.124 A 
ATOM     29  C   UNL     1       4.059  -1.250  -2.794  0.00  0.00    +0.042 A 
ATOM     30  C   UNL     1       2.682  -1.142  -2.777  0.00  0.00    +0.048 A 
ATOM     31  F   UNL     1       6.146  -0.960  -1.712  0.00  0.00    -0.205 F 
ENDBRANCH  24  25
ENDBRANCH  23  24
ENDBRANCH  18  23
ENDBRANCH   1  20
TORSDOF 6
