REMARK  Name = ZINC06495787
REMARK  3 active torsions:
REMARK  status: ('A' for Active; 'I' for Inactive)
REMARK    1  A    between atoms: C_4  and  C_7
REMARK    2  A    between atoms: C_8  and  C_9
REMARK    3  A    between atoms: C_15  and  C_17
REMARK                            x       y       z     vdW  Elec       q    Type
REMARK                         _______ _______ _______ _____ _____    ______ ____
ROOT
ATOM      1  C   UNL     1       1.241   2.093   0.002  0.00  0.00    +0.244 C 
ATOM      2  O   UNL     1       2.303   1.499  -0.012  0.00  0.00    -0.270 OA
ATOM      3  N   UNL     1       1.223   3.441   0.009  0.00  0.00    -0.235 N 
ATOM      4  C   UNL     1       2.412   4.149   0.001  0.00  0.00    +0.315 A 
ATOM      5  N   UNL     1       3.620   3.638  -0.007  0.00  0.00    -0.092 NA
ATOM      6  N   UNL     1       4.487   4.588  -0.015  0.00  0.00    -0.106 NA
ATOM      7  C   UNL     1       3.867   5.743  -0.004  0.00  0.00    +0.251 A 
ATOM      8  O   UNL     1       2.541   5.489   0.007  0.00  0.00    -0.405 OA
ATOM      9  H   UNL     1       0.376   3.914   0.019  0.00  0.00    +0.160 HD
ENDROOT
BRANCH   7  10
ATOM     10  C   UNL     1       4.503   7.077  -0.003  0.00  0.00    +0.057 A 
ATOM     11  C   UNL     1       3.715   8.229   0.004  0.00  0.00    +0.015 A 
ATOM     12  C   UNL     1       4.314   9.472   0.009  0.00  0.00    +0.001 A 
ATOM     13  C   UNL     1       5.694   9.578  -0.003  0.00  0.00    +0.001 A 
ATOM     14  C   UNL     1       6.482   8.441  -0.015  0.00  0.00    +0.021 A 
ATOM     15  C   UNL     1       5.895   7.191  -0.015  0.00  0.00    +0.053 A 
ATOM     16 CL   UNL     1       6.885   5.765  -0.031  0.00  0.00    -0.083 Cl
ENDBRANCH   7  10
BRANCH   1  18
ATOM     17  C   UNL     1       0.002  -0.004   0.002  0.00  0.00    +0.013 C 
ATOM     18  C   UNL     1      -0.016   1.344   0.009  0.00  0.00    +0.068 C 
BRANCH  17  22
ATOM     19  C   UNL     1      -3.642  -2.175   0.027  0.00  0.00    +0.000 A 
ATOM     20  C   UNL     1      -2.437  -2.854   0.011  0.00  0.00    +0.001 A 
ATOM     21  C   UNL     1      -1.248  -2.156   0.002  0.00  0.00    +0.008 A 
ATOM     22  C   UNL     1      -1.262  -0.757   0.010  0.00  0.00    -0.025 A 
ATOM     23  C   UNL     1      -2.485  -0.078   0.031  0.00  0.00    +0.008 A 
ATOM     24  C   UNL     1      -3.665  -0.791   0.034  0.00  0.00    +0.001 A 
ENDBRANCH  17  22
ENDBRANCH   1  18
TORSDOF 3
