REMARK  Name = ZINC28053291
REMARK  2 active torsions:
REMARK  status: ('A' for Active; 'I' for Inactive)
REMARK    1  A    between atoms: C_4  and  C_7
REMARK    2  A    between atoms: C_18  and  C_20
REMARK                            x       y       z     vdW  Elec       q    Type
REMARK                         _______ _______ _______ _____ _____    ______ ____
ROOT
ATOM      1  C   UNL     1       0.366  -4.037  -0.289  0.00  0.00    +0.174 C 
ATOM      2  C   UNL     1       0.196  -2.538  -0.287  0.00  0.00    +0.025 C 
ATOM      3  C   UNL     1       1.177  -1.708   0.072  0.00  0.00    +0.050 C 
ATOM      4  C   UNL     1       0.908  -0.251   0.065  0.00  0.00    +0.039 A 
ATOM      5  C   UNL     1       1.939   0.679   0.094  0.00  0.00    +0.033 A 
ATOM      6  C   UNL     1       1.640   2.029   0.090  0.00  0.00    +0.042 A 
ATOM      7  C   UNL     1       0.322   2.452   0.056  0.00  0.00    +0.023 A 
ATOM      8  C   UNL     1      -0.711   1.532   0.024  0.00  0.00    +0.048 A 
ATOM      9  C   UNL     1      -0.425   0.179   0.028  0.00  0.00    +0.131 A 
ATOM     10  O   UNL     1      -1.410  -0.755  -0.004  0.00  0.00    -0.479 OA
ATOM     11  C   UNL     1      -1.136  -1.963  -0.712  0.00  0.00    +0.234 C 
ATOM     12 CL   UNL     1       2.922   3.199   0.127  0.00  0.00    -0.084 Cl
ATOM     13  N   UNL     1       2.438  -2.169   0.469  0.00  0.00    -0.282 N 
ATOM     14  C   UNL     1       2.559  -3.519   0.758  0.00  0.00    +0.240 A 
ATOM     15  N   UNL     1       1.588  -4.405   0.413  0.00  0.00    -0.201 N 
ATOM     16  N   UNL     1       2.038  -5.644   0.866  0.00  0.00    -0.042 NA
ATOM     17  N   UNL     1       3.191  -5.439   1.416  0.00  0.00    -0.021 NA
ATOM     18  N   UNL     1       3.503  -4.189   1.353  0.00  0.00    -0.092 NA
ATOM     19  H   UNL     1       3.283  -1.468   0.540  0.00  0.00    +0.155 HD
ENDROOT
BRANCH  11  20
ATOM     20  C   UNL     1      -1.104  -1.676  -2.191  0.00  0.00    -0.002 A 
ATOM     21  C   UNL     1      -1.773  -2.507  -3.071  0.00  0.00    +0.007 A 
ATOM     22  C   UNL     1      -1.748  -2.241  -4.427  0.00  0.00    +0.002 A 
ATOM     23  C   UNL     1      -1.046  -1.151  -4.906  0.00  0.00    +0.020 A 
ATOM     24  C   UNL     1      -0.372  -0.322  -4.026  0.00  0.00    +0.041 A 
ATOM     25  C   UNL     1      -0.402  -0.585  -2.668  0.00  0.00    +0.027 A 
ATOM     26 CL   UNL     1       0.510   1.048  -4.626  0.00  0.00    -0.084 Cl
ENDBRANCH  11  20
BRANCH   1  30
ATOM     27  C   UNL     1       0.577  -5.432  -4.322  0.00  0.00    +0.000 A 
ATOM     28  C   UNL     1      -0.426  -5.885  -3.485  0.00  0.00    +0.000 A 
ATOM     29  C   UNL     1      -0.494  -5.434  -2.180  0.00  0.00    +0.006 A 
ATOM     30  C   UNL     1       0.441  -4.529  -1.712  0.00  0.00    -0.019 A 
ATOM     31  C   UNL     1       1.440  -4.072  -2.550  0.00  0.00    +0.006 A 
ATOM     32  C   UNL     1       1.511  -4.526  -3.853  0.00  0.00    +0.000 A 
ENDBRANCH   1  30
TORSDOF 2
