REMARK  Name = ZINC22853842
REMARK  6 active torsions:
REMARK  status: ('A' for Active; 'I' for Inactive)
REMARK    1  A    between atoms: C_1  and  C_2
REMARK    2  A    between atoms: C_2  and  C_3
REMARK    3  A    between atoms: C_9  and  C_11
REMARK    4  A    between atoms: C_11  and  C_13
REMARK    5  A    between atoms: C_11  and  N_18
REMARK    6  A    between atoms: C_21  and  C_24
REMARK                            x       y       z     vdW  Elec       q    Type
REMARK                         _______ _______ _______ _____ _____    ______ ____
ROOT
ATOM      1  C   UNL     1      -1.208  -0.902   0.008  0.00  0.00    +0.042 C 
ENDROOT
BRANCH   1   8
ATOM      2  C   UNL     1      -2.863  -2.336  -5.538  0.00  0.00    +0.152 A 
ATOM      3  N   UNL     1      -1.816  -2.975  -5.021  0.00  0.00    -0.205 NA
ATOM      4  C   UNL     1      -1.598  -2.538  -3.811  0.00  0.00    +0.199 A 
ATOM      5  N   UNL     1      -2.515  -1.583  -3.498  0.00  0.00    -0.170 N 
ATOM      6  N   UNL     1      -3.323  -1.485  -4.661  0.00  0.00    -0.146 NA
ATOM      7  C   UNL     1      -2.433  -1.015  -2.249  0.00  0.00    +0.282 A 
ATOM      8  C   UNL     1      -1.477  -1.392  -1.391  0.00  0.00    +0.053 A 
ATOM      9  S   UNL     1      -0.609  -2.633  -2.338  0.00  0.00    -0.050 S 
ATOM     10  O   UNL     1      -3.329  -0.059  -1.883  0.00  0.00    -0.265 OA
BRANCH   2  12
ATOM     11  C   UNL     1      -4.500  -3.652  -6.858  0.00  0.00    +0.012 C 
ATOM     12  C   UNL     1      -3.429  -2.560  -6.917  0.00  0.00    +0.075 C 
ENDBRANCH   2  12
ENDBRANCH   1   8
BRANCH   1  13
ATOM     13  N   UNL     1      -0.962  -2.050   0.890  0.00  0.00    +0.390 N 
ATOM     14  C   UNL     1      -2.081  -3.000   0.844  0.00  0.00    -0.077 C 
ATOM     15  C   UNL     1      -1.728  -4.247   1.657  0.00  0.00    -0.006 C 
ATOM     16  C   UNL     1      -1.438  -3.841   3.105  0.00  0.00    +0.071 C 
ATOM     17  C   UNL     1      -0.301  -2.816   3.121  0.00  0.00    -0.006 C 
ATOM     18  C   UNL     1      -0.695  -1.610   2.265  0.00  0.00    -0.077 C 
ATOM     19  H   UNL     1      -0.065  -2.572   0.525  0.00  0.00    -0.080 HD
BRANCH  16  20
ATOM     20  C   UNL     1      -1.032  -5.057   3.898  0.00  0.00    +0.213 C 
ATOM     21  O   UNL     1       0.059  -5.100   4.425  0.00  0.00    -0.276 OA
ATOM     22  N   UNL     1      -1.882  -6.096   4.021  0.00  0.00    -0.329 N 
ATOM     23  H   UNL     1      -1.585  -6.983   4.600  0.00  0.00    +0.145 HD
ATOM     24  H   UNL     1      -2.872  -6.056   3.543  0.00  0.00    +0.145 HD
ENDBRANCH  16  20
ENDBRANCH   1  13
BRANCH   1  25
ATOM     25  C   UNL     1       0.002  -0.004   0.002  0.00  0.00    +0.096 A 
ATOM     26  C   UNL     1      -0.016   1.341   0.009  0.00  0.00    +0.043 A 
ATOM     27  C   UNL     1       1.331   1.769  -0.001  0.00  0.00    +0.041 A 
ATOM     28  C   UNL     1       2.092   0.660  -0.014  0.00  0.00    +0.195 A 
ATOM     29  O   UNL     1       1.282  -0.411  -0.012  0.00  0.00    -0.469 OA
ENDBRANCH   1  25
TORSDOF 5
