REMARK  Name = ZINC65357027
REMARK  6 active torsions:
REMARK  status: ('A' for Active; 'I' for Inactive)
REMARK    1  A    between atoms: C_1  and  O_2
REMARK    2  A    between atoms: O_2  and  C_3
REMARK    3  A    between atoms: C_5  and  C_13
REMARK    4  A    between atoms: C_7  and  N_10
REMARK    5  A    between atoms: C_8  and  O_9
REMARK    6  A    between atoms: C_13  and  N_14
REMARK                            x       y       z     vdW  Elec       q    Type
REMARK                         _______ _______ _______ _____ _____    ______ ____
ROOT
ATOM      1  N   UNL     1      -5.295   0.520  -1.344  0.00  0.00    +0.384 N 
ATOM      2  C   UNL     1      -5.579  -0.755  -2.006  0.00  0.00    -0.074 C 
ATOM      3  C   UNL     1      -5.865  -0.530  -3.503  0.00  0.00    +0.015 C 
ATOM      4  C   UNL     1      -6.912   0.554  -3.569  0.00  0.00    -0.042 C 
ATOM      5  C   UNL     1      -8.060   0.652  -4.222  0.00  0.00    -0.001 A 
ATOM      6  C   UNL     1      -8.685  -0.203  -5.245  0.00  0.00    +0.010 A 
ATOM      7  C   UNL     1      -9.908   0.189  -5.689  0.00  0.00    +0.001 A 
ATOM      8  C   UNL     1     -10.565   1.332  -5.225  0.00  0.00    +0.002 A 
ATOM      9  C   UNL     1     -10.060   2.183  -4.295  0.00  0.00    +0.026 A 
ATOM     10  C   UNL     1      -8.775   1.881  -3.760  0.00  0.00    +0.043 A 
ATOM     11  N   UNL     1      -8.052   2.529  -2.893  0.00  0.00    -0.379 N 
ATOM     12  C   UNL     1      -6.771   1.840  -2.759  0.00  0.00    +0.090 C 
ATOM     13  C   UNL     1      -6.471   1.405  -1.324  0.00  0.00    -0.049 C 
ATOM     14  H   UNL     1      -8.318   3.332  -2.418  0.00  0.00    +0.160 HD
ATOM     15  H   UNL     1      -4.545   0.983  -1.835  0.00  0.00    -0.081 HD
ENDROOT
BRANCH   1  16
ATOM     16  C   UNL     1      -4.871   0.257   0.037  0.00  0.00    -0.043 C 
BRANCH  16  19
ATOM     17  C   UNL     1      -1.201  -0.638   0.010  0.00  0.00    +0.164 A 
ATOM     18  C   UNL     1      -2.374   0.099   0.019  0.00  0.00    +0.051 A 
ATOM     19  C   UNL     1      -3.596  -0.546   0.027  0.00  0.00    -0.058 A 
ATOM     20  C   UNL     1      -3.652  -1.928   0.026  0.00  0.00    +0.038 A 
ATOM     21  C   UNL     1      -2.485  -2.669   0.017  0.00  0.00    +0.171 A 
ATOM     22  C   UNL     1      -1.257  -2.028   0.003  0.00  0.00    +0.189 A 
BRANCH  21  23
ATOM     23  N   UNL     1      -2.548  -4.148   0.016  0.00  0.00    +0.060 N 
ATOM     24  O   UNL     1      -3.620  -4.708   0.023  0.00  0.00    -0.126 OA
ATOM     25  O   UNL     1      -1.528  -4.797   0.007  0.00  0.00    -0.126 OA
ENDBRANCH  21  23
BRANCH  17  27
ATOM     26  C   UNL     1      -0.017   1.425   0.010  0.00  0.00    +0.277 C 
ATOM     27  O   UNL     1       0.002  -0.004   0.002  0.00  0.00    -0.491 OA
ENDBRANCH  17  27
BRANCH  22  28
ATOM     28  O   UNL     1      -0.108  -2.756  -0.012  0.00  0.00    -0.502 OA
ATOM     29  H   UNL     1       0.232  -2.972   0.867  0.00  0.00    +0.292 HD
ENDBRANCH  22  28
ENDBRANCH  16  19
ENDBRANCH   1  16
TORSDOF 5
