REMARK  Name = ZINC64982307
REMARK  11 active torsions:
REMARK  status: ('A' for Active; 'I' for Inactive)
REMARK    1  A    between atoms: C_1  and  C_2
REMARK    2  A    between atoms: C_4  and  O_9
REMARK    3  A    between atoms: O_9  and  C_10
REMARK    4  A    between atoms: C_10  and  C_12
REMARK    5  A    between atoms: C_10  and  C_13
REMARK    6  A    between atoms: N_15  and  C_16
REMARK    7  A    between atoms: C_19  and  S_22
REMARK    8  A    between atoms: S_22  and  N_25
REMARK    9  A    between atoms: N_25  and  C_26
REMARK   10  A    between atoms: C_27  and  C_32
REMARK   11  A    between atoms: C_28  and  C_31
REMARK                            x       y       z     vdW  Elec       q    Type
REMARK                         _______ _______ _______ _____ _____    ______ ____
ROOT
ATOM      1  C   UNL     1       1.246  -6.987  -4.890  0.00  0.00    +0.034 A 
ATOM      2  C   UNL     1       1.646  -6.252  -5.999  0.00  0.00    +0.025 A 
ATOM      3  C   UNL     1       2.149  -6.900  -7.110  0.00  0.00    +0.031 A 
ATOM      4  C   UNL     1       2.254  -8.278  -7.120  0.00  0.00    +0.111 A 
ATOM      5  C   UNL     1       1.856  -9.013  -6.018  0.00  0.00    +0.031 A 
ATOM      6  C   UNL     1       1.358  -8.371  -4.901  0.00  0.00    +0.025 A 
ENDROOT
BRANCH   1   9
ATOM      7  C   UNL     1       0.968  -6.833  -2.533  0.00  0.00    +0.258 C 
ATOM      8  O   UNL     1       1.693  -7.796  -2.396  0.00  0.00    -0.271 OA
ATOM      9  N   UNL     1       0.737  -6.333  -3.763  0.00  0.00    -0.282 N 
ATOM     10  H   UNL     1       0.217  -5.521  -3.866  0.00  0.00    +0.155 HD
BRANCH   7  11
ATOM     11  C   UNL     1       0.326  -6.195  -1.327  0.00  0.00    +0.256 C 
ATOM     12  C   UNL     1       0.773  -4.736  -1.224  0.00  0.00    +0.062 C 
BRANCH  11  13
ATOM     13  O   UNL     1       0.722  -6.899  -0.148  0.00  0.00    -0.480 OA
BRANCH  13  17
ATOM     14  C   UNL     1      -3.291  -5.046   1.921  0.00  0.00    +0.045 C 
ATOM     15  C   UNL     1      -2.078  -5.939   1.967  0.00  0.00    -0.029 A 
ATOM     16  C   UNL     1      -1.230  -6.008   0.879  0.00  0.00    +0.050 A 
ATOM     17  C   UNL     1      -0.114  -6.830   0.921  0.00  0.00    +0.122 A 
ATOM     18  C   UNL     1       0.148  -7.583   2.057  0.00  0.00    +0.047 A 
ATOM     19  C   UNL     1      -0.702  -7.512   3.143  0.00  0.00    +0.024 A 
ATOM     20  C   UNL     1      -1.812  -6.686   3.101  0.00  0.00    +0.044 A 
ATOM     21 CL   UNL     1      -2.876  -6.593   4.469  0.00  0.00    -0.083 Cl
ENDBRANCH  13  17
ENDBRANCH  11  13
ENDBRANCH   7  11
ENDBRANCH   1   9
BRANCH   4  22
ATOM     22  S   UNL     1       2.895  -9.101  -8.540  0.00  0.00    +0.094 S 
ATOM     23  O   UNL     1       2.382 -10.426  -8.508  0.00  0.00    -0.148 OA
ATOM     24  O   UNL     1       2.686  -8.230  -9.643  0.00  0.00    -0.148 OA
BRANCH  22  25
ATOM     25  N   UNL     1       4.534  -9.223  -8.337  0.00  0.00    -0.057 NA
BRANCH  25  26
ATOM     26  C   UNL     1       5.308  -9.831  -9.308  0.00  0.00    +0.262 A 
ATOM     27  C   UNL     1       6.656 -10.003  -9.267  0.00  0.00    +0.037 A 
ATOM     28  C   UNL     1       7.045 -10.662 -10.440  0.00  0.00    +0.085 A 
ATOM     29  N   UNL     1       5.978 -10.879 -11.160  0.00  0.00    -0.081 NA
ATOM     30  O   UNL     1       4.861 -10.364 -10.457  0.00  0.00    -0.336 OA
ATOM     31  C   UNL     1       8.453 -11.052 -10.809  0.00  0.00    +0.069 C 
ATOM     32  C   UNL     1       7.571  -9.561  -8.154  0.00  0.00    +0.051 C 
ENDBRANCH  25  26
ENDBRANCH  22  25
ENDBRANCH   4  22
TORSDOF 7
