REMARK  Name = ZINC63136893
REMARK  11 active torsions:
REMARK  status: ('A' for Active; 'I' for Inactive)
REMARK    1  A    between atoms: C_1  and  O_2
REMARK    2  A    between atoms: O_2  and  C_3
REMARK    3  A    between atoms: C_6  and  O_37
REMARK    4  A    between atoms: C_7  and  C_9
REMARK    5  A    between atoms: N_28  and  C_31
REMARK    6  A    between atoms: C_31  and  C_32
REMARK    7  A    between atoms: C_32  and  C_33
REMARK    8  A    between atoms: C_33  and  C_34
REMARK    9  A    between atoms: C_34  and  C_35
REMARK   10  A    between atoms: C_35  and  O_36
REMARK   11  A    between atoms: O_37  and  C_38
REMARK                            x       y       z     vdW  Elec       q    Type
REMARK                         _______ _______ _______ _____ _____    ______ ____
ROOT
ATOM      1  C   UNL     1      -2.535  -4.173   0.016  0.00  0.00    +0.137 C 
ATOM      2  C   UNL     1      -2.721  -4.662  -1.420  0.00  0.00    +0.131 C 
ATOM      3  C   UNL     1      -1.361  -4.503  -2.095  0.00  0.00    -0.034 C 
ATOM      4  C   UNL     1      -1.530  -3.657  -3.102  0.00  0.00    -0.001 A 
ATOM      5  C   UNL     1      -0.596  -3.144  -4.118  0.00  0.00    +0.010 A 
ATOM      6  C   UNL     1      -1.113  -2.269  -5.020  0.00  0.00    +0.001 A 
ATOM      7  C   UNL     1      -2.450  -1.858  -5.014  0.00  0.00    +0.002 A 
ATOM      8  C   UNL     1      -3.377  -2.279  -4.118  0.00  0.00    +0.026 A 
ATOM      9  C   UNL     1      -2.954  -3.204  -3.119  0.00  0.00    +0.043 A 
ATOM     10  N   UNL     1      -3.639  -3.777  -2.150  0.00  0.00    -0.375 N 
ATOM     11  C   UNL     1      -0.144  -5.217  -1.573  0.00  0.00    +0.065 C 
ATOM     12  C   UNL     1      -0.133  -5.176  -0.067  0.00  0.00    +0.167 C 
ATOM     13  N   UNL     1      -1.315  -4.695   0.613  0.00  0.00    -0.279 N 
ATOM     14  C   UNL     1      -1.242  -4.693   1.985  0.00  0.00    +0.234 C 
ATOM     15  O   UNL     1      -2.191  -4.377   2.671  0.00  0.00    -0.274 OA
ATOM     16  C   UNL     1       0.079  -5.105   2.600  0.00  0.00    +0.203 C 
ATOM     17  N   UNL     1       1.167  -4.449   1.853  0.00  0.00    -0.291 N 
ATOM     18  C   UNL     1       1.088  -4.493   0.495  0.00  0.00    +0.237 C 
ATOM     19  O   UNL     1       1.946  -4.015  -0.216  0.00  0.00    -0.274 OA
ATOM     20  H   UNL     1      -4.577  -3.644  -1.946  0.00  0.00    +0.160 HD
ENDROOT
BRANCH   1  25
ATOM     21  C   UNL     1      -1.201  -0.638   0.010  0.00  0.00    +0.121 A 
ATOM     22  C   UNL     1      -2.374   0.102   0.020  0.00  0.00    +0.049 A 
ATOM     23  C   UNL     1      -3.596  -0.542   0.028  0.00  0.00    +0.049 A 
ATOM     24  C   UNL     1      -3.650  -1.928   0.027  0.00  0.00    +0.125 A 
ATOM     25  C   UNL     1      -2.477  -2.667   0.017  0.00  0.00    +0.020 A 
ATOM     26  C   UNL     1      -1.255  -2.023   0.003  0.00  0.00    +0.054 A 
BRANCH  21  28
ATOM     27  C   UNL     1      -0.017   1.425   0.010  0.00  0.00    +0.277 C 
ATOM     28  O   UNL     1       0.002  -0.004   0.002  0.00  0.00    -0.495 OA
ENDBRANCH  21  28
BRANCH  24  29
ATOM     29  O   UNL     1      -4.853  -2.562   0.036  0.00  0.00    -0.495 OA
ATOM     30  C   UNL     1      -6.021  -1.738   0.046  0.00  0.00    +0.277 C 
ENDBRANCH  24  29
ENDBRANCH   1  25
BRANCH  17  31
ATOM     31  C   UNL     1       2.278  -3.782   2.538  0.00  0.00    +0.108 C 
BRANCH  31  32
ATOM     32  C   UNL     1       3.408  -4.787   2.774  0.00  0.00    +0.019 C 
BRANCH  32  33
ATOM     33  C   UNL     1       4.567  -4.091   3.490  0.00  0.00    +0.004 C 
BRANCH  33  34
ATOM     34  C   UNL     1       5.697  -5.095   3.726  0.00  0.00    +0.028 C 
BRANCH  34  35
ATOM     35  C   UNL     1       6.857  -4.399   4.441  0.00  0.00    +0.156 C 
BRANCH  35  36
ATOM     36  O   UNL     1       7.912  -5.337   4.662  0.00  0.00    -0.395 OA
ATOM     37  H   UNL     1       8.682  -4.964   5.112  0.00  0.00    +0.209 HD
ENDBRANCH  35  36
ENDBRANCH  34  35
ENDBRANCH  33  34
ENDBRANCH  32  33
ENDBRANCH  31  32
ENDBRANCH  17  31
TORSDOF 9
