REMARK  Name = ZINC39685748
REMARK  15 active torsions:
REMARK  status: ('A' for Active; 'I' for Inactive)
REMARK    1  A    between atoms: C_1  and  C_2
REMARK    2  A    between atoms: C_2  and  C_3
REMARK    3  A    between atoms: C_2  and  C_4
REMARK    4  A    between atoms: C_4  and  C_6
REMARK    5  A    between atoms: C_4  and  N_13
REMARK    6  A    between atoms: N_8  and  C_9
REMARK    7  A    between atoms: C_9  and  C_10
REMARK    8  A    between atoms: C_9  and  C_11
REMARK    9  A    between atoms: C_9  and  C_12
REMARK   10  A    between atoms: C_14  and  C_16
REMARK   11  A    between atoms: C_27  and  C_29
REMARK   12  A    between atoms: C_32  and  O_37
REMARK   13  A    between atoms: C_34  and  O_35
REMARK   14  A    between atoms: O_35  and  C_36
REMARK   15  A    between atoms: O_37  and  C_38
REMARK                            x       y       z     vdW  Elec       q    Type
REMARK                         _______ _______ _______ _____ _____    ______ ____
ROOT
ATOM      1  C   UNL     1      -0.531  -3.985   1.267  0.00  0.00    +0.100 C 
ATOM      2  C   UNL     1      -1.619  -4.777   0.509  0.00  0.00    +0.121 C 
ATOM      3  N   UNL     1      -1.753  -6.045   1.265  0.00  0.00    -0.296 N 
ATOM      4  C   UNL     1      -1.644  -5.640   2.687  0.00  0.00    +0.115 C 
ATOM      5  C   UNL     1      -0.551  -4.553   2.696  0.00  0.00    -0.004 C 
ATOM      6  C   UNL     1      -0.906  -3.457   3.696  0.00  0.00    -0.010 C 
ATOM      7  C   UNL     1      -0.862  -4.033   5.114  0.00  0.00    -0.082 C 
ATOM      8  N   UNL     1       0.481  -4.558   5.390  0.00  0.00    +0.379 N 
ATOM      9  C   UNL     1       0.777  -5.674   4.484  0.00  0.00    -0.082 C 
ATOM     10  C   UNL     1       0.803  -5.168   3.039  0.00  0.00    -0.010 C 
ATOM     11  C   UNL     1      -1.934  -7.286   0.771  0.00  0.00    +0.250 C 
ATOM     12  O   UNL     1      -1.920  -7.470  -0.431  0.00  0.00    -0.270 OA
ATOM     13  H   UNL     1       1.161  -3.826   5.254  0.00  0.00    -0.086 HD
ATOM     14  H   UNL     1       0.524  -4.881   6.345  0.00  0.00    -0.086 HD
ENDROOT
BRANCH  11  15
ATOM     15  C   UNL     1      -2.147  -8.420   1.687  0.00  0.00    +0.079 A 
ATOM     16  C   UNL     1      -2.863  -8.238   2.875  0.00  0.00    +0.020 A 
ATOM     17  C   UNL     1      -3.061  -9.299   3.727  0.00  0.00    +0.046 A 
ATOM     18  C   UNL     1      -2.550 -10.555   3.413  0.00  0.00    +0.124 A 
ATOM     19  C   UNL     1      -1.839 -10.746   2.238  0.00  0.00    +0.092 A 
ATOM     20  C   UNL     1      -1.638  -9.688   1.369  0.00  0.00    +0.136 A 
BRANCH  20  21
ATOM     21  O   UNL     1      -0.947  -9.874   0.217  0.00  0.00    -0.494 OA
ATOM     22  C   UNL     1      -0.459 -11.193  -0.041  0.00  0.00    +0.277 C 
ENDBRANCH  20  21
BRANCH  18  23
ATOM     23  O   UNL     1      -2.750 -11.596   4.260  0.00  0.00    -0.495 OA
ATOM     24  C   UNL     1      -3.491 -11.330   5.453  0.00  0.00    +0.277 C 
ENDBRANCH  18  23
ENDBRANCH  11  15
BRANCH   1  26
ATOM     25  N   UNL     1      -2.106  -2.111   1.623  0.00  0.00    -0.303 N 
ATOM     26  C   UNL     1      -0.867  -2.515   1.282  0.00  0.00    +0.219 C 
ATOM     27  O   UNL     1      -0.021  -1.697   0.988  0.00  0.00    -0.275 OA
ATOM     28  H   UNL     1      -2.762  -2.759   1.927  0.00  0.00    +0.149 HD
BRANCH  25  29
ATOM     29  C   UNL     1      -2.464  -0.693   1.536  0.00  0.00    +0.161 C 
BRANCH  29  30
ATOM     30  C   UNL     1      -3.591  -0.399   2.493  0.00  0.00    +0.234 C 
ATOM     31  O   UNL     1      -4.180  -1.311   3.034  0.00  0.00    -0.274 OA
ATOM     32  N   UNL     1      -3.943   0.876   2.747  0.00  0.00    -0.309 N 
ATOM     33  H   UNL     1      -3.429   1.606   2.369  0.00  0.00    +0.149 HD
BRANCH  32  34
ATOM     34  C   UNL     1      -5.104   1.160   3.595  0.00  0.00    +0.026 C 
ATOM     35  C   UNL     1      -4.882   0.554   4.982  0.00  0.00    +0.031 C 
ATOM     36  C   UNL     1      -5.284   2.674   3.723  0.00  0.00    +0.031 C 
ATOM     37  C   UNL     1      -6.357   0.549   2.966  0.00  0.00    +0.031 C 
ENDBRANCH  32  34
ENDBRANCH  29  30
BRANCH  29  39
ATOM     38  C   UNL     1      -1.725  -0.535  -0.846  0.00  0.00    +0.009 C 
ATOM     39  C   UNL     1      -2.909  -0.366   0.109  0.00  0.00    +0.012 C 
ATOM     40  C   UNL     1      -4.035  -1.316  -0.304  0.00  0.00    +0.009 C 
ENDBRANCH  29  39
ENDBRANCH  25  29
ENDBRANCH   1  26
TORSDOF 8
