REMARK  Name = ZINC64612652
REMARK  5 active torsions:
REMARK  status: ('A' for Active; 'I' for Inactive)
REMARK    1  A    between atoms: C_4  and  C_7
REMARK    2  A    between atoms: C_11  and  C_14
REMARK    3  A    between atoms: C_17  and  S_19
REMARK    4  A    between atoms: S_19  and  N_22
REMARK    5  A    between atoms: N_22  and  C_23
REMARK                            x       y       z     vdW  Elec       q    Type
REMARK                         _______ _______ _______ _____ _____    ______ ____
ROOT
ATOM      1  C   UNL     1       5.386  -2.808   2.302  0.00  0.00    +0.069 C 
ATOM      2  N   UNL     1       6.194  -3.796   2.115  0.00  0.00    -0.258 NA
ATOM      3  C   UNL     1       7.159  -3.889   3.059  0.00  0.00    +0.135 C 
ATOM      4  C   UNL     1       7.060  -2.934   3.977  0.00  0.00    +0.106 C 
ATOM      5  C   UNL     1       5.860  -2.104   3.558  0.00  0.00    +0.112 C 
ENDROOT
BRANCH   1   9
ATOM      6  C   UNL     1       3.711  -0.707  -0.038  0.00  0.00    +0.233 C 
ATOM      7  N   UNL     1       3.553  -2.007  -0.730  0.00  0.00    -0.223 NA
ATOM      8  N   UNL     1       4.402  -2.922   0.052  0.00  0.00    -0.222 NA
ATOM      9  C   UNL     1       4.211  -2.425   1.440  0.00  0.00    +0.248 C 
ATOM     10  O   UNL     1       4.131  -0.990   1.306  0.00  0.00    -0.332 OA
ATOM     11  H   UNL     1       3.870  -1.948  -1.686  0.00  0.00    +0.144 HD
ATOM     12  H   UNL     1       4.084  -3.876  -0.038  0.00  0.00    +0.144 HD
BRANCH   6  16
ATOM     13  C   UNL     1      -0.017   1.378   0.010  0.00  0.00    +0.000 A 
ATOM     14  C   UNL     1       1.171   2.086   0.002  0.00  0.00    +0.000 A 
ATOM     15  C   UNL     1       2.377   1.411  -0.013  0.00  0.00    +0.007 A 
ATOM     16  C   UNL     1       2.396   0.029  -0.020  0.00  0.00    -0.003 A 
ATOM     17  C   UNL     1       1.208  -0.679  -0.012  0.00  0.00    +0.007 A 
ATOM     18  C   UNL     1       0.002  -0.004   0.002  0.00  0.00    +0.000 A 
ENDBRANCH   6  16
ENDBRANCH   1   9
BRANCH   4  19
ATOM     19  S   UNL     1       8.101  -2.681   5.376  0.00  0.00    +0.057 S 
ATOM     20  O   UNL     1       9.201  -3.569   5.230  0.00  0.00    -0.153 OA
ATOM     21  O   UNL     1       8.270  -1.276   5.508  0.00  0.00    -0.153 OA
BRANCH  19  22
ATOM     22  N   UNL     1       7.260  -3.184   6.710  0.00  0.00    -0.187 NA
ATOM     23  H   UNL     1       7.004  -2.544   7.393  0.00  0.00    +0.148 HD
BRANCH  22  24
ATOM     24  C   UNL     1       6.901  -4.597   6.860  0.00  0.00    +0.077 C 
ATOM     25  C   UNL     1       5.483  -4.822   6.332  0.00  0.00    +0.020 C 
ATOM     26  C   UNL     1       5.109  -6.297   6.489  0.00  0.00    +0.002 C 
ATOM     27  C   UNL     1       5.170  -6.684   7.968  0.00  0.00    +0.000 C 
ATOM     28  C   UNL     1       6.588  -6.459   8.496  0.00  0.00    +0.002 C 
ATOM     29  C   UNL     1       6.962  -4.984   8.339  0.00  0.00    +0.020 C 
ENDBRANCH  22  24
ENDBRANCH  19  22
ENDBRANCH   4  19
TORSDOF 5
