REMARK  Name = ZINC44393093
REMARK  8 active torsions:
REMARK  status: ('A' for Active; 'I' for Inactive)
REMARK    1  A    between atoms: C_1  and  C_2
REMARK    2  A    between atoms: C_2  and  O_3
REMARK    3  A    between atoms: O_3  and  C_4
REMARK    4  A    between atoms: C_7  and  C_10
REMARK    5  A    between atoms: N_15  and  C_17
REMARK    6  A    between atoms: C_17  and  C_19
REMARK    7  A    between atoms: C_17  and  C_20
REMARK    8  A    between atoms: C_28  and  C_32
REMARK                            x       y       z     vdW  Elec       q    Type
REMARK                         _______ _______ _______ _____ _____    ______ ____
ROOT
ATOM      1  C   UNL     1       1.107  -6.019  -1.845  0.00  0.00    +0.092 A 
ATOM      2  C   UNL     1       0.556  -6.892  -0.877  0.00  0.00    +0.035 A 
ATOM      3  C   UNL     1       0.681  -8.235  -1.073  0.00  0.00    +0.074 A 
ATOM      4  C   UNL     1       1.355  -8.674  -2.235  0.00  0.00    +0.268 A 
ATOM      5  O   UNL     1       1.491  -9.867  -2.453  0.00  0.00    -0.266 OA
ATOM      6  N   UNL     1       1.846  -7.766  -3.100  0.00  0.00    -0.217 N 
ATOM      7  N   UNL     1       1.715  -6.504  -2.902  0.00  0.00    -0.168 NA
ENDROOT
BRANCH   1  11
ATOM      8  C   UNL     1       0.777  -1.810  -1.336  0.00  0.00    +0.121 A 
ATOM      9  C   UNL     1       0.241  -2.667  -0.384  0.00  0.00    +0.046 A 
ATOM     10  C   UNL     1       0.347  -4.032  -0.546  0.00  0.00    +0.013 A 
ATOM     11  C   UNL     1       0.992  -4.551  -1.668  0.00  0.00    +0.002 A 
ATOM     12  C   UNL     1       1.528  -3.688  -2.622  0.00  0.00    +0.013 A 
ATOM     13  C   UNL     1       1.415  -2.324  -2.457  0.00  0.00    +0.046 A 
BRANCH   8  14
ATOM     14  O   UNL     1       0.671  -0.465  -1.174  0.00  0.00    -0.492 OA
BRANCH  14  16
ATOM     15  C   UNL     1      -0.019   1.526   0.010  0.00  0.00    +0.048 C 
ATOM     16  C   UNL     1       0.002  -0.004   0.002  0.00  0.00    +0.225 C 
ENDBRANCH  14  16
ENDBRANCH   8  14
ENDBRANCH   1  11
BRANCH   6  17
ATOM     17  C   UNL     1       2.543  -8.231  -4.301  0.00  0.00    +0.194 C 
ATOM     18  C   UNL     1       1.813  -7.718  -5.545  0.00  0.00    +0.043 C 
BRANCH  17  19
ATOM     19  C   UNL     1       3.956  -7.708  -4.297  0.00  0.00    +0.243 C 
ATOM     20  O   UNL     1       4.343  -7.015  -3.380  0.00  0.00    -0.273 OA
ATOM     21  N   UNL     1       4.790  -8.010  -5.311  0.00  0.00    -0.263 N 
ATOM     22  C   UNL     1       6.089  -7.528  -5.307  0.00  0.00    +0.165 A 
ATOM     23  N   UNL     1       6.686  -6.778  -4.411  0.00  0.00    -0.225 NA
ATOM     24  C   UNL     1       7.970  -6.379  -4.537  0.00  0.00    +0.080 A 
ATOM     25  C   UNL     1       8.726  -5.576  -3.651  0.00  0.00    +0.029 A 
ATOM     26  C   UNL     1      10.030  -5.261  -3.932  0.00  0.00    +0.005 A 
ATOM     27  C   UNL     1      10.653  -5.715  -5.085  0.00  0.00    -0.049 A 
ATOM     28  C   UNL     1       9.944  -6.503  -5.973  0.00  0.00    +0.020 A 
ATOM     29  C   UNL     1       8.638  -6.824  -5.701  0.00  0.00    +0.041 A 
ATOM     30  S   UNL     1       7.381  -7.779  -6.516  0.00  0.00    -0.052 S 
ATOM     31  C   UNL     1      12.088  -5.353  -5.367  0.00  0.00    +0.044 C 
ATOM     32  H   UNL     1       4.480  -8.564  -6.045  0.00  0.00    +0.157 HD
ENDBRANCH  17  19
ENDBRANCH   6  17
TORSDOF 5
