REMARK  Name = ZINC04574453
REMARK  13 active torsions:
REMARK  status: ('A' for Active; 'I' for Inactive)
REMARK    1  A    between atoms: C_1  and  C_2
REMARK    2  A    between atoms: C_2  and  C_3
REMARK    3  A    between atoms: C_2  and  C_4
REMARK    4  A    between atoms: C_4  and  N_5
REMARK    5  A    between atoms: N_5  and  C_6
REMARK    6  A    between atoms: N_5  and  S_10
REMARK    7  A    between atoms: C_6  and  C_7
REMARK    8  A    between atoms: C_7  and  C_8
REMARK    9  A    between atoms: C_7  and  C_9
REMARK   10  A    between atoms: S_10  and  C_13
REMARK   11  A    between atoms: C_15  and  N_28
REMARK   12  A    between atoms: C_18  and  N_19
REMARK   13  A    between atoms: C_22  and  C_25
REMARK                            x       y       z     vdW  Elec       q    Type
REMARK                         _______ _______ _______ _____ _____    ______ ____
ROOT
ATOM      1  C   UNL     1       0.206   2.269   2.609  0.00  0.00    +0.129 A 
ATOM      2  C   UNL     1       0.999   1.568   3.496  0.00  0.00    +0.063 A 
ATOM      3  C   UNL     1       1.095   0.192   3.401  0.00  0.00    +0.128 A 
ATOM      4  C   UNL     1       0.392  -0.488   2.423  0.00  0.00    +0.034 A 
ATOM      5  C   UNL     1      -0.408   0.206   1.537  0.00  0.00    +0.027 A 
ATOM      6  C   UNL     1      -0.506   1.589   1.629  0.00  0.00    +0.056 A 
ENDROOT
BRANCH   6   7
ATOM      7  N   UNL     1      -1.314   2.294   0.734  0.00  0.00    -0.328 N 
ATOM      8  C   UNL     1      -0.974   1.963  -0.656  0.00  0.00    +0.106 C 
ATOM      9  C   UNL     1      -1.774   2.857  -1.605  0.00  0.00    +0.031 C 
ATOM     10  C   UNL     1      -3.271   2.642  -1.361  0.00  0.00    +0.078 C 
ATOM     11  C   UNL     1      -3.589   2.948   0.105  0.00  0.00    +0.031 C 
ATOM     12  C   UNL     1      -2.736   2.051   1.005  0.00  0.00    +0.106 C 
BRANCH  10  13
ATOM     13  C   UNL     1      -4.064   3.563  -2.252  0.00  0.00    +0.214 C 
ATOM     14  O   UNL     1      -3.490   4.317  -3.009  0.00  0.00    -0.276 OA
ATOM     15  N   UNL     1      -5.411   3.548  -2.208  0.00  0.00    -0.329 N 
ATOM     16  H   UNL     1      -5.870   2.945  -1.603  0.00  0.00    +0.145 HD
ATOM     17  H   UNL     1      -5.921   4.141  -2.782  0.00  0.00    +0.145 HD
ENDBRANCH  10  13
ENDBRANCH   6   7
BRANCH   1  18
ATOM     18  S   UNL     1       0.090   4.024   2.725  0.00  0.00    +0.063 S 
ATOM     19  O   UNL     1      -1.290   4.347   2.634  0.00  0.00    -0.153 OA
ATOM     20  O   UNL     1       0.892   4.411   3.833  0.00  0.00    -0.153 OA
BRANCH  18  21
ATOM     21  N   UNL     1       0.814   4.652   1.374  0.00  0.00    -0.176 NA
BRANCH  21  22
ATOM     22  C   UNL     1       0.001   5.024   0.214  0.00  0.00    +0.112 C 
BRANCH  22  24
ATOM     23  C   UNL     1      -0.986   6.941  -1.050  0.00  0.00    +0.008 C 
ATOM     24  C   UNL     1      -0.244   6.535   0.225  0.00  0.00    -0.001 C 
ATOM     25  C   UNL     1      -1.088   6.905   1.446  0.00  0.00    +0.008 C 
ENDBRANCH  22  24
ENDBRANCH  21  22
BRANCH  21  26
ATOM     26  C   UNL     1       2.267   4.837   1.340  0.00  0.00    +0.112 C 
BRANCH  26  27
ATOM     27  C   UNL     1       2.923   3.602   0.720  0.00  0.00    -0.001 C 
ATOM     28  C   UNL     1       2.505   3.484  -0.747  0.00  0.00    +0.008 C 
ATOM     29  C   UNL     1       4.445   3.735   0.807  0.00  0.00    +0.008 C 
ENDBRANCH  26  27
ENDBRANCH  21  26
ENDBRANCH  18  21
ENDBRANCH   1  18
BRANCH   3  30
ATOM     30  N   UNL     1       1.951  -0.555   4.349  0.00  0.00    +0.056 N 
ATOM     31  O   UNL     1       2.037  -1.768   4.268  0.00  0.00    -0.126 OA
ATOM     32  O   UNL     1       2.570   0.042   5.212  0.00  0.00    -0.126 OA
ENDBRANCH   3  30
TORSDOF 9
