REMARK  Name = ZINC43596508
REMARK  5 active torsions:
REMARK  status: ('A' for Active; 'I' for Inactive)
REMARK    1  A    between atoms: C_1  and  C_2
REMARK    2  A    between atoms: C_2  and  C_4
REMARK    3  A    between atoms: C_2  and  N_10
REMARK    4  A    between atoms: N_10  and  C_11
REMARK    5  A    between atoms: C_14  and  N_18
REMARK                            x       y       z     vdW  Elec       q    Type
REMARK                         _______ _______ _______ _____ _____    ______ ____
ROOT
ATOM      1  C   UNL     1       2.103  -0.604   1.173  0.00  0.00    +0.042 A 
ATOM      2  C   UNL     1       2.818  -0.253   0.035  0.00  0.00    +0.026 A 
ATOM      3  C   UNL     1       4.194  -0.366   0.023  0.00  0.00    +0.034 A 
ATOM      4  C   UNL     1       4.861  -0.830   1.142  0.00  0.00    +0.127 A 
ATOM      5  C   UNL     1       4.154  -1.181   2.277  0.00  0.00    +0.049 A 
ATOM      6  C   UNL     1       2.777  -1.064   2.298  0.00  0.00    +0.041 A 
ATOM      7 BR   UNL     1       1.810  -1.536   3.853  0.00  0.00    -0.048 Br
ENDROOT
BRANCH   4   8
ATOM      8  N   UNL     1       6.336  -0.952   1.124  0.00  0.00    +0.056 N 
ATOM      9  O   UNL     1       6.956  -0.646   0.133  0.00  0.00    -0.126 OA
ATOM     10  O   UNL     1       6.921  -1.357   2.102  0.00  0.00    -0.126 OA
ENDBRANCH   4   8
BRANCH   1  11
ATOM     11  N   UNL     1       0.711  -0.489   1.189  0.00  0.00    -0.338 N 
ATOM     12  H   UNL     1       0.213  -0.731   1.986  0.00  0.00    +0.146 HD
BRANCH  11  14
ATOM     13  C   UNL     1      -0.019   1.526   0.010  0.00  0.00    +0.030 C 
ATOM     14  C   UNL     1       0.002  -0.004   0.002  0.00  0.00    +0.096 C 
BRANCH  14  15
ATOM     15  C   UNL     1      -1.433  -0.534   0.013  0.00  0.00    +0.138 C 
ATOM     16  C   UNL     1      -2.151  -0.128  -1.292  0.00  0.00    +0.035 C 
ATOM     17  C   UNL     1      -3.577   0.225  -0.788  0.00  0.00    +0.031 C 
ATOM     18  C   UNL     1      -3.257   0.825   0.604  0.00  0.00    +0.160 C 
ATOM     19  O   UNL     1      -2.157   0.046   1.105  0.00  0.00    -0.375 OA
ENDBRANCH  14  15
ENDBRANCH  11  14
ENDBRANCH   1  11
TORSDOF 4
