REMARK  Name = ZINC02156372
REMARK  6 active torsions:
REMARK  status: ('A' for Active; 'I' for Inactive)
REMARK    1  A    between atoms: C_1  and  O_2
REMARK    2  A    between atoms: O_2  and  C_3
REMARK    3  A    between atoms: C_7  and  C_10
REMARK    4  A    between atoms: C_8  and  O_9
REMARK    5  A    between atoms: N_11  and  C_12
REMARK    6  A    between atoms: C_14  and  N_19
REMARK                            x       y       z     vdW  Elec       q    Type
REMARK                         _______ _______ _______ _____ _____    ______ ____
ROOT
ATOM      1  C   UNL     1       2.475   1.079  -0.016  0.00  0.00    +0.123 C 
ATOM      2  N   UNL     1       3.593   1.749  -0.023  0.00  0.00    -0.253 NA
ENDROOT
BRANCH   2   3
ATOM      3  C   UNL     1       4.789   1.085  -0.038  0.00  0.00    +0.084 A 
ATOM      4  C   UNL     1       4.947  -0.060  -0.822  0.00  0.00    +0.062 A 
ATOM      5  C   UNL     1       6.155  -0.724  -0.833  0.00  0.00    +0.128 A 
ATOM      6  C   UNL     1       7.212  -0.258  -0.069  0.00  0.00    +0.034 A 
ATOM      7  C   UNL     1       7.064   0.875   0.710  0.00  0.00    +0.024 A 
ATOM      8  C   UNL     1       5.862   1.553   0.727  0.00  0.00    +0.066 A 
ATOM      9 CL   UNL     1       5.680   2.980   1.699  0.00  0.00    -0.081 Cl
BRANCH   5  10
ATOM     10  N   UNL     1       6.323  -1.938  -1.663  0.00  0.00    +0.056 N 
ATOM     11  O   UNL     1       5.395  -2.349  -2.335  0.00  0.00    -0.126 OA
ATOM     12  O   UNL     1       7.390  -2.525  -1.674  0.00  0.00    -0.126 OA
ENDBRANCH   5  10
ENDBRANCH   2   3
BRANCH   1  17
ATOM     13  C   UNL     1      -0.060   3.857   0.022  0.00  0.00    +0.162 A 
ATOM     14  C   UNL     1      -1.242   3.133   0.030  0.00  0.00    +0.049 A 
ATOM     15  C   UNL     1      -1.215   1.749   0.017  0.00  0.00    +0.004 A 
ATOM     16  C   UNL     1      -0.013   1.076   0.008  0.00  0.00    +0.013 A 
ATOM     17  C   UNL     1       1.189   1.792   0.000  0.00  0.00    +0.038 A 
ATOM     18  C   UNL     1       1.161   3.194   0.008  0.00  0.00    +0.167 A 
BRANCH  13  20
ATOM     19  C   UNL     1      -1.385   5.832   0.045  0.00  0.00    +0.277 C 
ATOM     20  O   UNL     1      -0.096   5.217   0.030  0.00  0.00    -0.491 OA
ENDBRANCH  13  20
BRANCH  18  21
ATOM     21  O   UNL     1       2.321   3.900   0.001  0.00  0.00    -0.503 OA
ATOM     22  H   UNL     1       2.649   4.109  -0.884  0.00  0.00    +0.292 HD
ENDBRANCH  18  21
ENDBRANCH   1  17
TORSDOF 5
