REMARK  Name = ZINC13046510
REMARK  10 active torsions:
REMARK  status: ('A' for Active; 'I' for Inactive)
REMARK    1  A    between atoms: C_1  and  N_2
REMARK    2  A    between atoms: N_2  and  C_3
REMARK    3  A    between atoms: C_3  and  C_4
REMARK    4  A    between atoms: C_12  and  C_14
REMARK    5  A    between atoms: C_14  and  S_15
REMARK    6  A    between atoms: S_15  and  C_16
REMARK    7  A    between atoms: C_20  and  C_30
REMARK    8  A    between atoms: N_26  and  C_27
REMARK    9  A    between atoms: C_27  and  C_28
REMARK   10  A    between atoms: C_28  and  O_29
REMARK                            x       y       z     vdW  Elec       q    Type
REMARK                         _______ _______ _______ _____ _____    ______ ____
ROOT
ATOM      1  C   UNL     1       1.091   2.051   0.003  0.00  0.00    +0.173 A 
ATOM      2  N   UNL     1      -0.016   1.350   0.009  0.00  0.00    -0.223 NA
ATOM      3  C   UNL     1       0.002  -0.004   0.002  0.00  0.00    +0.080 A 
ATOM      4  C   UNL     1      -1.180  -0.750   0.009  0.00  0.00    +0.043 A 
ATOM      5  C   UNL     1      -1.112  -2.137   0.000  0.00  0.00    +0.065 A 
ATOM      6  C   UNL     1       0.129  -2.788  -0.015  0.00  0.00    +0.016 A 
ATOM      7  C   UNL     1       1.290  -2.070  -0.022  0.00  0.00    +0.016 A 
ATOM      8  C   UNL     1       1.245  -0.676  -0.013  0.00  0.00    +0.065 A 
ATOM      9  C   UNL     1       2.472   0.137  -0.021  0.00  0.00    +0.262 A 
ATOM     10  O   UNL     1       3.572  -0.383  -0.035  0.00  0.00    -0.267 OA
ATOM     11  N   UNL     1       2.332   1.482  -0.012  0.00  0.00    -0.285 N 
ENDROOT
BRANCH   5  12
ATOM     12  C   UNL     1      -2.359  -2.934   0.007  0.00  0.00    +0.387 C 
ATOM     13  O   UNL     1      -3.437  -2.374   0.020  0.00  0.00    -0.241 OA
ATOM     14  O   UNL     1      -2.299  -4.279  -0.001  0.00  0.00    -0.241 OA
ENDBRANCH   5  12
BRANCH   1  15
ATOM     15  S   UNL     1       0.972   3.809   0.013  0.00  0.00    -0.078 S 
BRANCH  15  16
ATOM     16  C   UNL     1      -0.828   4.002   0.032  0.00  0.00    +0.173 C 
BRANCH  16  19
ATOM     17  C   UNL     1      -3.532   4.849   0.062  0.00  0.00    +0.132 C 
ATOM     18  N   UNL     1      -2.467   5.854   0.057  0.00  0.00    -0.300 N 
ATOM     19  C   UNL     1      -1.176   5.468   0.043  0.00  0.00    +0.226 C 
ATOM     20  O   UNL     1      -0.294   6.301   0.039  0.00  0.00    -0.275 OA
BRANCH  18  21
ATOM     21  C   UNL     1      -2.805   7.280   0.068  0.00  0.00    +0.142 C 
BRANCH  21  22
ATOM     22  C   UNL     1      -2.934   7.776  -1.349  0.00  0.00    -0.029 A 
ATOM     23  C   UNL     1      -1.830   8.285  -2.006  0.00  0.00    +0.007 A 
ATOM     24  C   UNL     1      -1.946   8.736  -3.308  0.00  0.00    +0.022 A 
ATOM     25  C   UNL     1      -3.170   8.688  -3.950  0.00  0.00    +0.059 A 
ATOM     26  C   UNL     1      -4.278   8.183  -3.290  0.00  0.00    +0.060 A 
ATOM     27  C   UNL     1      -4.159   7.727  -1.989  0.00  0.00    +0.026 A 
ATOM     28 CL   UNL     1      -5.815   8.121  -4.094  0.00  0.00    -0.082 Cl
ATOM     29 CL   UNL     1      -3.318   9.259  -5.582  0.00  0.00    -0.082 Cl
ENDBRANCH  21  22
ENDBRANCH  18  21
ENDBRANCH  16  19
ENDBRANCH  15  16
ENDBRANCH   1  15
BRANCH  11  30
ATOM     30  C   UNL     1       3.522   2.336  -0.019  0.00  0.00    +0.155 C 
BRANCH  30  31
ATOM     31  C   UNL     1       3.922   2.642  -1.464  0.00  0.00    +0.177 C 
BRANCH  31  32
ATOM     32  O   UNL     1       2.897   3.416  -2.089  0.00  0.00    -0.393 OA
ATOM     33  H   UNL     1       3.084   3.647  -3.009  0.00  0.00    +0.209 HD
ENDBRANCH  31  32
ENDBRANCH  30  31
ENDBRANCH  11  30
TORSDOF 9
