REMARK  Name = ZINC15958991
REMARK  13 active torsions:
REMARK  status: ('A' for Active; 'I' for Inactive)
REMARK    1  A    between atoms: C_1  and  C_2
REMARK    2  A    between atoms: C_13  and  C_14
REMARK    3  A    between atoms: C_13  and  O_15
REMARK    4  A    between atoms: N_21  and  O_22
REMARK    5  A    between atoms: O_22  and  C_23
REMARK    6  A    between atoms: C_23  and  C_24
REMARK    7  A    between atoms: N_26  and  C_27
REMARK    8  A    between atoms: C_27  and  C_29
REMARK    9  A    between atoms: C_27  and  C_36
REMARK   10  A    between atoms: C_29  and  C_30
REMARK   11  A    between atoms: C_36  and  O_38
REMARK   12  A    between atoms: O_38  and  C_39
REMARK   13  A    between atoms: C_42  and  C_43
REMARK                            x       y       z     vdW  Elec       q    Type
REMARK                         _______ _______ _______ _____ _____    ______ ____
ROOT
ATOM      1  C   UNL     1       3.768   3.198  -0.391  0.00  0.00    +0.014 C 
ATOM      2  C   UNL     1       2.534   3.992   0.040  0.00  0.00    -0.000 C 
ATOM      3  C   UNL     1       2.425   4.024   1.555  0.00  0.00    +0.010 C 
ATOM      4  C   UNL     1       1.736   2.729   2.010  0.00  0.00    +0.005 C 
ATOM      5  C   UNL     1       2.055   1.594   1.034  0.00  0.00    +0.006 C 
ATOM      6  C   UNL     1       1.373   1.826  -0.305  0.00  0.00    -0.003 C 
ATOM      7  C   UNL     1       1.252   3.327  -0.525  0.00  0.00    +0.001 C 
ATOM      8  C   UNL     1       1.285   3.737  -2.007  0.00  0.00    +0.007 C 
ATOM      9  C   UNL     1       1.772   5.208  -1.959  0.00  0.00    +0.035 C 
ATOM     10  C   UNL     1       2.548   5.372  -0.633  0.00  0.00    +0.069 C 
ATOM     11  C   UNL     1       3.985   5.817  -0.913  0.00  0.00    +0.042 C 
ATOM     12  C   UNL     1      -0.015   1.185  -0.324  0.00  0.00    +0.008 C 
ATOM     13  C   UNL     1       0.178  -0.336  -0.321  0.00  0.00    +0.032 C 
ATOM     14  C   UNL     1       0.970  -0.716   0.901  0.00  0.00    -0.058 C 
ATOM     15  C   UNL     1       0.906  -1.991   1.327  0.00  0.00    +0.031 C 
ATOM     16  C   UNL     1       1.725  -2.304   2.535  0.00  0.00    +0.102 C 
ATOM     17  N   UNL     1       1.304  -3.095   3.485  0.00  0.00    -0.085 NA
ATOM     18  C   UNL     1       3.063  -1.642   2.575  0.00  0.00    +0.027 C 
ATOM     19  C   UNL     1       3.095  -0.378   2.127  0.00  0.00    -0.014 C 
ATOM     20  C   UNL     1       1.805   0.254   1.664  0.00  0.00    +0.011 C 
ATOM     21  C   UNL     1       1.022   0.558   2.942  0.00  0.00    +0.020 C 
ENDROOT
BRANCH  10  22
ATOM     22  O   UNL     1       1.893   6.323   0.208  0.00  0.00    -0.388 OA
ATOM     23  H   UNL     1       1.836   7.210  -0.172  0.00  0.00    +0.210 HD
ENDBRANCH  10  22
BRANCH  17  24
ATOM     24  O   UNL     1       0.025  -3.694   3.391  0.00  0.00    -0.384 OA
BRANCH  24  25
ATOM     25  C   UNL     1      -0.305  -4.535   4.499  0.00  0.00    +0.358 C 
BRANCH  25  26
ATOM     26  C   UNL     1      -1.681  -5.117   4.295  0.00  0.00    +0.254 C 
ATOM     27  O   UNL     1      -2.316  -4.838   3.300  0.00  0.00    -0.272 OA
ATOM     28  N   UNL     1      -2.205  -5.946   5.220  0.00  0.00    -0.299 N 
ATOM     29  H   UNL     1      -1.698  -6.168   6.016  0.00  0.00    +0.150 HD
BRANCH  28  30
ATOM     30  C   UNL     1      -3.542  -6.511   5.022  0.00  0.00    +0.188 C 
BRANCH  30  31
ATOM     31  C   UNL     1      -4.578  -5.536   5.519  0.00  0.00    +0.328 C 
ATOM     32  O   UNL     1      -4.235  -4.478   5.989  0.00  0.00    -0.249 OA
BRANCH  31  33
ATOM     33  O   UNL     1      -5.883  -5.843   5.438  0.00  0.00    -0.467 OA
ATOM     34  C   UNL     1      -6.824  -4.857   5.936  0.00  0.00    +0.280 C 
ENDBRANCH  31  33
ENDBRANCH  30  31
BRANCH  30  35
ATOM     35  C   UNL     1      -3.662  -7.823   5.800  0.00  0.00    +0.088 C 
BRANCH  35  36
ATOM     36  C   UNL     1      -2.710  -8.838   5.222  0.00  0.00    +0.038 A 
ATOM     37  C   UNL     1      -1.407  -8.983   5.530  0.00  0.00    +0.133 A 
ATOM     38  N   UNL     1      -0.919  -9.997   4.800  0.00  0.00    -0.244 NA
ATOM     39  C   UNL     1      -1.870 -10.486   4.052  0.00  0.00    +0.196 A 
ATOM     40  N   UNL     1      -3.006  -9.794   4.288  0.00  0.00    -0.348 N 
ATOM     41  H   UNL     1      -3.896  -9.952   3.861  0.00  0.00    +0.166 HD
ENDBRANCH  35  36
ENDBRANCH  30  35
ENDBRANCH  28  30
ENDBRANCH  25  26
ENDBRANCH  24  25
ENDBRANCH  17  24
TORSDOF 9
