REMARK  Name = ZINC65198324
REMARK  7 active torsions:
REMARK  status: ('A' for Active; 'I' for Inactive)
REMARK    1  A    between atoms: C_1  and  C_2
REMARK    2  A    between atoms: C_5  and  N_8
REMARK    3  A    between atoms: C_11  and  C_14
REMARK    4  A    between atoms: N_16  and  N_17
REMARK    5  A    between atoms: N_20  and  C_21
REMARK    6  A    between atoms: C_21  and  C_22
REMARK    7  A    between atoms: C_22  and  C_23
REMARK                            x       y       z     vdW  Elec       q    Type
REMARK                         _______ _______ _______ _____ _____    ______ ____
ROOT
ATOM      1  C   UNL     1      -1.047  -7.152  -1.521  0.00  0.00    +0.241 C 
ATOM      2  O   UNL     1      -1.963  -7.673  -0.920  0.00  0.00    -0.273 OA
ATOM      3  N   UNL     1      -0.978  -7.253  -2.863  0.00  0.00    -0.233 N 
ATOM      4  H   UNL     1      -0.246  -6.836  -3.344  0.00  0.00    +0.173 HD
ENDROOT
BRANCH   1   8
ATOM      5  N   UNL     1       0.059  -4.170  -0.021  0.00  0.00    -0.271 N 
ATOM      6  C   UNL     1       0.176  -5.003   1.182  0.00  0.00    +0.115 C 
ATOM      7  C   UNL     1      -0.280  -6.415   0.751  0.00  0.00    +0.041 C 
ATOM      8  C   UNL     1       0.013  -6.391  -0.767  0.00  0.00    +0.164 C 
ATOM      9  C   UNL     1      -0.034  -4.923  -1.130  0.00  0.00    +0.232 C 
ATOM     10  O   UNL     1      -0.139  -4.490  -2.258  0.00  0.00    -0.274 OA
BRANCH   5  15
ATOM     11  C   UNL     1      -0.018   1.503   0.010  0.00  0.00    +0.044 C 
ATOM     12  C   UNL     1       0.002  -0.004   0.002  0.00  0.00    -0.050 A 
ATOM     13  C   UNL     1       0.020  -0.687  -1.200  0.00  0.00    +0.005 A 
ATOM     14  C   UNL     1       0.039  -2.068  -1.211  0.00  0.00    +0.024 A 
ATOM     15  C   UNL     1       0.040  -2.771  -0.013  0.00  0.00    +0.036 A 
ATOM     16  C   UNL     1       0.022  -2.082   1.192  0.00  0.00    +0.024 A 
ATOM     17  C   UNL     1       0.009  -0.701   1.197  0.00  0.00    +0.005 A 
ENDBRANCH   5  15
ENDBRANCH   1   8
BRANCH   3  18
ATOM     18  N   UNL     1      -1.964  -7.960  -3.564  0.00  0.00    -0.218 N 
ATOM     19  C   UNL     1      -1.894  -8.061  -4.907  0.00  0.00    +0.316 C 
ATOM     20  O   UNL     1      -2.750  -8.675  -5.515  0.00  0.00    -0.251 OA
ATOM     21  N   UNL     1      -0.877  -7.482  -5.574  0.00  0.00    -0.298 N 
ATOM     22  H   UNL     1      -2.696  -8.377  -3.084  0.00  0.00    +0.174 HD
ATOM     23  H   UNL     1      -0.195  -6.992  -5.089  0.00  0.00    +0.150 HD
BRANCH  21  24
ATOM     24  C   UNL     1      -0.802  -7.592  -7.033  0.00  0.00    +0.111 C 
BRANCH  24  25
ATOM     25  C   UNL     1       0.439  -6.852  -7.537  0.00  0.00    +0.061 C 
BRANCH  25  26
ATOM     26  C   UNL     1       0.516  -6.965  -9.038  0.00  0.00    -0.009 A 
ATOM     27  C   UNL     1      -0.001  -6.143  -9.984  0.00  0.00    +0.011 A 
ATOM     28  C   UNL     1       0.198  -6.447 -11.317  0.00  0.00    +0.008 A 
ATOM     29  C   UNL     1       0.904  -7.559 -11.640  0.00  0.00    +0.045 A 
ATOM     30  S   UNL     1       1.319  -8.212 -10.032  0.00  0.00    -0.102 S 
ENDBRANCH  25  26
ENDBRANCH  24  25
ENDBRANCH  21  24
ENDBRANCH   3  18
TORSDOF 6
