REMARK  Name = ZINC12507161
REMARK  9 active torsions:
REMARK  status: ('A' for Active; 'I' for Inactive)
REMARK    1  A    between atoms: C_1  and  C_2
REMARK    2  A    between atoms: C_2  and  C_3
REMARK    3  A    between atoms: C_3  and  C_31
REMARK    4  A    between atoms: N_6  and  N_10
REMARK    5  A    between atoms: C_11  and  C_13
REMARK    6  A    between atoms: C_13  and  S_14
REMARK    7  A    between atoms: S_14  and  C_15
REMARK    8  A    between atoms: C_18  and  C_26
REMARK    9  A    between atoms: C_19  and  C_21
REMARK                            x       y       z     vdW  Elec       q    Type
REMARK                         _______ _______ _______ _____ _____    ______ ____
ROOT
ATOM      1  S   UNL     1      -4.694   3.583  -1.127  0.00  0.00    -0.078 S 
ENDROOT
BRANCH   1   2
ATOM      2  C   UNL     1      -3.115   3.244  -0.423  0.00  0.00    +0.168 A 
ATOM      3  N   UNL     1      -2.308   2.198  -0.762  0.00  0.00    -0.332 N 
ATOM      4  H   UNL     1      -2.503   1.496  -1.448  0.00  0.00    +0.168 HD
ATOM      5  C   UNL     1      -1.169   2.290   0.020  0.00  0.00    +0.082 A 
ATOM      6  C   UNL     1      -1.332   3.417   0.811  0.00  0.00    +0.105 A 
ATOM      7  N   UNL     1      -2.528   3.961   0.505  0.00  0.00    -0.221 NA
BRANCH   6   8
ATOM      8  C   UNL     1      -0.372   3.928   1.807  0.00  0.00    +0.040 A 
ATOM      9  C   UNL     1      -0.086   5.226   2.145  0.00  0.00    +0.018 A 
ATOM     10  C   UNL     1       0.861   5.462   3.118  0.00  0.00    +0.008 A 
ATOM     11  C   UNL     1       1.480   4.409   3.710  0.00  0.00    +0.046 A 
ATOM     12  S   UNL     1       0.716   3.018   2.892  0.00  0.00    -0.095 S 
ENDBRANCH   6   8
BRANCH   5  13
ATOM     13  C   UNL     1      -0.017   1.380   0.010  0.00  0.00    +0.038 A 
ATOM     14  C   UNL     1       0.002  -0.004   0.002  0.00  0.00    +0.017 A 
ATOM     15  C   UNL     1       1.223  -0.641  -0.013  0.00  0.00    +0.008 A 
ATOM     16  C   UNL     1       2.360   0.101  -0.020  0.00  0.00    +0.046 A 
ATOM     17  S   UNL     1       1.726   1.769  -0.005  0.00  0.00    -0.095 S 
ENDBRANCH   5  13
ENDBRANCH   1   2
BRANCH   1  18
ATOM     18  C   UNL     1      -5.131   5.081  -0.211  0.00  0.00    +0.174 C 
BRANCH  18  20
ATOM     19  N   UNL     1      -7.019   6.677  -0.112  0.00  0.00    -0.223 N 
ATOM     20  C   UNL     1      -6.485   5.567  -0.660  0.00  0.00    +0.240 C 
ATOM     21  O   UNL     1      -7.094   4.961  -1.516  0.00  0.00    -0.273 OA
ATOM     22  H   UNL     1      -6.532   7.162   0.573  0.00  0.00    +0.174 HD
BRANCH  19  26
ATOM     23  C   UNL     1      -9.972   8.305  -1.510  0.00  0.00    +0.111 C 
ATOM     24  C   UNL     1      -8.471   8.198  -1.326  0.00  0.00    +0.263 C 
ATOM     25  O   UNL     1      -7.622   8.924  -1.798  0.00  0.00    -0.271 OA
ATOM     26  N   UNL     1      -8.277   7.129  -0.529  0.00  0.00    -0.137 N 
ATOM     27  C   UNL     1      -9.435   6.555  -0.182  0.00  0.00    +0.326 C 
ATOM     28  O   UNL     1      -9.516   5.577   0.535  0.00  0.00    -0.251 OA
ATOM     29  N   UNL     1     -10.499   7.182  -0.715  0.00  0.00    -0.284 N 
ATOM     30  C   UNL     1     -10.351   8.146  -2.984  0.00  0.00    +0.041 C 
ATOM     31  H   UNL     1     -11.432   6.942  -0.599  0.00  0.00    +0.151 HD
BRANCH  23  33
ATOM     32  C   UNL     1     -12.017   9.626  -0.947  0.00  0.00    +0.006 C 
ATOM     33  C   UNL     1     -10.487   9.639  -0.965  0.00  0.00    +0.032 C 
ENDBRANCH  23  33
ENDBRANCH  19  26
ENDBRANCH  18  20
ENDBRANCH   1  18
TORSDOF 7
