REMARK  Name = ZINC13411167
REMARK  10 active torsions:
REMARK  status: ('A' for Active; 'I' for Inactive)
REMARK    1  A    between atoms: C_1  and  C_2
REMARK    2  A    between atoms: C_2  and  C_3
REMARK    3  A    between atoms: C_2  and  O_4
REMARK    4  A    between atoms: O_4  and  C_5
REMARK    5  A    between atoms: C_8  and  S_25
REMARK    6  A    between atoms: C_10  and  N_11
REMARK    7  A    between atoms: C_12  and  C_14
REMARK    8  A    between atoms: C_16  and  C_23
REMARK    9  A    between atoms: C_18  and  N_20
REMARK   10  A    between atoms: S_25  and  N_28
REMARK                            x       y       z     vdW  Elec       q    Type
REMARK                         _______ _______ _______ _____ _____    ______ ____
ROOT
ATOM      1  C   UNL     1       0.172   1.460   0.095  0.00  0.00    +0.142 A 
ATOM      2  C   UNL     1       1.375   2.148   0.099  0.00  0.00    +0.049 A 
ATOM      3  C   UNL     1       1.381   3.528   0.008  0.00  0.00    +0.032 A 
ATOM      4  C   UNL     1       0.190   4.224  -0.087  0.00  0.00    +0.107 A 
ATOM      5  C   UNL     1      -1.013   3.545  -0.091  0.00  0.00    +0.055 A 
ATOM      6  C   UNL     1      -1.028   2.160  -0.005  0.00  0.00    +0.078 A 
ENDROOT
BRANCH   6   7
ATOM      7  N   UNL     1      -2.245   1.468  -0.014  0.00  0.00    -0.279 N 
ATOM      8  C   UNL     1      -3.374   2.086   0.389  0.00  0.00    +0.248 C 
ATOM      9  O   UNL     1      -3.320   3.205   0.858  0.00  0.00    -0.270 OA
ATOM     10  H   UNL     1      -2.277   0.545  -0.311  0.00  0.00    +0.155 HD
BRANCH   8  11
ATOM     11  C   UNL     1      -4.678   1.401   0.259  0.00  0.00    +0.040 A 
ATOM     12  C   UNL     1      -5.845   2.037   0.675  0.00  0.00    +0.028 A 
ATOM     13  C   UNL     1      -7.070   1.384   0.550  0.00  0.00    +0.066 A 
ATOM     14  C   UNL     1      -7.119   0.097   0.009  0.00  0.00    +0.048 A 
ATOM     15  C   UNL     1      -5.959  -0.527  -0.402  0.00  0.00    +0.128 A 
ATOM     16  C   UNL     1      -4.742   0.116  -0.285  0.00  0.00    +0.045 A 
BRANCH  15  17
ATOM     17  N   UNL     1      -6.019  -1.891  -0.976  0.00  0.00    +0.056 N 
ATOM     18  O   UNL     1      -7.091  -2.459  -1.085  0.00  0.00    -0.126 OA
ATOM     19  O   UNL     1      -4.997  -2.444  -1.339  0.00  0.00    -0.126 OA
ENDBRANCH  15  17
BRANCH  13  20
ATOM     20  C   UNL     1      -8.313   2.052   0.988  0.00  0.00    +0.387 C 
ATOM     21  O   UNL     1      -8.268   3.171   1.458  0.00  0.00    -0.241 OA
ATOM     22  O   UNL     1      -9.496   1.419   0.866  0.00  0.00    -0.241 OA
ENDBRANCH  13  20
ENDBRANCH   8  11
ENDBRANCH   6   7
BRANCH   4  23
ATOM     23  S   UNL     1       0.207   5.982  -0.202  0.00  0.00    +0.061 S 
ATOM     24  O   UNL     1      -1.056   6.432   0.269  0.00  0.00    -0.153 OA
ATOM     25  O   UNL     1       1.432   6.415   0.372  0.00  0.00    -0.153 OA
BRANCH  23  26
ATOM     26  N   UNL     1       0.276   6.367  -1.811  0.00  0.00    -0.172 NA
ATOM     27  C   UNL     1       1.568   6.541  -2.494  0.00  0.00    +0.137 C 
ATOM     28  C   UNL     1       1.553   5.686  -3.771  0.00  0.00    +0.177 C 
ATOM     29  O   UNL     1       0.386   6.001  -4.533  0.00  0.00    -0.377 OA
ATOM     30  C   UNL     1      -0.845   5.701  -3.870  0.00  0.00    +0.177 C 
ATOM     31  C   UNL     1      -0.953   6.552  -2.599  0.00  0.00    +0.137 C 
ENDBRANCH  23  26
ENDBRANCH   4  23
BRANCH   1  32
ATOM     32  O   UNL     1       0.165   0.103   0.184  0.00  0.00    -0.488 OA
BRANCH  32  34
ATOM     33  C   UNL     1       1.915  -0.797   1.587  0.00  0.00    +0.051 C 
ATOM     34  C   UNL     1       1.432  -0.557   0.155  0.00  0.00    +0.167 C 
ATOM     35  C   UNL     1       1.292  -1.898  -0.568  0.00  0.00    +0.051 C 
ENDBRANCH  32  34
ENDBRANCH   1  32
TORSDOF 8
