REMARK  Name = ZINC39665378
REMARK  9 active torsions:
REMARK  status: ('A' for Active; 'I' for Inactive)
REMARK    1  A    between atoms: C_1  and  C_2
REMARK    2  A    between atoms: C_5  and  C_9
REMARK    3  A    between atoms: C_6  and  C_8
REMARK    4  A    between atoms: C_13  and  C_22
REMARK    5  A    between atoms: N_24  and  C_25
REMARK    6  A    between atoms: C_25  and  C_26
REMARK    7  A    between atoms: C_26  and  C_28
REMARK    8  A    between atoms: C_26  and  O_29
REMARK    9  A    between atoms: O_29  and  C_30
REMARK                            x       y       z     vdW  Elec       q    Type
REMARK                         _______ _______ _______ _____ _____    ______ ____
ROOT
ATOM      1  C   UNL     1       0.234  -4.309   0.365  0.00  0.00    +0.247 C 
ATOM      2  O   UNL     1       0.544  -4.776   1.443  0.00  0.00    -0.270 OA
ATOM      3  N   UNL     1       0.026  -5.125  -0.688  0.00  0.00    -0.296 N 
ATOM      4  C   UNL     1      -0.250  -4.742  -2.093  0.00  0.00    +0.121 C 
ATOM      5  C   UNL     1       0.548  -5.758  -2.939  0.00  0.00    +0.100 C 
ATOM      6  C   UNL     1       0.723  -6.981  -2.022  0.00  0.00    -0.004 C 
ATOM      7  C   UNL     1       0.030  -6.607  -0.704  0.00  0.00    +0.115 C 
ATOM      8  C   UNL     1       0.058  -8.206  -2.642  0.00  0.00    -0.010 C 
ATOM      9  C   UNL     1       0.295  -9.421  -1.740  0.00  0.00    -0.082 C 
ATOM     10  N   UNL     1       1.738  -9.646  -1.589  0.00  0.00    +0.379 N 
ATOM     11  C   UNL     1       2.355  -8.502  -0.908  0.00  0.00    -0.082 C 
ATOM     12  C   UNL     1       2.205  -7.248  -1.775  0.00  0.00    -0.010 C 
ATOM     13  H   UNL     1       1.891 -10.482  -1.046  0.00  0.00    -0.086 HD
ATOM     14  H   UNL     1       2.156  -9.760  -2.501  0.00  0.00    -0.086 HD
ENDROOT
BRANCH   1  19
ATOM     15  C   UNL     1      -0.350   1.383  -0.247  0.00  0.00    +0.044 C 
ATOM     16  C   UNL     1      -0.198  -0.108  -0.087  0.00  0.00    -0.050 A 
ATOM     17  C   UNL     1       0.595  -0.818  -0.971  0.00  0.00    +0.004 A 
ATOM     18  C   UNL     1       0.740  -2.182  -0.830  0.00  0.00    +0.013 A 
ATOM     19  C   UNL     1       0.084  -2.847   0.208  0.00  0.00    +0.040 A 
ATOM     20  C   UNL     1      -0.714  -2.125   1.096  0.00  0.00    -0.038 A 
ATOM     21  C   UNL     1      -0.846  -0.759   0.947  0.00  0.00    +0.007 A 
ATOM     22  C   UNL     1      -1.426  -2.834   2.220  0.00  0.00    +0.044 C 
ENDBRANCH   1  19
BRANCH   5  23
ATOM     23  C   UNL     1      -0.225  -6.134  -4.176  0.00  0.00    +0.218 C 
ATOM     24  O   UNL     1      -1.437  -6.165  -4.147  0.00  0.00    -0.275 OA
ATOM     25  N   UNL     1       0.430  -6.436  -5.315  0.00  0.00    -0.312 N 
ATOM     26  H   UNL     1       1.399  -6.412  -5.338  0.00  0.00    +0.149 HD
BRANCH  25  27
ATOM     27  C   UNL     1      -0.323  -6.802  -6.518  0.00  0.00    +0.148 C 
BRANCH  27  28
ATOM     28  C   UNL     1       0.652  -7.095  -7.660  0.00  0.00    +0.187 C 
ATOM     29  C   UNL     1      -0.133  -7.476  -8.916  0.00  0.00    +0.053 C 
BRANCH  28  30
ATOM     30  O   UNL     1       1.439  -5.932  -7.925  0.00  0.00    -0.488 OA
BRANCH  30  31
ATOM     31  C   UNL     1       2.656  -6.127  -8.498  0.00  0.00    +0.121 A 
ATOM     32  C   UNL     1       3.523  -5.058  -8.670  0.00  0.00    +0.045 A 
ATOM     33  C   UNL     1       4.759  -5.259  -9.252  0.00  0.00    +0.004 A 
ATOM     34  C   UNL     1       5.133  -6.525  -9.664  0.00  0.00    +0.000 A 
ATOM     35  C   UNL     1       4.270  -7.592  -9.495  0.00  0.00    +0.004 A 
ATOM     36  C   UNL     1       3.035  -7.397  -8.907  0.00  0.00    +0.045 A 
ENDBRANCH  30  31
ENDBRANCH  28  30
ENDBRANCH  27  28
ENDBRANCH  25  27
ENDBRANCH   5  23
TORSDOF 6
