REMARK  Name = ZINC41411601
REMARK  7 active torsions:
REMARK  status: ('A' for Active; 'I' for Inactive)
REMARK    1  A    between atoms: C_4  and  O_7
REMARK    2  A    between atoms: O_7  and  C_8
REMARK    3  A    between atoms: C_13  and  N_14
REMARK    4  A    between atoms: C_15  and  C_17
REMARK    5  A    between atoms: N_19  and  C_20
REMARK    6  A    between atoms: C_20  and  C_21
REMARK    7  A    between atoms: C_26  and  N_27
REMARK                            x       y       z     vdW  Elec       q    Type
REMARK                         _______ _______ _______ _____ _____    ______ ____
ROOT
ATOM      1  N   UNL     1       6.031  -2.126   0.124  0.00  0.00    -0.275 N 
ATOM      2  C   UNL     1       7.184  -2.825   0.114  0.00  0.00    +0.303 C 
ATOM      3  O   UNL     1       7.160  -4.036   0.199  0.00  0.00    -0.265 OA
ATOM      4  H   UNL     1       6.053  -1.156   0.140  0.00  0.00    +0.155 HD
ENDROOT
BRANCH   1  10
ATOM      5  C   UNL     1       3.667  -2.185   0.633  0.00  0.00    +0.150 A 
ATOM      6  C   UNL     1       2.453  -2.855   0.614  0.00  0.00    +0.048 A 
ATOM      7  C   UNL     1       2.376  -4.130   0.086  0.00  0.00    +0.004 A 
ATOM      8  C   UNL     1       3.506  -4.742  -0.425  0.00  0.00    +0.002 A 
ATOM      9  C   UNL     1       4.720  -4.081  -0.410  0.00  0.00    +0.027 A 
ATOM     10  C   UNL     1       4.805  -2.799   0.113  0.00  0.00    +0.077 A 
BRANCH   5  11
ATOM     11  O   UNL     1       3.745  -0.931   1.151  0.00  0.00    -0.454 OA
BRANCH  11  15
ATOM     12  C   UNL     1       0.375   0.641   2.937  0.00  0.00    +0.000 A 
ATOM     13  C   UNL     1       1.004  -0.456   3.497  0.00  0.00    +0.004 A 
ATOM     14  C   UNL     1       2.133  -0.984   2.901  0.00  0.00    +0.046 A 
ATOM     15  C   UNL     1       2.634  -0.413   1.739  0.00  0.00    +0.129 A 
ATOM     16  C   UNL     1       2.000   0.687   1.180  0.00  0.00    +0.046 A 
ATOM     17  C   UNL     1       0.872   1.212   1.780  0.00  0.00    +0.004 A 
ENDBRANCH  11  15
ENDBRANCH   5  11
ENDBRANCH   1  10
BRANCH   2  18
ATOM     18  C   UNL     1       8.489  -2.110  -0.004  0.00  0.00    +0.300 C 
ATOM     19  O   UNL     1       8.513  -0.900  -0.090  0.00  0.00    -0.265 OA
ATOM     20  N   UNL     1       9.642  -2.809  -0.014  0.00  0.00    -0.303 N 
ATOM     21  H   UNL     1       9.623  -3.777   0.054  0.00  0.00    +0.149 HD
BRANCH  20  22
ATOM     22  C   UNL     1      10.923  -2.108  -0.130  0.00  0.00    +0.142 C 
BRANCH  22  23
ATOM     23  C   UNL     1      12.047  -3.112  -0.117  0.00  0.00    -0.000 A 
ATOM     24  C   UNL     1      12.758  -3.339   1.046  0.00  0.00    +0.007 A 
ATOM     25  C   UNL     1      13.790  -4.259   1.057  0.00  0.00    +0.000 A 
ATOM     26  C   UNL     1      14.110  -4.952  -0.095  0.00  0.00    +0.002 A 
ATOM     27  C   UNL     1      13.399  -4.725  -1.258  0.00  0.00    +0.033 A 
ATOM     28  C   UNL     1      12.364  -3.808  -1.268  0.00  0.00    +0.131 A 
BRANCH  28  29
ATOM     29  N   UNL     1      11.600  -3.569  -2.513  0.00  0.00    +0.057 N 
ATOM     30  O   UNL     1      11.877  -4.178  -3.520  0.00  0.00    -0.126 OA
ATOM     31  O   UNL     1      10.697  -2.764  -2.522  0.00  0.00    -0.126 OA
ENDBRANCH  28  29
ENDBRANCH  22  23
ENDBRANCH  20  22
ENDBRANCH   2  18
TORSDOF 7
