REMARK  Name = ZINC09638951
REMARK  6 active torsions:
REMARK  status: ('A' for Active; 'I' for Inactive)
REMARK    1  A    between atoms: C_1  and  C_2
REMARK    2  A    between atoms: C_2  and  O_3
REMARK    3  A    between atoms: O_3  and  C_4
REMARK    4  A    between atoms: C_12  and  N_17
REMARK    5  A    between atoms: C_13  and  C_14
REMARK    6  A    between atoms: C_18  and  C_20
REMARK                            x       y       z     vdW  Elec       q    Type
REMARK                         _______ _______ _______ _____ _____    ______ ____
ROOT
ATOM      1  C   UNL     1      -9.370   8.749   1.215  0.00  0.00    +0.403 C 
ATOM      2  O   UNL     1      -9.625   9.921   1.407  0.00  0.00    -0.226 OA
ATOM      3  N   UNL     1      -8.374   8.405   0.374  0.00  0.00    -0.262 N 
ATOM      4  C   UNL     1      -7.580   9.426  -0.326  0.00  0.00    +0.116 C 
ATOM      5  C   UNL     1      -6.126   9.355   0.144  0.00  0.00    +0.056 C 
ATOM      6  C   UNL     1      -5.660   7.904   0.117  0.00  0.00    -0.020 A 
ATOM      7  C   UNL     1      -6.545   6.883   0.112  0.00  0.00    +0.013 A 
ATOM      8  S   UNL     1      -5.551   5.419   0.084  0.00  0.00    -0.076 S 
ATOM      9  C   UNL     1      -3.979   6.149   0.085  0.00  0.00    +0.085 A 
ATOM     10  C   UNL     1      -4.262   7.508   0.100  0.00  0.00    +0.068 A 
ATOM     11  C   UNL     1      -8.040   6.989   0.122  0.00  0.00    +0.153 C 
ENDROOT
BRANCH  10  12
ATOM     12  C   UNL     1      -3.189   8.507   0.097  0.00  0.00    +0.244 C 
ATOM     13  O   UNL     1      -2.754   8.930  -0.958  0.00  0.00    -0.270 OA
ATOM     14  N   UNL     1      -2.684   8.957   1.263  0.00  0.00    -0.325 N 
ATOM     15  H   UNL     1      -3.031   8.619   2.104  0.00  0.00    +0.145 HD
ATOM     16  H   UNL     1      -1.974   9.617   1.262  0.00  0.00    +0.145 HD
ENDBRANCH  10  12
BRANCH   9  17
ATOM     17  N   UNL     1      -2.741   5.527   0.069  0.00  0.00    -0.275 N 
ATOM     18  C   UNL     1      -2.663   4.182   0.056  0.00  0.00    +0.249 C 
ATOM     19  O   UNL     1      -3.679   3.514   0.059  0.00  0.00    -0.270 OA
ATOM     20  H   UNL     1      -1.931   6.060   0.067  0.00  0.00    +0.156 HD
BRANCH  18  21
ATOM     21  C   UNL     1      -1.343   3.518   0.039  0.00  0.00    +0.037 A 
ATOM     22  C   UNL     1      -0.172   4.280   0.036  0.00  0.00    +0.013 A 
ATOM     23  C   UNL     1       1.050   3.648   0.018  0.00  0.00    +0.004 A 
ATOM     24  C   UNL     1       1.133   2.260   0.003  0.00  0.00    -0.044 A 
ATOM     25  C   UNL     1      -0.018   1.502   0.010  0.00  0.00    -0.043 A 
ATOM     26  C   UNL     1      -1.255   2.128   0.031  0.00  0.00    +0.017 A 
ATOM     27  C   UNL     1       0.002  -0.004   0.002  0.00  0.00    +0.035 C 
ATOM     28  C   UNL     1       1.368  -0.520  -0.446  0.00  0.00    +0.005 C 
ATOM     29  C   UNL     1       2.446   0.175   0.393  0.00  0.00    +0.005 C 
ATOM     30  C   UNL     1       2.508   1.643  -0.023  0.00  0.00    +0.035 C 
ENDBRANCH  18  21
ENDBRANCH   9  17
BRANCH   1  31
ATOM     31  O   UNL     1     -10.081   7.794   1.844  0.00  0.00    -0.451 OA
BRANCH  31  33
ATOM     32  C   UNL     1     -11.829   7.020   3.352  0.00  0.00    +0.048 C 
ATOM     33  C   UNL     1     -11.137   8.237   2.735  0.00  0.00    +0.230 C 
ENDBRANCH  31  33
ENDBRANCH   1  31
TORSDOF 5
