REMARK  Name = ZINC63097103
REMARK  5 active torsions:
REMARK  status: ('A' for Active; 'I' for Inactive)
REMARK    1  A    between atoms: C_1  and  C_2
REMARK    2  A    between atoms: C_5  and  S_8
REMARK    3  A    between atoms: S_8  and  N_11
REMARK    4  A    between atoms: N_11  and  N_12
REMARK    5  A    between atoms: C_13  and  C_24
REMARK                            x       y       z     vdW  Elec       q    Type
REMARK                         _______ _______ _______ _____ _____    ______ ____
ROOT
ATOM      1  N   UNL     1       2.500  -4.622   1.014  0.00  0.00    -0.189 N 
ATOM      2  C   UNL     1       3.240  -3.363   0.920  0.00  0.00    +0.222 C 
ATOM      3  N   UNL     1       3.446  -2.794   2.258  0.00  0.00    -0.321 N 
ATOM      4  C   UNL     1       3.849  -3.639   3.285  0.00  0.00    +0.041 A 
ATOM      5  C   UNL     1       4.621  -3.191   4.343  0.00  0.00    +0.024 A 
ATOM      6  C   UNL     1       4.997  -4.075   5.337  0.00  0.00    +0.002 A 
ATOM      7  C   UNL     1       4.609  -5.404   5.282  0.00  0.00    +0.001 A 
ATOM      8  C   UNL     1       3.838  -5.867   4.235  0.00  0.00    +0.015 A 
ATOM      9  C   UNL     1       3.451  -4.987   3.228  0.00  0.00    +0.059 A 
ATOM     10  C   UNL     1       2.617  -5.423   2.093  0.00  0.00    +0.265 C 
ATOM     11  O   UNL     1       2.043  -6.494   2.129  0.00  0.00    -0.268 OA
ATOM     12  H   UNL     1       3.305  -1.848   2.421  0.00  0.00    +0.148 HD
ENDROOT
BRANCH   2  13
ATOM     13  C   UNL     1       4.600  -3.623   0.269  0.00  0.00    +0.215 C 
ATOM     14  N   UNL     1       5.399  -4.522   1.111  0.00  0.00    -0.361 N 
ATOM     15  C   UNL     1       6.478  -3.879   1.454  0.00  0.00    +0.060 A 
ATOM     16  C   UNL     1       7.640  -4.245   2.276  0.00  0.00    +0.027 A 
ATOM     17  C   UNL     1       8.631  -3.350   2.462  0.00  0.00    +0.002 A 
ATOM     18  C   UNL     1       8.606  -2.062   1.898  0.00  0.00    +0.002 A 
ATOM     19  C   UNL     1       7.588  -1.626   1.129  0.00  0.00    +0.027 A 
ATOM     20  C   UNL     1       6.451  -2.516   0.857  0.00  0.00    +0.060 A 
ATOM     21  N   UNL     1       5.357  -2.369   0.167  0.00  0.00    -0.361 N 
ATOM     22  H   UNL     1       5.166  -5.428   1.365  0.00  0.00    +0.162 HD
ATOM     23  H   UNL     1       5.091  -1.576  -0.325  0.00  0.00    +0.162 HD
ENDBRANCH   2  13
BRANCH   1  24
ATOM     24  N   UNL     1       1.651  -4.999  -0.034  0.00  0.00    -0.103 NA
ATOM     25  H   UNL     1       1.993  -5.536  -0.767  0.00  0.00    +0.172 HD
BRANCH  24  26
ATOM     26  S   UNL     1       0.063  -4.530  -0.023  0.00  0.00    +0.074 S 
ATOM     27  O   UNL     1      -0.476  -4.950   1.223  0.00  0.00    -0.152 OA
ATOM     28  O   UNL     1      -0.490  -4.937  -1.267  0.00  0.00    -0.152 OA
BRANCH  26  33
ATOM     29  C   UNL     1      -0.018   1.503   0.010  0.00  0.00    +0.044 C 
ATOM     30  C   UNL     1       0.002  -0.004   0.002  0.00  0.00    -0.050 A 
ATOM     31  C   UNL     1       0.006  -0.689  -1.199  0.00  0.00    +0.005 A 
ATOM     32  C   UNL     1       0.025  -2.071  -1.206  0.00  0.00    +0.029 A 
ATOM     33  C   UNL     1       0.040  -2.768  -0.013  0.00  0.00    +0.107 A 
ATOM     34  C   UNL     1       0.037  -2.084   1.188  0.00  0.00    +0.029 A 
ATOM     35  C   UNL     1       0.023  -0.702   1.195  0.00  0.00    +0.005 A 
ENDBRANCH  26  33
ENDBRANCH  24  26
ENDBRANCH   1  24
TORSDOF 4
