REMARK  Name = ZINC36530308
REMARK  11 active torsions:
REMARK  status: ('A' for Active; 'I' for Inactive)
REMARK    1  A    between atoms: C_1  and  C_2
REMARK    2  A    between atoms: C_2  and  C_3
REMARK    3  A    between atoms: C_3  and  C_4
REMARK    4  A    between atoms: C_4  and  N_5
REMARK    5  A    between atoms: C_6  and  C_8
REMARK    6  A    between atoms: C_8  and  C_10
REMARK    7  A    between atoms: C_8  and  N_17
REMARK    8  A    between atoms: C_13  and  C_16
REMARK    9  A    between atoms: N_17  and  C_18
REMARK   10  A    between atoms: C_19  and  C_21
REMARK   11  A    between atoms: C_23  and  N_28
REMARK                            x       y       z     vdW  Elec       q    Type
REMARK                         _______ _______ _______ _____ _____    ______ ____
ROOT
ATOM      1  C   UNL     1       2.364  -4.517   3.484  0.00  0.00    +0.192 C 
ENDROOT
BRANCH   1   2
ATOM      2  C   UNL     1       1.242  -4.279   4.462  0.00  0.00    -0.018 A 
ATOM      3  C   UNL     1       1.484  -3.594   5.638  0.00  0.00    +0.006 A 
ATOM      4  C   UNL     1       0.456  -3.375   6.535  0.00  0.00    +0.004 A 
ATOM      5  C   UNL     1      -0.815  -3.840   6.255  0.00  0.00    -0.050 A 
ATOM      6  C   UNL     1      -1.058  -4.525   5.079  0.00  0.00    +0.004 A 
ATOM      7  C   UNL     1      -0.030  -4.740   4.180  0.00  0.00    +0.006 A 
ATOM      8  C   UNL     1      -1.937  -3.603   7.234  0.00  0.00    +0.044 C 
ENDBRANCH   1   2
BRANCH   1  10
ATOM      9  N   UNL     1       1.440  -2.982   1.778  0.00  0.00    -0.313 N 
ATOM     10  C   UNL     1       1.885  -4.217   2.087  0.00  0.00    +0.238 C 
ATOM     11  O   UNL     1       1.899  -5.085   1.241  0.00  0.00    -0.273 OA
ATOM     12  H   UNL     1       1.429  -2.287   2.454  0.00  0.00    +0.149 HD
BRANCH   9  13
ATOM     13  C   UNL     1       0.975  -2.690   0.420  0.00  0.00    +0.104 C 
BRANCH  13  14
ATOM     14  C   UNL     1       0.528  -1.229   0.337  0.00  0.00    +0.018 C 
BRANCH  14  16
ATOM     15  C   UNL     1      -0.405   0.537  -1.163  0.00  0.00    +0.004 C 
ATOM     16  C   UNL     1       0.042  -0.924  -1.081  0.00  0.00    -0.002 C 
ENDBRANCH  14  16
ENDBRANCH  13  14
ENDBRANCH   9  13
ENDBRANCH   1  10
BRANCH   1  17
ATOM     17  N   UNL     1       2.791  -5.916   3.563  0.00  0.00    -0.285 N 
ATOM     18  C   UNL     1       1.843  -6.990   3.258  0.00  0.00    +0.133 C 
ATOM     19  C   UNL     1       4.057  -6.215   3.916  0.00  0.00    +0.251 C 
ATOM     20  O   UNL     1       4.866  -5.324   4.088  0.00  0.00    -0.270 OA
BRANCH  19  21
ATOM     21  C   UNL     1       4.461  -7.623   4.093  0.00  0.00    +0.086 A 
ATOM     22  C   UNL     1       4.116  -8.579   3.134  0.00  0.00    +0.049 A 
ATOM     23  C   UNL     1       4.496  -9.892   3.305  0.00  0.00    +0.127 A 
ATOM     24  C   UNL     1       5.219 -10.270   4.424  0.00  0.00    +0.036 A 
ATOM     25  C   UNL     1       5.566  -9.336   5.380  0.00  0.00    +0.054 A 
ATOM     26  C   UNL     1       5.197  -8.009   5.221  0.00  0.00    +0.191 A 
ATOM     27  O   UNL     1       5.543  -7.089   6.156  0.00  0.00    -0.287 OA
BRANCH  23  28
ATOM     28  N   UNL     1       4.129 -10.903   2.288  0.00  0.00    +0.056 N 
ATOM     29  O   UNL     1       3.498 -10.576   1.310  0.00  0.00    -0.126 OA
ATOM     30  O   UNL     1       4.461 -12.057   2.435  0.00  0.00    -0.126 OA
ENDBRANCH  23  28
ENDBRANCH  19  21
ENDBRANCH   1  17
TORSDOF 8
