REMARK  Name = ZINC00754954
REMARK  9 active torsions:
REMARK  status: ('A' for Active; 'I' for Inactive)
REMARK    1  A    between atoms: C_1  and  C_2
REMARK    2  A    between atoms: C_2  and  C_3
REMARK    3  A    between atoms: C_3  and  C_5
REMARK    4  A    between atoms: C_3  and  N_6
REMARK    5  A    between atoms: C_7  and  C_9
REMARK    6  A    between atoms: C_9  and  C_11
REMARK    7  A    between atoms: C_9  and  N_21
REMARK    8  A    between atoms: C_11  and  C_12
REMARK    9  A    between atoms: C_15  and  N_18
REMARK                            x       y       z     vdW  Elec       q    Type
REMARK                         _______ _______ _______ _____ _____    ______ ____
ROOT
ATOM      1  C   UNL     1      -1.330   1.944   0.019  0.00  0.00    +0.175 C 
ENDROOT
BRANCH   1   2
ATOM      2  N   UNL     1      -2.430   0.977   0.019  0.00  0.00    -0.222 N 
ATOM      3  C   UNL     1      -2.628   0.049   0.973  0.00  0.00    +0.255 C 
ATOM      4  O   UNL     1      -1.934  -0.117   1.955  0.00  0.00    -0.270 OA
ATOM      5  C   UNL     1      -3.833  -0.733   0.626  0.00  0.00    +0.049 A 
ATOM      6  C   UNL     1      -4.506  -1.788   1.220  0.00  0.00    +0.014 A 
ATOM      7  C   UNL     1      -5.638  -2.311   0.614  0.00  0.00    +0.001 A 
ATOM      8  C   UNL     1      -6.100  -1.784  -0.578  0.00  0.00    +0.001 A 
ATOM      9  C   UNL     1      -5.438  -0.728  -1.184  0.00  0.00    +0.014 A 
ATOM     10  C   UNL     1      -4.305  -0.196  -0.589  0.00  0.00    +0.049 A 
ATOM     11  C   UNL     1      -3.373   0.897  -0.938  0.00  0.00    +0.255 C 
ATOM     12  O   UNL     1      -3.445   1.604  -1.922  0.00  0.00    -0.270 OA
ENDBRANCH   1   2
BRANCH   1  14
ATOM     13  N   UNL     1       1.143   1.898   0.001  0.00  0.00    -0.311 N 
ATOM     14  C   UNL     1      -0.014   1.209   0.009  0.00  0.00    +0.235 C 
ATOM     15  O   UNL     1       0.002  -0.004   0.002  0.00  0.00    -0.274 OA
ATOM     16  H   UNL     1       1.130   2.868   0.007  0.00  0.00    +0.149 HD
BRANCH  13  17
ATOM     17  C   UNL     1       2.422   1.183  -0.015  0.00  0.00    +0.070 C 
ATOM     18  C   UNL     1       2.792   0.832  -1.457  0.00  0.00    +0.028 C 
BRANCH  17  20
ATOM     19  C   UNL     1       3.205   2.320   2.068  0.00  0.00    +0.005 C 
ATOM     20  C   UNL     1       3.511   2.072   0.589  0.00  0.00    +0.018 C 
ENDBRANCH  17  20
ENDBRANCH  13  17
ENDBRANCH   1  14
BRANCH   1  21
ATOM     21  C   UNL     1      -1.417   2.816   1.273  0.00  0.00    +0.067 C 
BRANCH  21  22
ATOM     22  C   UNL     1      -2.675   3.644   1.224  0.00  0.00    -0.045 A 
ATOM     23  C   UNL     1      -2.655   4.897   0.641  0.00  0.00    +0.006 A 
ATOM     24  C   UNL     1      -3.810   5.655   0.592  0.00  0.00    +0.033 A 
ATOM     25  C   UNL     1      -4.983   5.163   1.132  0.00  0.00    +0.126 A 
ATOM     26  C   UNL     1      -5.002   3.911   1.719  0.00  0.00    +0.033 A 
ATOM     27  C   UNL     1      -3.848   3.152   1.765  0.00  0.00    +0.006 A 
BRANCH  25  28
ATOM     28  N   UNL     1      -6.219   5.976   1.082  0.00  0.00    +0.056 N 
ATOM     29  O   UNL     1      -7.253   5.542   1.558  0.00  0.00    -0.126 OA
ATOM     30  O   UNL     1      -6.202   7.078   0.565  0.00  0.00    -0.126 OA
ENDBRANCH  25  28
ENDBRANCH  21  22
ENDBRANCH   1  21
TORSDOF 7
