REMARK  Name = ZINC49946777
REMARK  5 active torsions:
REMARK  status: ('A' for Active; 'I' for Inactive)
REMARK    1  A    between atoms: C_5  and  C_7
REMARK    2  A    between atoms: C_7  and  C_8
REMARK    3  A    between atoms: C_10  and  C_18
REMARK    4  A    between atoms: C_11  and  O_17
REMARK    5  A    between atoms: C_12  and  N_14
REMARK                            x       y       z     vdW  Elec       q    Type
REMARK                         _______ _______ _______ _____ _____    ______ ____
ROOT
ATOM      1  C   UNL     1       1.373  -2.695   1.389  0.00  0.00    -0.040 A 
ATOM      2  C   UNL     1       2.628  -2.904   1.917  0.00  0.00    +0.018 A 
ATOM      3  C   UNL     1       2.764  -3.376   3.227  0.00  0.00    +0.058 A 
ATOM      4  C   UNL     1       1.615  -3.633   3.994  0.00  0.00    +0.157 A 
ATOM      5  C   UNL     1       0.361  -3.416   3.444  0.00  0.00    +0.168 A 
ATOM      6  C   UNL     1       0.243  -2.944   2.152  0.00  0.00    +0.040 A 
ENDROOT
BRANCH   5   7
ATOM      7  N   UNL     1      -0.854  -3.684   4.246  0.00  0.00    +0.060 N 
ATOM      8  O   UNL     1      -1.948  -3.495   3.768  0.00  0.00    -0.126 OA
ATOM      9  O   UNL     1      -0.752  -4.092   5.380  0.00  0.00    -0.126 OA
ENDBRANCH   5   7
BRANCH   4  10
ATOM     10  O   UNL     1       1.732  -4.091   5.265  0.00  0.00    -0.504 OA
ATOM     11  H   UNL     1       1.780  -3.393   5.932  0.00  0.00    +0.292 HD
ENDBRANCH   4  10
BRANCH   3  12
ATOM     12  C   UNL     1       4.098  -3.602   3.797  0.00  0.00    +0.262 C 
ATOM     13  O   UNL     1       4.211  -4.012   4.933  0.00  0.00    -0.296 OA
ENDBRANCH   3  12
BRANCH   1  14
ATOM     14  C   UNL     1       1.229  -2.186  -0.022  0.00  0.00    +0.071 C 
BRANCH  14  19
ATOM     15  C   UNL     1      -0.017   1.378   0.010  0.00  0.00    +0.000 A 
ATOM     16  C   UNL     1       1.171   2.086   0.002  0.00  0.00    +0.001 A 
ATOM     17  C   UNL     1       2.377   1.412  -0.013  0.00  0.00    +0.020 A 
ATOM     18  C   UNL     1       2.397   0.029  -0.021  0.00  0.00    +0.044 A 
ATOM     19  C   UNL     1       1.208  -0.679  -0.013  0.00  0.00    -0.025 A 
ATOM     20  C   UNL     1       0.002  -0.004   0.002  0.00  0.00    +0.005 A 
ATOM     21 CL   UNL     1       3.912  -0.818  -0.041  0.00  0.00    -0.083 Cl
ENDBRANCH  14  19
ENDBRANCH   1  14
TORSDOF 5
