REMARK  Name = ZINC18355310
REMARK  15 active torsions:
REMARK  status: ('A' for Active; 'I' for Inactive)
REMARK    1  A    between atoms: C_1  and  C_2
REMARK    2  A    between atoms: C_3  and  C_34
REMARK    3  A    between atoms: C_4  and  C_33
REMARK    4  A    between atoms: C_7  and  C_8
REMARK    5  A    between atoms: C_8  and  C_10
REMARK    6  A    between atoms: C_10  and  C_12
REMARK    7  A    between atoms: C_10  and  O_13
REMARK    8  A    between atoms: O_13  and  C_14
REMARK    9  A    between atoms: C_14  and  C_16
REMARK   10  A    between atoms: C_16  and  N_17
REMARK   11  A    between atoms: C_23  and  C_26
REMARK   12  A    between atoms: C_26  and  C_27
REMARK   13  A    between atoms: C_26  and  C_28
REMARK   14  A    between atoms: C_26  and  C_29
REMARK   15  A    between atoms: C_34  and  C_36
REMARK                            x       y       z     vdW  Elec       q    Type
REMARK                         _______ _______ _______ _____ _____    ______ ____
ROOT
ATOM      1  C   UNL     1      -5.856   3.153  -0.158  0.00  0.00    +0.326 C 
ATOM      2  O   UNL     1      -5.643   4.320  -0.386  0.00  0.00    -0.249 OA
ENDROOT
BRANCH   1   3
ATOM      3  O   UNL     1      -4.870   2.369   0.304  0.00  0.00    -0.452 OA
BRANCH   3   4
ATOM      4  C   UNL     1      -3.573   2.990   0.505  0.00  0.00    +0.245 C 
ATOM      5  C   UNL     1      -3.487   3.540   1.930  0.00  0.00    +0.061 C 
BRANCH   4   6
ATOM      6  C   UNL     1      -2.487   1.966   0.296  0.00  0.00    +0.219 C 
ATOM      7  O   UNL     1      -2.763   0.784   0.276  0.00  0.00    -0.287 OA
BRANCH   6  14
ATOM      8  C   UNL     1      -0.081   0.051  -0.151  0.00  0.00    +0.047 C 
ATOM      9  C   UNL     1      -0.061   1.556  -0.077  0.00  0.00    -0.012 A 
ATOM     10  C   UNL     1       1.071   2.392  -0.206  0.00  0.00    +0.041 A 
ATOM     11  C   UNL     1       0.630   3.700  -0.073  0.00  0.00    +0.024 A 
ATOM     12  N   UNL     1      -0.695   3.688   0.126  0.00  0.00    -0.355 N 
ATOM     13  H   UNL     1      -1.251   4.473   0.250  0.00  0.00    +0.166 HD
ATOM     14  C   UNL     1      -1.145   2.383   0.122  0.00  0.00    +0.090 A 
ATOM     15  C   UNL     1       1.497   4.931  -0.142  0.00  0.00    +0.064 C 
BRANCH  10  16
ATOM     16  C   UNL     1       2.453   1.957  -0.437  0.00  0.00    +0.162 C 
ATOM     17  O   UNL     1       3.172   1.694   0.504  0.00  0.00    -0.292 OA
ATOM     18  C   UNL     1       2.980   1.837  -1.844  0.00  0.00    +0.091 C 
ENDBRANCH  10  16
ENDBRANCH   6  14
ENDBRANCH   4   6
ENDBRANCH   3   4
ENDBRANCH   1   3
BRANCH   1  19
ATOM     19  C   UNL     1      -7.229   2.578  -0.392  0.00  0.00    +0.238 C 
BRANCH  19  20
ATOM     20  N   UNL     1      -8.120   3.628  -0.892  0.00  0.00    -0.213 N 
ATOM     21  C   UNL     1      -8.295   3.915  -2.199  0.00  0.00    +0.247 C 
ATOM     22  O   UNL     1      -7.766   3.374  -3.146  0.00  0.00    -0.273 OA
ATOM     23  C   UNL     1      -9.289   5.053  -2.232  0.00  0.00    +0.113 C 
ATOM     24  C   UNL     1     -10.549   4.635  -2.983  0.00  0.00    +0.035 C 
ATOM     25  C   UNL     1     -10.200   4.340  -4.444  0.00  0.00    +0.006 C 
ATOM     26  C   UNL     1      -9.594   5.591  -5.085  0.00  0.00    -0.005 C 
ATOM     27  C   UNL     1      -8.321   5.986  -4.335  0.00  0.00    +0.006 C 
ATOM     28  C   UNL     1      -8.663   6.286  -2.873  0.00  0.00    +0.035 C 
ATOM     29  N   UNL     1      -9.592   5.304  -0.818  0.00  0.00    -0.285 N 
ATOM     30  C   UNL     1      -8.865   4.418  -0.110  0.00  0.00    +0.310 C 
ATOM     31  O   UNL     1      -8.882   4.347   1.103  0.00  0.00    -0.252 OA
ATOM     32  H   UNL     1     -10.198   5.973  -0.464  0.00  0.00    +0.151 HD
BRANCH  26  33
ATOM     33  C   UNL     1      -9.255   5.300  -6.548  0.00  0.00    -0.035 C 
ATOM     34  C   UNL     1      -8.245   4.153  -6.619  0.00  0.00    +0.011 C 
ATOM     35  C   UNL     1     -10.528   4.905  -7.299  0.00  0.00    +0.011 C 
ATOM     36  C   UNL     1      -8.652   6.551  -7.190  0.00  0.00    +0.011 C 
ENDBRANCH  26  33
ENDBRANCH  19  20
ENDBRANCH   1  19
TORSDOF 8
