REMARK  Name = ZINC03595860
REMARK  7 active torsions:
REMARK  status: ('A' for Active; 'I' for Inactive)
REMARK    1  A    between atoms: C_1  and  C_2
REMARK    2  A    between atoms: C_2  and  O_3
REMARK    3  A    between atoms: O_3  and  C_4
REMARK    4  A    between atoms: C_9  and  N_10
REMARK    5  A    between atoms: C_11  and  C_13
REMARK    6  A    between atoms: C_13  and  N_14
REMARK    7  A    between atoms: C_22  and  C_24
REMARK                            x       y       z     vdW  Elec       q    Type
REMARK                         _______ _______ _______ _____ _____    ______ ____
ROOT
ATOM      1  C   UNL     1      -3.289  -0.494   2.970  0.00  0.00    +0.214 C 
ENDROOT
BRANCH   1   2
ATOM      2  N   UNL     1      -2.122   0.254   2.498  0.00  0.00    -0.215 N 
ATOM      3  C   UNL     1      -2.099   0.990   1.367  0.00  0.00    +0.247 C 
ATOM      4  O   UNL     1      -3.006   1.151   0.578  0.00  0.00    -0.273 OA
ATOM      5  C   UNL     1      -0.706   1.570   1.291  0.00  0.00    +0.115 C 
ATOM      6  C   UNL     1       0.005   1.083   0.032  0.00  0.00    +0.035 C 
ATOM      7  C   UNL     1      -0.733   1.603  -1.204  0.00  0.00    +0.003 C 
ATOM      8  C   UNL     1      -0.764   3.132  -1.174  0.00  0.00    +0.000 C 
ATOM      9  C   UNL     1      -1.497   3.605   0.083  0.00  0.00    +0.006 C 
ATOM     10  C   UNL     1      -0.762   3.093   1.324  0.00  0.00    +0.018 C 
ATOM     11  C   UNL     1      -1.506   3.549   2.581  0.00  0.00    +0.010 C 
ATOM     12  N   UNL     1      -0.038   1.053   2.492  0.00  0.00    -0.285 N 
ATOM     13  C   UNL     1      -0.945   0.293   3.135  0.00  0.00    +0.310 C 
ATOM     14  O   UNL     1      -0.721  -0.291   4.176  0.00  0.00    -0.252 OA
ATOM     15  H   UNL     1       0.876   1.224   2.768  0.00  0.00    +0.151 HD
ENDBRANCH   1   2
BRANCH   1  17
ATOM     16  N   UNL     1      -4.237  -2.763   2.700  0.00  0.00    -0.281 N 
ATOM     17  C   UNL     1      -3.256  -1.889   2.400  0.00  0.00    +0.235 C 
ATOM     18  O   UNL     1      -2.346  -2.225   1.671  0.00  0.00    -0.274 OA
ATOM     19  H   UNL     1      -4.929  -2.517   3.333  0.00  0.00    +0.155 HD
BRANCH  16  25
ATOM     20  C   UNL     1      -5.472  -4.637   1.792  0.00  0.00    +0.142 A 
ATOM     21  C   UNL     1      -5.485  -5.886   1.191  0.00  0.00    +0.047 A 
ATOM     22  C   UNL     1      -4.295  -6.529   0.908  0.00  0.00    +0.004 A 
ATOM     23  C   UNL     1      -3.088  -5.928   1.216  0.00  0.00    +0.002 A 
ATOM     24  C   UNL     1      -3.067  -4.680   1.810  0.00  0.00    +0.027 A 
ATOM     25  C   UNL     1      -4.257  -4.028   2.098  0.00  0.00    +0.076 A 
BRANCH  20  26
ATOM     26  O   UNL     1      -6.641  -4.005   2.077  0.00  0.00    -0.490 OA
BRANCH  26  28
ATOM     27  C   UNL     1      -9.051  -3.830   2.128  0.00  0.00    +0.048 C 
ATOM     28  C   UNL     1      -7.848  -4.690   1.735  0.00  0.00    +0.226 C 
ENDBRANCH  26  28
ENDBRANCH  20  26
ENDBRANCH  16  25
ENDBRANCH   1  17
TORSDOF 5
