REMARK  Name = ZINC10002619
REMARK  10 active torsions:
REMARK  status: ('A' for Active; 'I' for Inactive)
REMARK    1  A    between atoms: C_1  and  C_2
REMARK    2  A    between atoms: C_2  and  C_3
REMARK    3  A    between atoms: C_2  and  C_4
REMARK    4  A    between atoms: C_4  and  C_5
REMARK    5  A    between atoms: C_5  and  C_7
REMARK    6  A    between atoms: C_5  and  N_21
REMARK    7  A    between atoms: N_9  and  N_10
REMARK    8  A    between atoms: C_11  and  C_12
REMARK    9  A    between atoms: C_16  and  N_18
REMARK   10  A    between atoms: C_22  and  C_24
REMARK                            x       y       z     vdW  Elec       q    Type
REMARK                         _______ _______ _______ _____ _____    ______ ____
ROOT
ATOM      1  C   UNL     1      -2.418   9.519   0.074  0.00  0.00    +0.161 C 
ENDROOT
BRANCH   1   2
ATOM      2  C   UNL     1      -2.398   8.012   0.066  0.00  0.00    +0.253 C 
ATOM      3  O   UNL     1      -3.440   7.391   0.072  0.00  0.00    -0.272 OA
ATOM      4  N   UNL     1      -1.222   7.354   0.052  0.00  0.00    -0.205 N 
ATOM      5  H   UNL     1      -0.388   7.850   0.047  0.00  0.00    +0.177 HD
BRANCH   4   6
ATOM      6  N   UNL     1      -1.202   5.953   0.044  0.00  0.00    -0.188 NA
ATOM      7  C   UNL     1      -0.070   5.320   0.030  0.00  0.00    +0.138 C 
BRANCH   7   8
ATOM      8  C   UNL     1      -0.050   3.845   0.022  0.00  0.00    -0.003 A 
ATOM      9  C   UNL     1      -1.248   3.127   0.030  0.00  0.00    +0.009 A 
ATOM     10  C   UNL     1      -1.222   1.748   0.017  0.00  0.00    +0.003 A 
ATOM     11  C   UNL     1      -0.013   1.076   0.008  0.00  0.00    +0.033 A 
ATOM     12  C   UNL     1       1.178   1.780   0.000  0.00  0.00    +0.127 A 
ATOM     13  C   UNL     1       1.167   3.160   0.007  0.00  0.00    +0.042 A 
BRANCH  12  14
ATOM     14  N   UNL     1       2.467   1.053  -0.016  0.00  0.00    +0.056 N 
ATOM     15  O   UNL     1       2.478  -0.165  -0.022  0.00  0.00    -0.126 OA
ATOM     16  O   UNL     1       3.516   1.672  -0.022  0.00  0.00    -0.126 OA
ENDBRANCH  12  14
ENDBRANCH   7   8
ENDBRANCH   4   6
ENDBRANCH   1   2
BRANCH   1  17
ATOM     17  N   UNL     1      -3.806   9.988   0.090  0.00  0.00    -0.300 N 
ATOM     18  C   UNL     1      -4.110  11.209  -0.394  0.00  0.00    +0.245 C 
ATOM     19  O   UNL     1      -3.232  11.920  -0.843  0.00  0.00    -0.270 OA
ATOM     20  H   UNL     1      -4.506   9.421   0.448  0.00  0.00    +0.150 HD
BRANCH  18  21
ATOM     21  C   UNL     1      -5.509  11.682  -0.379  0.00  0.00    +0.037 A 
ATOM     22  C   UNL     1      -6.520  10.865   0.131  0.00  0.00    +0.014 A 
ATOM     23  C   UNL     1      -7.824  11.316   0.149  0.00  0.00    +0.021 A 
ATOM     24  C   UNL     1      -8.133  12.570  -0.350  0.00  0.00    +0.041 A 
ATOM     25  C   UNL     1      -7.135  13.383  -0.863  0.00  0.00    +0.021 A 
ATOM     26  C   UNL     1      -5.827  12.947  -0.879  0.00  0.00    +0.014 A 
ATOM     27 CL   UNL     1      -9.777  13.127  -0.331  0.00  0.00    -0.084 Cl
ENDBRANCH  18  21
ENDBRANCH   1  17
BRANCH   1  28
ATOM     28  C   UNL     1      -1.692  10.032   1.320  0.00  0.00    +0.034 C 
BRANCH  28  30
ATOM     29  C   UNL     1      -0.991  12.080   2.567  0.00  0.00    +0.007 C 
ATOM     30  C   UNL     1      -1.604  11.558   1.266  0.00  0.00    -0.015 C 
ATOM     31  C   UNL     1      -0.726  11.977   0.085  0.00  0.00    +0.007 C 
ENDBRANCH  28  30
ENDBRANCH   1  28
TORSDOF 8
