REMARK  Name = ZINC45574554
REMARK  10 active torsions:
REMARK  status: ('A' for Active; 'I' for Inactive)
REMARK    1  A    between atoms: C_4  and  C_7
REMARK    2  A    between atoms: N_10  and  C_12
REMARK    3  A    between atoms: C_12  and  C_13
REMARK    4  A    between atoms: C_16  and  C_19
REMARK    5  A    between atoms: N_21  and  N_22
REMARK    6  A    between atoms: C_23  and  C_25
REMARK    7  A    between atoms: C_25  and  C_26
REMARK    8  A    between atoms: C_26  and  C_27
REMARK    9  A    between atoms: C_27  and  O_28
REMARK   10  A    between atoms: O_28  and  C_29
REMARK                            x       y       z     vdW  Elec       q    Type
REMARK                         _______ _______ _______ _____ _____    ______ ____
ROOT
ATOM      1  C   UNL     1       5.986  -4.022   1.331  0.00  0.00    -0.024 A 
ATOM      2  C   UNL     1       7.173  -3.723   1.976  0.00  0.00    +0.006 A 
ATOM      3  C   UNL     1       7.384  -4.150   3.271  0.00  0.00    +0.013 A 
ATOM      4  C   UNL     1       6.397  -4.885   3.929  0.00  0.00    +0.038 A 
ATOM      5  C   UNL     1       5.202  -5.183   3.272  0.00  0.00    +0.013 A 
ATOM      6  C   UNL     1       5.001  -4.745   1.980  0.00  0.00    +0.006 A 
ENDROOT
BRANCH   4   7
ATOM      7  C   UNL     1       6.617  -5.346   5.317  0.00  0.00    +0.260 C 
ATOM      8  O   UNL     1       7.659  -5.086   5.886  0.00  0.00    -0.269 OA
ATOM      9  N   UNL     1       5.662  -6.056   5.950  0.00  0.00    -0.230 N 
ATOM     10  H   UNL     1       4.831  -6.264   5.496  0.00  0.00    +0.173 HD
BRANCH   9  11
ATOM     11  N   UNL     1       5.871  -6.494   7.265  0.00  0.00    -0.234 N 
ATOM     12  C   UNL     1       4.916  -7.203   7.898  0.00  0.00    +0.229 C 
ATOM     13  O   UNL     1       3.877  -7.464   7.330  0.00  0.00    -0.274 OA
ATOM     14  H   UNL     1       6.702  -6.285   7.719  0.00  0.00    +0.173 HD
BRANCH  12  15
ATOM     15  C   UNL     1       5.140  -7.674   9.312  0.00  0.00    +0.100 C 
BRANCH  15  16
ATOM     16  C   UNL     1       3.912  -8.450   9.792  0.00  0.00    +0.050 C 
BRANCH  16  17
ATOM     17  C   UNL     1       4.140  -8.928  11.228  0.00  0.00    +0.229 C 
BRANCH  17  18
ATOM     18  O   UNL     1       2.993  -9.653  11.676  0.00  0.00    -0.492 OA
BRANCH  18  19
ATOM     19  C   UNL     1       3.032 -10.149  12.940  0.00  0.00    +0.120 A 
ATOM     20  C   UNL     1       4.149  -9.938  13.735  0.00  0.00    +0.045 A 
ATOM     21  C   UNL     1       4.187 -10.443  15.020  0.00  0.00    +0.004 A 
ATOM     22  C   UNL     1       3.112 -11.160  15.514  0.00  0.00    +0.000 A 
ATOM     23  C   UNL     1       1.998 -11.372  14.724  0.00  0.00    +0.004 A 
ATOM     24  C   UNL     1       1.953 -10.864  13.440  0.00  0.00    +0.045 A 
ENDBRANCH  18  19
ENDBRANCH  17  18
ENDBRANCH  16  17
ENDBRANCH  15  16
ENDBRANCH  12  15
ENDBRANCH   9  11
ENDBRANCH   4   7
BRANCH   1  25
ATOM     25  C   UNL     1       5.762  -3.552  -0.084  0.00  0.00    +0.203 C 
BRANCH  25  29
ATOM     26  C   UNL     1       3.699  -0.690  -0.038  0.00  0.00    +0.205 A 
ATOM     27  N   UNL     1       4.921  -0.140  -0.042  0.00  0.00    -0.108 NA
ATOM     28  N   UNL     1       5.776  -1.106  -0.059  0.00  0.00    -0.045 NA
ATOM     29  N   UNL     1       5.141  -2.225  -0.065  0.00  0.00    -0.158 N 
ATOM     30  N   UNL     1       3.873  -1.996  -0.047  0.00  0.00    -0.130 NA
BRANCH  26  34
ATOM     31  C   UNL     1      -0.017   1.379   0.010  0.00  0.00    +0.000 A 
ATOM     32  C   UNL     1       1.169   2.092   0.002  0.00  0.00    +0.001 A 
ATOM     33  C   UNL     1       2.377   1.425  -0.013  0.00  0.00    +0.012 A 
ATOM     34  C   UNL     1       2.402   0.033  -0.021  0.00  0.00    +0.023 A 
ATOM     35  C   UNL     1       1.205  -0.680  -0.013  0.00  0.00    +0.012 A 
ATOM     36  C   UNL     1       0.002  -0.004   0.002  0.00  0.00    +0.001 A 
ENDBRANCH  26  34
ENDBRANCH  25  29
ENDBRANCH   1  25
TORSDOF 10
