REMARK  Name = ZINC08634872
REMARK  10 active torsions:
REMARK  status: ('A' for Active; 'I' for Inactive)
REMARK    1  A    between atoms: C_1  and  C_2
REMARK    2  A    between atoms: C_3  and  C_30
REMARK    3  A    between atoms: C_5  and  N_11
REMARK    4  A    between atoms: C_6  and  C_7
REMARK    5  A    between atoms: C_7  and  O_9
REMARK    6  A    between atoms: O_9  and  C_10
REMARK    7  A    between atoms: C_12  and  C_14
REMARK    8  A    between atoms: C_14  and  N_15
REMARK    9  A    between atoms: C_18  and  C_22
REMARK   10  A    between atoms: C_18  and  C_23
REMARK                            x       y       z     vdW  Elec       q    Type
REMARK                         _______ _______ _______ _____ _____    ______ ____
ROOT
ATOM      1  C   UNL     1       1.802   2.269   4.932  0.00  0.00    +0.214 C 
ENDROOT
BRANCH   1   2
ATOM      2  N   UNL     1       2.782   2.847   5.856  0.00  0.00    -0.215 N 
ATOM      3  C   UNL     1       3.855   2.186   6.333  0.00  0.00    +0.251 C 
ATOM      4  O   UNL     1       4.180   1.044   6.088  0.00  0.00    -0.272 OA
ATOM      5  C   UNL     1       4.572   3.168   7.239  0.00  0.00    +0.135 C 
ATOM      6  N   UNL     1       3.737   4.380   7.165  0.00  0.00    -0.281 N 
ATOM      7  C   UNL     1       2.718   4.095   6.335  0.00  0.00    +0.310 C 
ATOM      8  O   UNL     1       1.837   4.883   6.052  0.00  0.00    -0.252 OA
ATOM      9  C   UNL     1       4.622   2.634   8.672  0.00  0.00    +0.047 C 
ATOM     10  H   UNL     1       3.893   5.219   7.626  0.00  0.00    +0.152 HD
BRANCH   5  11
ATOM     11  C   UNL     1       5.961   3.449   6.727  0.00  0.00    -0.014 A 
ATOM     12  C   UNL     1       6.685   2.449   6.105  0.00  0.00    +0.006 A 
ATOM     13  C   UNL     1       7.957   2.708   5.631  0.00  0.00    +0.001 A 
ATOM     14  C   UNL     1       8.511   3.965   5.788  0.00  0.00    +0.015 A 
ATOM     15  C   UNL     1       7.790   4.964   6.416  0.00  0.00    +0.018 A 
ATOM     16  C   UNL     1       6.514   4.706   6.885  0.00  0.00    +0.021 A 
ATOM     17 BR   UNL     1       8.547   6.684   6.632  0.00  0.00    -0.050 Br
ENDBRANCH   5  11
ENDBRANCH   1   2
BRANCH   1  19
ATOM     18  N   UNL     1       1.482   2.091   2.486  0.00  0.00    -0.278 N 
ATOM     19  C   UNL     1       2.234   2.534   3.513  0.00  0.00    +0.236 C 
ATOM     20  O   UNL     1       3.259   3.144   3.295  0.00  0.00    -0.274 OA
ATOM     21  H   UNL     1       0.662   1.602   2.661  0.00  0.00    +0.155 HD
BRANCH  18  26
ATOM     22  C   UNL     1       1.284   2.014  -2.572  0.00  0.00    +0.045 C 
ATOM     23  C   UNL     1       1.883   2.356  -1.232  0.00  0.00    -0.025 A 
ATOM     24  C   UNL     1       3.036   3.041  -1.135  0.00  0.00    -0.008 A 
ATOM     25  S   UNL     1       3.288   3.172   0.623  0.00  0.00    -0.078 S 
ATOM     26  C   UNL     1       1.879   2.334   1.181  0.00  0.00    +0.086 A 
ATOM     27  C   UNL     1       1.244   1.962   0.001  0.00  0.00    +0.091 A 
ATOM     28  C   UNL     1       3.905   3.572  -2.246  0.00  0.00    +0.052 C 
BRANCH  27  29
ATOM     29  C   UNL     1      -0.014   1.212   0.009  0.00  0.00    +0.342 C 
ATOM     30  O   UNL     1       0.002  -0.004   0.002  0.00  0.00    -0.245 OA
BRANCH  29  31
ATOM     31  O   UNL     1      -1.192   1.871   0.018  0.00  0.00    -0.464 OA
ATOM     32  C   UNL     1      -2.398   1.063   0.019  0.00  0.00    +0.280 C 
ENDBRANCH  29  31
ENDBRANCH  27  29
ENDBRANCH  18  26
ENDBRANCH   1  19
TORSDOF 6
