REMARK  Name = ZINC24294793
REMARK  10 active torsions:
REMARK  status: ('A' for Active; 'I' for Inactive)
REMARK    1  A    between atoms: C_1  and  C_2
REMARK    2  A    between atoms: C_2  and  C_4
REMARK    3  A    between atoms: C_2  and  O_23
REMARK    4  A    between atoms: N_6  and  N_7
REMARK    5  A    between atoms: C_8  and  C_10
REMARK    6  A    between atoms: C_10  and  C_11
REMARK    7  A    between atoms: C_11  and  N_12
REMARK    8  A    between atoms: N_12  and  S_13
REMARK    9  A    between atoms: S_13  and  C_16
REMARK   10  A    between atoms: O_23  and  C_24
REMARK                            x       y       z     vdW  Elec       q    Type
REMARK                         _______ _______ _______ _____ _____    ______ ____
ROOT
ATOM      1  N   UNL     1      -2.106   5.152  -4.829  0.00  0.00    -0.234 N 
ATOM      2  C   UNL     1      -1.510   4.675  -3.719  0.00  0.00    +0.230 C 
ATOM      3  O   UNL     1      -1.097   5.441  -2.875  0.00  0.00    -0.274 OA
ATOM      4  H   UNL     1      -2.481   4.456  -5.595  0.00  0.00    +0.173 HD
ENDROOT
BRANCH   1   7
ATOM      5  C   UNL     1      -2.845   7.011  -6.119  0.00  0.00    +0.270 C 
ATOM      6  O   UNL     1      -3.258   6.245  -6.963  0.00  0.00    -0.270 OA
ATOM      7  N   UNL     1      -2.249   6.534  -5.008  0.00  0.00    -0.231 N 
ATOM      8  H   UNL     1      -1.875   7.230  -4.243  0.00  0.00    +0.173 HD
BRANCH   5  10
ATOM      9  C   UNL     1      -3.832   9.078  -5.167  0.00  0.00    +0.062 C 
ATOM     10  C   UNL     1      -2.999   8.498  -6.312  0.00  0.00    +0.257 C 
BRANCH  10  11
ATOM     11  O   UNL     1      -3.656   8.752  -7.555  0.00  0.00    -0.480 OA
BRANCH  11  12
ATOM     12  C   UNL     1      -3.428   9.958  -8.139  0.00  0.00    +0.122 A 
ATOM     13  C   UNL     1      -3.937  10.225  -9.402  0.00  0.00    +0.048 A 
ATOM     14  C   UNL     1      -3.709  11.454  -9.991  0.00  0.00    +0.042 A 
ATOM     15  C   UNL     1      -2.963  12.413  -9.328  0.00  0.00    +0.124 A 
ATOM     16  C   UNL     1      -2.449  12.145  -8.071  0.00  0.00    +0.042 A 
ATOM     17  C   UNL     1      -2.681  10.920  -7.476  0.00  0.00    +0.048 A 
ATOM     18  F   UNL     1      -2.737  13.612  -9.908  0.00  0.00    -0.205 F 
ENDBRANCH  11  12
ENDBRANCH  10  11
ENDBRANCH   5  10
ENDBRANCH   1   7
BRANCH   2  19
ATOM     19  C   UNL     1      -1.356   3.188  -3.526  0.00  0.00    +0.114 C 
BRANCH  19  20
ATOM     20  C   UNL     1      -0.652   2.916  -2.195  0.00  0.00    +0.115 C 
BRANCH  20  21
ATOM     21  N   UNL     1      -0.503   1.471  -2.007  0.00  0.00    -0.189 NA
ATOM     22  H   UNL     1      -1.194   0.777  -2.508  0.00  0.00    +0.148 HD
BRANCH  21  23
ATOM     23  S   UNL     1       0.536   0.888  -0.857  0.00  0.00    +0.058 S 
ATOM     24  O   UNL     1       0.438  -0.528  -0.901  0.00  0.00    -0.153 OA
ATOM     25  O   UNL     1       1.768   1.573  -1.039  0.00  0.00    -0.153 OA
BRANCH  23  26
ATOM     26  C   UNL     1      -0.090   1.388   0.712  0.00  0.00    +0.105 A 
ATOM     27  C   UNL     1       0.308   2.591   1.264  0.00  0.00    +0.029 A 
ATOM     28  C   UNL     1      -0.187   2.985   2.493  0.00  0.00    +0.017 A 
ATOM     29  C   UNL     1      -1.073   2.171   3.175  0.00  0.00    +0.018 A 
ATOM     30  C   UNL     1      -1.467   0.964   2.625  0.00  0.00    +0.017 A 
ATOM     31  C   UNL     1      -0.975   0.573   1.394  0.00  0.00    +0.029 A 
ATOM     32 BR   UNL     1      -1.745   2.707   4.860  0.00  0.00    -0.050 Br
ENDBRANCH  23  26
ENDBRANCH  21  23
ENDBRANCH  20  21
ENDBRANCH  19  20
ENDBRANCH   2  19
TORSDOF 9
