REMARK  Name = ZINC11867542
REMARK  10 active torsions:
REMARK  status: ('A' for Active; 'I' for Inactive)
REMARK    1  A    between atoms: C_1  and  C_2
REMARK    2  A    between atoms: C_2  and  C_3
REMARK    3  A    between atoms: C_3  and  CA_4
REMARK    4  A    between atoms: CA_4  and  C_6
REMARK    5  A    between atoms: CA_4  and  N_12
REMARK    6  A    between atoms: N_8  and  CA_9
REMARK    7  A    between atoms: CA_9  and  C_10
REMARK    8  A    between atoms: C_13  and  C_15
REMARK    9  A    between atoms: C_15  and  C_16
REMARK   10  A    between atoms: C_17  and  C_36
REMARK                            x       y       z     vdW  Elec       q    Type
REMARK                         _______ _______ _______ _____ _____    ______ ____
ROOT
ATOM      1  C   UNK A   0      -0.280  -4.328  -5.786  0.00  0.00    +0.049 A 
ATOM      2  C   UNK A   0      -0.618  -3.018  -5.910  0.00  0.00    -0.029 A 
ATOM      3  C   UNK A   0      -1.021  -2.301  -4.697  0.00  0.00    +0.021 A 
ATOM      4  C   UNK A   0      -1.379  -0.950  -4.746  0.00  0.00    +0.019 A 
ATOM      5  C   UNK A   0      -1.758  -0.298  -3.605  0.00  0.00    -0.005 A 
ATOM      6  C   UNK A   0      -1.793  -0.976  -2.390  0.00  0.00    +0.128 A 
ATOM      7  C   UNK A   0      -1.434  -2.316  -2.326  0.00  0.00    +0.093 A 
ATOM      8  C   UNK A   0      -1.046  -2.992  -3.473  0.00  0.00    +0.143 A 
ATOM      9  O   UNK A   0      -0.697  -4.292  -3.412  0.00  0.00    -0.422 OA
ATOM     10  C   UNK A   0      -0.327  -4.943  -4.520  0.00  0.00    +0.341 A 
ATOM     11  O   UNK A   0      -0.018  -6.118  -4.430  0.00  0.00    -0.245 OA
ATOM     12  O   UNK A   0      -2.179  -0.360  -1.242  0.00  0.00    -0.485 OA
ATOM     13  C   UNK A   0      -2.188   1.066  -1.219  0.00  0.00    +0.111 C 
ATOM     14  C   UNK A   0      -0.753   1.593  -1.232  0.00  0.00    +0.048 C 
ATOM     15  C   UNK A   0      -0.013   1.086   0.008  0.00  0.00    +0.004 C 
ATOM     16  C   UNK A   0      -0.729   1.579   1.267  0.00  0.00    +0.000 C 
ATOM     17  C   UNK A   0      -2.165   1.050   1.278  0.00  0.00    +0.004 C 
ATOM     18  C   UNK A   0      -2.905   1.558   0.039  0.00  0.00    +0.048 C 
ATOM     19  C   UNK A   0      -2.930   1.571  -2.461  0.00  0.00    +0.053 C 
ATOM     20  C   UNK A   0      -2.132   1.160  -3.701  0.00  0.00    +0.043 C 
ATOM     21  C   UNK A   0      -0.581  -2.326  -7.248  0.00  0.00    +0.045 C 
ENDROOT
BRANCH   1  22
ATOM     22  C   UNK A   0       0.144  -5.119  -6.997  0.00  0.00    +0.138 C 
BRANCH  22  24
ATOM     23  N   GLY A   1      -0.928  -6.513  -8.736  0.00  0.00    -0.304 N 
ATOM     24  C   UNK A   0      -1.067  -5.753  -7.632  0.00  0.00    +0.218 C 
ATOM     25  O   UNK A   0      -2.165  -5.581  -7.148  0.00  0.00    -0.275 OA
ATOM     26  H   GLY A   1      -0.050  -6.651  -9.123  0.00  0.00    +0.149 HD
BRANCH  23  27
ATOM     27  CA  GLY A   1      -2.105  -7.130  -9.353  0.00  0.00    +0.159 C 
BRANCH  27  28
ATOM     28  C   GLY A   1      -1.684  -8.353 -10.126  0.00  0.00    +0.234 C 
ATOM     29  O   GLY A   1      -0.516  -8.677 -10.159  0.00  0.00    -0.274 OA
ATOM     30  N   GLY A   1      -2.606  -9.086 -10.782  0.00  0.00    -0.303 N 
ATOM     31  H   GLY A   1      -3.540  -8.827 -10.756  0.00  0.00    +0.149 HD
BRANCH  30  32
ATOM     32  CA  GLY A   1      -2.197 -10.275 -11.534  0.00  0.00    +0.229 C 
BRANCH  32  33
ATOM     33  C   GLY A   1      -3.408 -10.910 -12.168  0.00  0.00    +0.373 C 
ATOM     34  O   GLY A   1      -4.500 -10.419 -12.009  0.00  0.00    -0.245 OA
ATOM     35  OXT GLY A   1      -3.272 -12.020 -12.910  0.00  0.00    -0.245 OA
ENDBRANCH  32  33
ENDBRANCH  30  32
ENDBRANCH  27  28
BRANCH  27  36
ATOM     36  C   GLY A   1      -2.767  -6.129 -10.302  0.00  0.00    +0.031 C 
BRANCH  36  38
ATOM     37  C   GLY A   1      -3.968  -3.943 -10.448  0.00  0.00    +0.004 C 
ATOM     38  C   GLY A   1      -3.306  -4.944  -9.499  0.00  0.00    -0.001 C 
ENDBRANCH  36  38
ENDBRANCH  27  36
ENDBRANCH  23  27
ENDBRANCH  22  24
ENDBRANCH   1  22
TORSDOF 8
