REMARK  Name = ZINC44953862
REMARK  8 active torsions:
REMARK  status: ('A' for Active; 'I' for Inactive)
REMARK    1  A    between atoms: C_1  and  C_2
REMARK    2  A    between atoms: N_4  and  C_7
REMARK    3  A    between atoms: C_10  and  C_13
REMARK    4  A    between atoms: N_15  and  C_16
REMARK    5  A    between atoms: C_16  and  C_18
REMARK    6  A    between atoms: C_16  and  C_19
REMARK    7  A    between atoms: C_23  and  S_25
REMARK    8  A    between atoms: S_25  and  N_28
REMARK                            x       y       z     vdW  Elec       q    Type
REMARK                         _______ _______ _______ _____ _____    ______ ____
ROOT
ATOM      1  C   UNL     1       0.067  -6.152  -4.709  0.00  0.00    +0.245 C 
ATOM      2  O   UNL     1       0.080  -7.321  -4.374  0.00  0.00    -0.270 OA
ATOM      3  N   UNL     1       0.064  -5.825  -6.016  0.00  0.00    -0.305 N 
ATOM      4  H   UNL     1       0.053  -4.893  -6.283  0.00  0.00    +0.150 HD
ENDROOT
BRANCH   1   8
ATOM      5  C   UNL     1       0.037  -3.099  -1.757  0.00  0.00    +0.052 A 
ATOM      6  C   UNL     1       0.050  -4.437  -1.373  0.00  0.00    +0.025 A 
ATOM      7  C   UNL     1       0.060  -5.429  -2.327  0.00  0.00    +0.015 A 
ATOM      8  C   UNL     1       0.056  -5.091  -3.683  0.00  0.00    +0.037 A 
ATOM      9  C   UNL     1       0.042  -3.747  -4.066  0.00  0.00    +0.015 A 
ATOM     10  C   UNL     1       0.027  -2.760  -3.108  0.00  0.00    +0.025 A 
BRANCH   5  14
ATOM     11  C   UNL     1      -0.018   1.503   0.010  0.00  0.00    +0.062 C 
ATOM     12  C   UNL     1       0.002  -0.004   0.002  0.00  0.00    +0.036 C 
ATOM     13  N   UNL     1       0.008  -0.729  -1.041  0.00  0.00    -0.189 NA
ATOM     14  N   UNL     1       0.027  -2.100  -0.791  0.00  0.00    -0.224 N 
ATOM     15  C   UNL     1       0.036  -2.314   0.665  0.00  0.00    +0.138 C 
ATOM     16  C   UNL     1       0.026  -0.880   1.234  0.00  0.00    +0.073 C 
ENDBRANCH   5  14
ENDBRANCH   1   8
BRANCH   3  17
ATOM     17  C   UNL     1       0.074  -6.878  -7.035  0.00  0.00    +0.100 C 
ATOM     18  C   UNL     1       1.516  -7.317  -7.299  0.00  0.00    +0.033 C 
BRANCH  17  19
ATOM     19  C   UNL     1      -0.532  -6.351  -8.309  0.00  0.00    -0.026 A 
ATOM     20  C   UNL     1      -0.248  -5.065  -8.729  0.00  0.00    +0.005 A 
ATOM     21  C   UNL     1      -0.805  -4.581  -9.898  0.00  0.00    +0.002 A 
ATOM     22  C   UNL     1      -1.644  -5.384 -10.648  0.00  0.00    +0.028 A 
ATOM     23  C   UNL     1      -1.927  -6.670 -10.229  0.00  0.00    +0.105 A 
ATOM     24  C   UNL     1      -1.367  -7.155  -9.062  0.00  0.00    +0.034 A 
BRANCH  23  25
ATOM     25  S   UNL     1      -2.997  -7.693 -11.184  0.00  0.00    +0.056 S 
ATOM     26  O   UNL     1      -3.534  -8.662 -10.294  0.00  0.00    -0.153 OA
ATOM     27  O   UNL     1      -3.820  -6.820 -11.947  0.00  0.00    -0.153 OA
BRANCH  25  28
ATOM     28  N   UNL     1      -2.051  -8.516 -12.266  0.00  0.00    -0.204 NA
ATOM     29  H   UNL     1      -2.317  -9.398 -12.570  0.00  0.00    +0.144 HD
ATOM     30  H   UNL     1      -1.231  -8.117 -12.595  0.00  0.00    +0.144 HD
ENDBRANCH  25  28
ENDBRANCH  23  25
ENDBRANCH  17  19
ENDBRANCH   3  17
TORSDOF 6
