REMARK  Name = ZINC36026765
REMARK  7 active torsions:
REMARK  status: ('A' for Active; 'I' for Inactive)
REMARK    1  A    between atoms: C_1  and  C_2
REMARK    2  A    between atoms: C_2  and  C_3
REMARK    3  A    between atoms: C_2  and  C_4
REMARK    4  A    between atoms: C_2  and  N_5
REMARK    5  A    between atoms: C_15  and  C_23
REMARK    6  A    between atoms: N_19  and  C_20
REMARK    7  A    between atoms: C_23  and  C_24
REMARK                            x       y       z     vdW  Elec       q    Type
REMARK                         _______ _______ _______ _____ _____    ______ ____
ROOT
ATOM      1  N   UNL     1      -0.012  -0.917  -1.824  0.00  0.00    -0.294 N 
ATOM      2  C   UNL     1       1.230  -0.396  -1.883  0.00  0.00    +0.303 C 
ATOM      3  O   UNL     1       1.563   0.472  -1.100  0.00  0.00    -0.253 OA
ATOM      4  N   UNL     1       2.102  -0.839  -2.811  0.00  0.00    -0.286 N 
ATOM      5  C   UNL     1       1.678  -1.799  -3.839  0.00  0.00    +0.109 C 
ATOM      6  C   UNL     1       2.023  -1.228  -5.218  0.00  0.00    +0.025 C 
ATOM      7  C   UNL     1       3.506  -0.864  -5.260  0.00  0.00    +0.006 C 
ATOM      8  C   UNL     1       3.824   0.190  -4.201  0.00  0.00    +0.025 C 
ATOM      9  C   UNL     1       3.493  -0.365  -2.816  0.00  0.00    +0.109 C 
ATOM     10  N   UNL     1       3.854  -0.345  -6.600  0.00  0.00    +0.401 N 
ATOM     11  C   UNL     1       5.245  -0.822  -6.793  0.00  0.00    +0.023 C 
ATOM     12  C   UNL     1       5.352  -2.059  -5.928  0.00  0.00    +0.201 C 
ATOM     13  O   UNL     1       6.214  -2.909  -6.010  0.00  0.00    -0.277 OA
ATOM     14  N   UNL     1       4.327  -2.058  -5.051  0.00  0.00    -0.311 N 
ATOM     15  H   UNL     1      -0.302  -1.557  -2.492  0.00  0.00    +0.151 HD
ATOM     16  H   UNL     1       3.243  -0.733  -7.303  0.00  0.00    -0.082 HD
ATOM     17  H   UNL     1       3.819   0.663  -6.612  0.00  0.00    -0.082 HD
ENDROOT
BRANCH   1  19
ATOM     18  C   UNL     1      -1.159   0.996  -0.819  0.00  0.00    +0.031 C 
ATOM     19  C   UNL     1      -0.924  -0.514  -0.750  0.00  0.00    +0.028 C 
ATOM     20  C   UNL     1      -0.308  -0.873   0.604  0.00  0.00    +0.031 C 
ATOM     21  C   UNL     1      -2.258  -1.246  -0.913  0.00  0.00    +0.031 C 
ENDBRANCH   1  19
BRANCH  14  22
ATOM     22  C   UNL     1       4.076  -3.092  -4.043  0.00  0.00    +0.075 C 
ATOM     23  C   UNL     1       5.077  -4.245  -3.949  0.00  0.00    +0.024 C 
ATOM     24  C   UNL     1       3.687  -4.485  -4.542  0.00  0.00    +0.024 C 
ENDBRANCH  14  22
BRANCH  11  25
ATOM     25  C   UNL     1       5.488  -1.173  -8.262  0.00  0.00    +0.028 C 
BRANCH  25  26
ATOM     26  C   UNL     1       5.386   0.074  -9.101  0.00  0.00    -0.048 A 
ATOM     27  C   UNL     1       4.166   0.455  -9.628  0.00  0.00    +0.003 A 
ATOM     28  C   UNL     1       4.073   1.600 -10.397  0.00  0.00    +0.000 A 
ATOM     29  C   UNL     1       5.199   2.364 -10.639  0.00  0.00    +0.000 A 
ATOM     30  C   UNL     1       6.419   1.984 -10.111  0.00  0.00    +0.000 A 
ATOM     31  C   UNL     1       6.511   0.842  -9.338  0.00  0.00    +0.003 A 
ENDBRANCH  25  26
ENDBRANCH  11  25
TORSDOF 4
