REMARK  Name = ZINC05343997
REMARK  7 active torsions:
REMARK  status: ('A' for Active; 'I' for Inactive)
REMARK    1  A    between atoms: C_1  and  O_2
REMARK    2  A    between atoms: O_2  and  C_3
REMARK    3  A    between atoms: C_3  and  C_4
REMARK    4  A    between atoms: C_4  and  N_5
REMARK    5  A    between atoms: C_6  and  C_23
REMARK    6  A    between atoms: C_9  and  C_16
REMARK    7  A    between atoms: C_21  and  O_22
REMARK                            x       y       z     vdW  Elec       q    Type
REMARK                         _______ _______ _______ _____ _____    ______ ____
ROOT
ATOM      1  N   UNL     1      -0.190  -2.267   1.395  0.00  0.00    -0.283 N 
ATOM      2  C   UNL     1       1.216  -2.625   1.623  0.00  0.00    +0.141 C 
ATOM      3  C   UNL     1       1.256  -3.331   2.951  0.00  0.00    +0.035 A 
ATOM      4  C   UNL     1       2.031  -3.974   3.922  0.00  0.00    +0.102 A 
ATOM      5  N   UNL     1       1.218  -4.347   4.891  0.00  0.00    -0.173 NA
ATOM      6  N   UNL     1       0.008  -4.004   4.628  0.00  0.00    -0.272 N 
ATOM      7  H   UNL     1      -0.756  -4.175   5.200  0.00  0.00    +0.189 HD
ATOM      8  C   UNL     1      -0.042  -3.361   3.424  0.00  0.00    +0.126 A 
ATOM      9  C   UNL     1      -0.910  -2.694   2.447  0.00  0.00    +0.266 C 
ATOM     10  O   UNL     1      -2.111  -2.549   2.571  0.00  0.00    -0.268 OA
ENDROOT
BRANCH   2  11
ATOM     11  C   UNL     1       2.067  -1.382   1.669  0.00  0.00    -0.022 A 
ATOM     12  C   UNL     1       3.202  -1.292   0.886  0.00  0.00    +0.007 A 
ATOM     13  C   UNL     1       3.983  -0.152   0.928  0.00  0.00    +0.020 A 
ATOM     14  C   UNL     1       3.628   0.899   1.754  0.00  0.00    +0.041 A 
ATOM     15  C   UNL     1       2.492   0.808   2.538  0.00  0.00    +0.020 A 
ATOM     16  C   UNL     1       1.709  -0.330   2.491  0.00  0.00    +0.007 A 
ATOM     17 CL   UNL     1       4.609   2.330   1.808  0.00  0.00    -0.084 Cl
ENDBRANCH   2  11
BRANCH   4  18
ATOM     18  C   UNL     1       3.497  -4.196   3.870  0.00  0.00    +0.044 A 
ATOM     19  C   UNL     1       4.216  -3.857   2.727  0.00  0.00    +0.014 A 
ATOM     20  C   UNL     1       5.580  -4.065   2.683  0.00  0.00    +0.001 A 
ATOM     21  C   UNL     1       6.237  -4.609   3.773  0.00  0.00    +0.004 A 
ATOM     22  C   UNL     1       5.533  -4.948   4.913  0.00  0.00    +0.046 A 
ATOM     23  C   UNL     1       4.164  -4.739   4.972  0.00  0.00    +0.126 A 
BRANCH  23  24
ATOM     24  O   UNL     1       3.472  -5.067   6.094  0.00  0.00    -0.506 OA
ATOM     25  H   UNL     1       3.138  -5.974   6.099  0.00  0.00    +0.292 HD
ENDBRANCH  23  24
ENDBRANCH   4  18
BRANCH   1  26
ATOM     26  C   UNL     1      -0.716  -1.560   0.224  0.00  0.00    +0.137 C 
BRANCH  26  27
ATOM     27  C   UNL     1      -0.991  -2.565  -0.897  0.00  0.00    +0.178 C 
BRANCH  27  29
ATOM     28  C   UNL     1      -2.289  -4.509  -1.426  0.00  0.00    +0.194 C 
ATOM     29  O   UNL     1      -2.029  -3.459  -0.492  0.00  0.00    -0.381 OA
ENDBRANCH  27  29
ENDBRANCH  26  27
ENDBRANCH   1  26
TORSDOF 6
