REMARK  Name = ZINC06416187
REMARK  7 active torsions:
REMARK  status: ('A' for Active; 'I' for Inactive)
REMARK    1  A    between atoms: C_1  and  C_2
REMARK    2  A    between atoms: C_2  and  C_4
REMARK    3  A    between atoms: C_2  and  O_16
REMARK    4  A    between atoms: N_6  and  C_7
REMARK    5  A    between atoms: C_12  and  N_13
REMARK    6  A    between atoms: O_16  and  C_17
REMARK    7  A    between atoms: C_17  and  C_19
REMARK                            x       y       z     vdW  Elec       q    Type
REMARK                         _______ _______ _______ _____ _____    ______ ____
ROOT
ATOM      1  C   UNL     1      -5.771   2.765   0.731  0.00  0.00    +0.258 C 
ATOM      2  O   UNL     1      -5.335   3.825   1.127  0.00  0.00    -0.271 OA
ATOM      3  N   UNL     1      -7.061   2.443   0.952  0.00  0.00    -0.281 N 
ATOM      4  H   UNL     1      -7.428   1.625   0.580  0.00  0.00    +0.155 HD
ENDROOT
BRANCH   3   5
ATOM      5  C   UNL     1      -7.872   3.288   1.717  0.00  0.00    +0.064 A 
ATOM      6  C   UNL     1      -7.704   4.665   1.648  0.00  0.00    +0.025 A 
ATOM      7  C   UNL     1      -8.508   5.497   2.401  0.00  0.00    +0.002 A 
ATOM      8  C   UNL     1      -9.475   4.959   3.232  0.00  0.00    +0.002 A 
ATOM      9  C   UNL     1      -9.642   3.589   3.307  0.00  0.00    +0.034 A 
ATOM     10  C   UNL     1      -8.844   2.752   2.552  0.00  0.00    +0.147 A 
BRANCH  10  11
ATOM     11  N   UNL     1      -9.023   1.285   2.634  0.00  0.00    +0.058 N 
ATOM     12  O   UNL     1      -9.938   0.819   3.288  0.00  0.00    -0.126 OA
ATOM     13  O   UNL     1      -8.255   0.544   2.046  0.00  0.00    -0.126 OA
ENDBRANCH  10  11
ENDBRANCH   3   5
BRANCH   1  15
ATOM     14  C   UNL     1      -5.365   1.654  -1.448  0.00  0.00    +0.062 C 
ATOM     15  C   UNL     1      -4.872   1.808  -0.008  0.00  0.00    +0.259 C 
BRANCH  15  16
ATOM     16  O   UNL     1      -3.537   2.318  -0.014  0.00  0.00    -0.447 OA
BRANCH  16  17
ATOM     17  C   UNL     1      -2.536   1.413  -0.043  0.00  0.00    +0.376 C 
ATOM     18  O   UNL     1      -2.791   0.224  -0.062  0.00  0.00    -0.241 OA
BRANCH  17  19
ATOM     19  C   UNL     1      -1.143   1.863  -0.050  0.00  0.00    +0.213 A 
ATOM     20  C   UNL     1      -0.039   1.058  -0.078  0.00  0.00    +0.058 A 
ATOM     21  C   UNL     1       1.078   1.904  -0.081  0.00  0.00    +0.058 A 
ATOM     22  C   UNL     1       0.615   3.176  -0.050  0.00  0.00    +0.171 A 
ATOM     23  O   UNL     1      -0.724   3.146  -0.028  0.00  0.00    -0.442 OA
ATOM     24 BR   UNL     1       1.682   4.737  -0.039  0.00  0.00    -0.008 Br
ENDBRANCH  17  19
ENDBRANCH  16  17
ENDBRANCH  15  16
ENDBRANCH   1  15
TORSDOF 6
