REMARK  Name = ZINC13443603
REMARK  14 active torsions:
REMARK  status: ('A' for Active; 'I' for Inactive)
REMARK    1  A    between atoms: C_1  and  C_2
REMARK    2  A    between atoms: C_2  and  C_4
REMARK    3  A    between atoms: C_2  and  N_7
REMARK    4  A    between atoms: C_8  and  C_30
REMARK    5  A    between atoms: C_11  and  S_12
REMARK    6  A    between atoms: S_12  and  C_13
REMARK    7  A    between atoms: C_13  and  C_14
REMARK    8  A    between atoms: N_16  and  C_17
REMARK    9  A    between atoms: C_17  and  C_19
REMARK   10  A    between atoms: C_17  and  C_27
REMARK   11  A    between atoms: C_22  and  O_25
REMARK   12  A    between atoms: O_25  and  C_26
REMARK   13  A    between atoms: C_27  and  C_28
REMARK   14  A    between atoms: C_27  and  C_29
REMARK                            x       y       z     vdW  Elec       q    Type
REMARK                         _______ _______ _______ _____ _____    ______ ____
ROOT
ATOM      1  C   UNL     1      -3.756   0.550   3.245  0.00  0.00    +0.173 C 
ENDROOT
BRANCH   1   2
ATOM      2  C   UNL     1      -3.731   1.336   4.530  0.00  0.00    +0.224 C 
ATOM      3  O   UNL     1      -2.720   1.917   4.866  0.00  0.00    -0.275 OA
ATOM      4  N   UNL     1      -4.831   1.394   5.307  0.00  0.00    -0.308 N 
ATOM      5  H   UNL     1      -5.639   0.930   5.038  0.00  0.00    +0.149 HD
BRANCH   4   6
ATOM      6  C   UNL     1      -4.806   2.158   6.556  0.00  0.00    +0.106 C 
BRANCH   6   7
ATOM      7  C   UNL     1      -5.841   1.607   7.503  0.00  0.00    -0.027 A 
ATOM      8  C   UNL     1      -7.075   1.210   7.021  0.00  0.00    +0.009 A 
ATOM      9  C   UNL     1      -8.025   0.704   7.887  0.00  0.00    +0.046 A 
ATOM     10  C   UNL     1      -7.741   0.595   9.240  0.00  0.00    +0.120 A 
ATOM     11  C   UNL     1      -6.502   0.993   9.721  0.00  0.00    +0.046 A 
ATOM     12  C   UNL     1      -5.553   1.493   8.851  0.00  0.00    +0.009 A 
BRANCH  10  13
ATOM     13  O   UNL     1      -8.675   0.098  10.094  0.00  0.00    -0.495 OA
ATOM     14  C   UNL     1      -8.313   0.014  11.474  0.00  0.00    +0.277 C 
ENDBRANCH  10  13
ENDBRANCH   6   7
BRANCH   6  15
ATOM     15  C   UNL     1      -5.115   3.627   6.262  0.00  0.00    +0.008 C 
ATOM     16  C   UNL     1      -4.064   4.187   5.301  0.00  0.00    +0.009 C 
ATOM     17  C   UNL     1      -6.501   3.739   5.624  0.00  0.00    +0.009 C 
ENDBRANCH   6  15
ENDBRANCH   4   6
ENDBRANCH   1   2
BRANCH   1  18
ATOM     18  S   UNL     1      -2.137   0.665   2.434  0.00  0.00    -0.077 S 
BRANCH  18  23
ATOM     19  N   UNL     1      -1.372  -0.511   0.012  0.00  0.00    -0.288 N 
ATOM     20  C   UNL     1      -1.971  -1.313  -0.934  0.00  0.00    +0.172 A 
ATOM     21  N   UNL     1      -3.204  -1.528  -0.531  0.00  0.00    -0.128 NA
ATOM     22  N   UNL     1      -3.413  -0.924   0.584  0.00  0.00    -0.122 NA
ATOM     23  C   UNL     1      -2.327  -0.292   0.966  0.00  0.00    +0.193 A 
BRANCH  20  24
ATOM     24  C   UNL     1      -1.348  -1.832  -2.162  0.00  0.00    +0.056 A 
ATOM     25  C   UNL     1      -1.780  -2.834  -2.994  0.00  0.00    +0.019 A 
ATOM     26  C   UNL     1      -1.021  -3.149  -4.099  0.00  0.00    +0.008 A 
ATOM     27  C   UNL     1       0.126  -2.461  -4.332  0.00  0.00    +0.046 A 
ATOM     28  S   UNL     1       0.161  -1.315  -2.963  0.00  0.00    -0.094 S 
ENDBRANCH  20  24
BRANCH  19  30
ATOM     29  C   UNL     1      -0.019   1.526   0.010  0.00  0.00    +0.043 C 
ATOM     30  C   UNL     1       0.002  -0.004   0.002  0.00  0.00    +0.201 C 
BRANCH  30  31
ATOM     31  C   UNL     1       0.731  -0.503   1.223  0.00  0.00    +0.378 C 
ATOM     32  O   UNL     1       1.191   0.291   2.025  0.00  0.00    -0.244 OA
ATOM     33  O   UNL     1       0.860  -1.701   1.408  0.00  0.00    -0.244 OA
ENDBRANCH  30  31
ENDBRANCH  19  30
ENDBRANCH  18  23
ENDBRANCH   1  18
TORSDOF 10
