REMARK  Name = ZINC08852664
REMARK  9 active torsions:
REMARK  status: ('A' for Active; 'I' for Inactive)
REMARK    1  A    between atoms: C_3  and  S_28
REMARK    2  A    between atoms: C_6  and  N_7
REMARK    3  A    between atoms: C_8  and  C_10
REMARK    4  A    between atoms: C_10  and  C_11
REMARK    5  A    between atoms: C_14  and  S_16
REMARK    6  A    between atoms: S_16  and  C_17
REMARK    7  A    between atoms: C_17  and  C_18
REMARK    8  A    between atoms: N_20  and  C_21
REMARK    9  A    between atoms: S_28  and  N_31
REMARK                            x       y       z     vdW  Elec       q    Type
REMARK                         _______ _______ _______ _____ _____    ______ ____
ROOT
ATOM      1  C   UNL     1       3.583   6.464   0.621  0.00  0.00    +0.058 A 
ATOM      2  C   UNL     1       4.070   7.259  -0.361  0.00  0.00    +0.071 A 
ATOM      3  S   UNL     1       5.776   7.411   0.147  0.00  0.00    -0.069 S 
ATOM      4  C   UNL     1       5.674   6.429   1.576  0.00  0.00    +0.135 A 
ATOM      5  N   UNL     1       4.404   6.070   1.576  0.00  0.00    -0.237 NA
ENDROOT
BRANCH   1   6
ATOM      6  C   UNL     1       2.136   6.045   0.627  0.00  0.00    +0.152 C 
BRANCH   6   8
ATOM      7  N   UNL     1       0.845   3.936   0.703  0.00  0.00    -0.285 N 
ATOM      8  C   UNL     1       2.049   4.541   0.687  0.00  0.00    +0.223 C 
ATOM      9  O   UNL     1       3.062   3.876   0.722  0.00  0.00    -0.275 OA
ATOM     10  H   UNL     1       0.036   4.462   0.600  0.00  0.00    +0.155 HD
BRANCH   7  16
ATOM     11  C   UNL     1       1.693   1.883   1.651  0.00  0.00    +0.025 A 
ATOM     12  C   UNL     1       1.607   0.514   1.812  0.00  0.00    +0.030 A 
ATOM     13  C   UNL     1       0.595  -0.194   1.190  0.00  0.00    +0.105 A 
ATOM     14  C   UNL     1      -0.335   0.466   0.407  0.00  0.00    +0.030 A 
ATOM     15  C   UNL     1      -0.254   1.835   0.243  0.00  0.00    +0.025 A 
ATOM     16  C   UNL     1       0.761   2.549   0.866  0.00  0.00    +0.034 A 
BRANCH  13  17
ATOM     17  S   UNL     1       0.489  -1.940   1.397  0.00  0.00    +0.056 S 
ATOM     18  O   UNL     1      -0.223  -2.440   0.273  0.00  0.00    -0.153 OA
ATOM     19  O   UNL     1       1.795  -2.389   1.732  0.00  0.00    -0.153 OA
BRANCH  17  20
ATOM     20  N   UNL     1      -0.462  -2.220   2.723  0.00  0.00    -0.204 NA
ATOM     21  H   UNL     1      -0.837  -1.475   3.216  0.00  0.00    +0.144 HD
ATOM     22  H   UNL     1      -0.644  -3.130   3.006  0.00  0.00    +0.144 HD
ENDBRANCH  17  20
ENDBRANCH  13  17
ENDBRANCH   7  16
ENDBRANCH   6   8
ENDBRANCH   1   6
BRANCH   4  23
ATOM     23  S   UNL     1       6.940   6.023   2.733  0.00  0.00    -0.089 S 
BRANCH  23  24
ATOM     24  C   UNL     1       8.334   6.914   1.998  0.00  0.00    +0.172 C 
BRANCH  24  25
ATOM     25  C   UNL     1       9.564   6.705   2.843  0.00  0.00    +0.227 C 
ATOM     26  O   UNL     1       9.505   6.022   3.843  0.00  0.00    -0.275 OA
ATOM     27  N   UNL     1      10.731   7.278   2.487  0.00  0.00    -0.285 N 
ATOM     28  H   UNL     1      10.763   7.884   1.731  0.00  0.00    +0.155 HD
BRANCH  27  29
ATOM     29  C   UNL     1      11.897   6.998   3.210  0.00  0.00    +0.033 A 
ATOM     30  C   UNL     1      12.875   7.973   3.357  0.00  0.00    +0.025 A 
ATOM     31  C   UNL     1      14.022   7.697   4.074  0.00  0.00    +0.022 A 
ATOM     32  C   UNL     1      14.203   6.446   4.637  0.00  0.00    +0.041 A 
ATOM     33  C   UNL     1      13.232   5.471   4.488  0.00  0.00    +0.022 A 
ATOM     34  C   UNL     1      12.081   5.744   3.776  0.00  0.00    +0.025 A 
ATOM     35 CL   UNL     1      15.649   6.099   5.533  0.00  0.00    -0.084 Cl
ENDBRANCH  27  29
ENDBRANCH  24  25
ENDBRANCH  23  24
ENDBRANCH   4  23
TORSDOF 9
