REMARK  Name = ZINC12783993
REMARK  13 active torsions:
REMARK  status: ('A' for Active; 'I' for Inactive)
REMARK    1  A    between atoms: C_1  and  O_2
REMARK    2  A    between atoms: O_2  and  C_3
REMARK    3  A    between atoms: C_3  and  C_5
REMARK    4  A    between atoms: C_6  and  C_15
REMARK    5  A    between atoms: C_7  and  C_11
REMARK    6  A    between atoms: C_9  and  N_10
REMARK    7  A    between atoms: C_11  and  O_13
REMARK    8  A    between atoms: O_13  and  C_14
REMARK    9  A    between atoms: C_15  and  S_16
REMARK   10  A    between atoms: S_16  and  C_17
REMARK   11  A    between atoms: C_20  and  C_28
REMARK   12  A    between atoms: N_21  and  C_22
REMARK   13  A    between atoms: C_22  and  C_23
REMARK                            x       y       z     vdW  Elec       q    Type
REMARK                         _______ _______ _______ _____ _____    ______ ____
ROOT
ATOM      1  S   UNL     1       1.251   4.096   1.748  0.00  0.00    -0.081 S 
ENDROOT
BRANCH   1   2
ATOM      2  C   UNL     1       1.332   5.826   1.425  0.00  0.00    +0.193 A 
ATOM      3  N   UNL     1       1.256   6.404   0.247  0.00  0.00    -0.122 NA
ATOM      4  N   UNL     1       1.347   7.679   0.374  0.00  0.00    -0.128 NA
ATOM      5  C   UNL     1       1.497   7.994   1.639  0.00  0.00    +0.165 A 
ATOM      6  N   UNL     1       1.492   6.817   2.351  0.00  0.00    -0.295 N 
BRANCH   5   7
ATOM      7  C   UNL     1       1.643   9.356   2.195  0.00  0.00    +0.019 A 
ATOM      8  C   UNL     1       1.290  10.467   1.428  0.00  0.00    +0.011 A 
ATOM      9  C   UNL     1       1.425  11.736   1.954  0.00  0.00    +0.001 A 
ATOM     10  C   UNL     1       1.919  11.908   3.235  0.00  0.00    +0.000 A 
ATOM     11  C   UNL     1       2.276  10.811   3.998  0.00  0.00    +0.001 A 
ATOM     12  C   UNL     1       2.142   9.537   3.486  0.00  0.00    +0.011 A 
ENDBRANCH   5   7
BRANCH   6  13
ATOM     13  C   UNL     1       1.630   6.659   3.801  0.00  0.00    +0.200 C 
BRANCH  13  14
ATOM     14  C   UNL     1       3.066   6.348   4.138  0.00  0.00    +0.125 A 
ATOM     15  C   UNL     1       3.992   7.239   4.534  0.00  0.00    +0.046 A 
ATOM     16  C   UNL     1       5.191   6.519   4.743  0.00  0.00    +0.041 A 
ATOM     17  C   UNL     1       4.928   5.232   4.454  0.00  0.00    +0.195 A 
ATOM     18  O   UNL     1       3.639   5.134   4.088  0.00  0.00    -0.466 OA
ENDBRANCH  13  14
ENDBRANCH   6  13
ENDBRANCH   1   2
BRANCH   1  19
ATOM     19  C   UNL     1       1.038   3.471   0.063  0.00  0.00    +0.114 C 
BRANCH  19  21
ATOM     20  C   UNL     1      -0.281   1.329   0.227  0.00  0.00    +0.092 A 
ATOM     21  C   UNL     1       0.942   1.968   0.093  0.00  0.00    -0.000 A 
ATOM     22  C   UNL     1       2.060   1.184  -0.012  0.00  0.00    +0.103 A 
ATOM     23  S   UNL     1       1.393  -0.467   0.078  0.00  0.00    -0.066 S 
ATOM     24  C   UNL     1      -0.286  -0.072   0.246  0.00  0.00    +0.078 A 
BRANCH  24  25
ATOM     25  N   UNL     1      -1.358  -0.923   0.368  0.00  0.00    -0.352 N 
ATOM     26  H   UNL     1      -2.255  -0.564   0.455  0.00  0.00    +0.143 HD
ATOM     27  H   UNL     1      -1.218  -1.883   0.366  0.00  0.00    +0.143 HD
ENDBRANCH  24  25
BRANCH  20  28
ATOM     28  C   UNL     1      -1.527   2.094   0.340  0.00  0.00    +0.342 C 
ATOM     29  O   UNL     1      -1.941   2.425   1.435  0.00  0.00    -0.245 OA
BRANCH  28  31
ATOM     30  C   UNL     1      -3.440   3.187  -0.584  0.00  0.00    +0.280 C 
ATOM     31  O   UNL     1      -2.215   2.430  -0.770  0.00  0.00    -0.464 OA
ENDBRANCH  28  31
ENDBRANCH  20  28
BRANCH  22  32
ATOM     32  C   UNL     1       3.454   1.598  -0.161  0.00  0.00    +0.346 C 
ATOM     33  O   UNL     1       3.735   2.781  -0.206  0.00  0.00    -0.244 OA
BRANCH  32  34
ATOM     34  O   UNL     1       4.428   0.669  -0.249  0.00  0.00    -0.464 OA
ATOM     35  C   UNL     1       5.768   1.145  -0.393  0.00  0.00    +0.280 C 
ENDBRANCH  32  34
ENDBRANCH  22  32
ENDBRANCH  19  21
ENDBRANCH   1  19
TORSDOF 11
