REMARK  Name = ZINC59165478
REMARK  10 active torsions:
REMARK  status: ('A' for Active; 'I' for Inactive)
REMARK    1  A    between atoms: C_1  and  C_2
REMARK    2  A    between atoms: C_3  and  C_17
REMARK    3  A    between atoms: C_4  and  C_16
REMARK    4  A    between atoms: N_5  and  C_7
REMARK    5  A    between atoms: C_10  and  N_13
REMARK    6  A    between atoms: N_18  and  N_19
REMARK    7  A    between atoms: C_20  and  C_22
REMARK    8  A    between atoms: C_22  and  S_23
REMARK    9  A    between atoms: S_23  and  C_24
REMARK   10  A    between atoms: C_24  and  C_25
REMARK                            x       y       z     vdW  Elec       q    Type
REMARK                         _______ _______ _______ _____ _____    ______ ____
ROOT
ATOM      1  C   UNL     1      -0.360   1.476   0.035  0.00  0.00    +0.068 C 
ATOM      2  C   UNL     1      -0.147  -0.016   0.013  0.00  0.00    +0.069 A 
ATOM      3  C   UNL     1      -0.149  -0.836  -1.137  0.00  0.00    +0.038 A 
ATOM      4  C   UNL     1       0.082  -2.129  -0.718  0.00  0.00    +0.051 A 
ATOM      5  N   UNL     1       0.220  -2.099   0.625  0.00  0.00    -0.236 N 
ATOM      6  N   UNL     1       0.078  -0.773   1.053  0.00  0.00    -0.171 NA
ATOM      7  C   UNL     1       0.166  -3.351  -1.596  0.00  0.00    +0.066 C 
ENDROOT
BRANCH   5   8
ATOM      8  C   UNL     1       0.467  -3.204   1.450  0.00  0.00    +0.066 A 
ATOM      9  C   UNL     1      -0.210  -3.339   2.655  0.00  0.00    +0.030 A 
ATOM     10  C   UNL     1       0.035  -4.430   3.465  0.00  0.00    +0.035 A 
ATOM     11  C   UNL     1       0.954  -5.388   3.078  0.00  0.00    +0.126 A 
ATOM     12  C   UNL     1       1.629  -5.257   1.879  0.00  0.00    +0.035 A 
ATOM     13  C   UNL     1       1.384  -4.171   1.061  0.00  0.00    +0.030 A 
BRANCH  11  14
ATOM     14  N   UNL     1       1.215  -6.556   3.949  0.00  0.00    +0.056 N 
ATOM     15  O   UNL     1       0.625  -6.671   4.998  0.00  0.00    -0.126 OA
ATOM     16  O   UNL     1       2.018  -7.394   3.612  0.00  0.00    -0.126 OA
ENDBRANCH  11  14
ENDBRANCH   5   8
BRANCH   3  17
ATOM     17  C   UNL     1      -0.360  -0.392  -2.528  0.00  0.00    +0.142 C 
ATOM     18  N   UNL     1      -0.568   0.863  -2.784  0.00  0.00    -0.188 NA
BRANCH  18  19
ATOM     19  N   UNL     1      -0.768   1.284  -4.105  0.00  0.00    -0.206 N 
ATOM     20  C   UNL     1      -0.984   2.588  -4.371  0.00  0.00    +0.242 C 
ATOM     21  O   UNL     1      -1.006   3.396  -3.466  0.00  0.00    -0.273 OA
ATOM     22  H   UNL     1      -0.751   0.638  -4.828  0.00  0.00    +0.177 HD
BRANCH  20  23
ATOM     23  C   UNL     1      -1.200   3.041  -5.792  0.00  0.00    +0.166 C 
BRANCH  23  24
ATOM     24  S   UNL     1      -1.462   4.836  -5.820  0.00  0.00    -0.147 S 
BRANCH  24  25
ATOM     25  C   UNL     1      -1.702   5.216  -7.578  0.00  0.00    +0.104 C 
BRANCH  25  26
ATOM     26  C   UNL     1      -1.933   6.696  -7.744  0.00  0.00    -0.038 A 
ATOM     27  C   UNL     1      -3.217   7.205  -7.691  0.00  0.00    +0.004 A 
ATOM     28  C   UNL     1      -3.429   8.563  -7.844  0.00  0.00    +0.000 A 
ATOM     29  C   UNL     1      -2.357   9.411  -8.050  0.00  0.00    +0.000 A 
ATOM     30  C   UNL     1      -1.073   8.902  -8.102  0.00  0.00    +0.000 A 
ATOM     31  C   UNL     1      -0.861   7.545  -7.945  0.00  0.00    +0.004 A 
ENDBRANCH  25  26
ENDBRANCH  24  25
ENDBRANCH  23  24
ENDBRANCH  20  23
ENDBRANCH  18  19
ENDBRANCH   3  17
TORSDOF 8
