REMARK  Name = ZINC63182442
REMARK  12 active torsions:
REMARK  status: ('A' for Active; 'I' for Inactive)
REMARK    1  A    between atoms: C_1  and  C_2
REMARK    2  A    between atoms: C_2  and  N_3
REMARK    3  A    between atoms: N_3  and  C_4
REMARK    4  A    between atoms: N_3  and  S_6
REMARK    5  A    between atoms: C_4  and  C_5
REMARK    6  A    between atoms: S_6  and  C_9
REMARK    7  A    between atoms: C_12  and  C_15
REMARK    8  A    between atoms: C_15  and  N_16
REMARK    9  A    between atoms: C_17  and  C_19
REMARK   10  A    between atoms: C_19  and  S_20
REMARK   11  A    between atoms: S_20  and  C_21
REMARK   12  A    between atoms: C_24  and  C_26
REMARK                            x       y       z     vdW  Elec       q    Type
REMARK                         _______ _______ _______ _____ _____    ______ ____
ROOT
ATOM      1  N   UNL     1       4.449   5.249   2.708  0.00  0.00    -0.311 N 
ATOM      2  C   UNL     1       4.912   6.473   3.030  0.00  0.00    +0.224 C 
ATOM      3  O   UNL     1       6.106   6.676   3.083  0.00  0.00    -0.275 OA
ATOM      4  H   UNL     1       3.494   5.087   2.665  0.00  0.00    +0.149 HD
ENDROOT
BRANCH   1   5
ATOM      5  C   UNL     1       5.390   4.163   2.421  0.00  0.00    +0.139 C 
BRANCH   5   9
ATOM      6  C   UNL     1       3.218   0.606   1.484  0.00  0.00    +0.105 A 
ATOM      7  C   UNL     1       3.568   1.488   0.478  0.00  0.00    +0.029 A 
ATOM      8  C   UNL     1       4.271   2.639   0.781  0.00  0.00    +0.007 A 
ATOM      9  C   UNL     1       4.623   2.909   2.091  0.00  0.00    -0.030 A 
ATOM     10  C   UNL     1       4.272   2.028   3.096  0.00  0.00    +0.007 A 
ATOM     11  C   UNL     1       3.565   0.879   2.794  0.00  0.00    +0.029 A 
BRANCH   6  12
ATOM     12  S   UNL     1       2.322  -0.861   1.097  0.00  0.00    +0.061 S 
ATOM     13  O   UNL     1       2.586  -1.786   2.143  0.00  0.00    -0.153 OA
ATOM     14  O   UNL     1       2.594  -1.155  -0.266  0.00  0.00    -0.153 OA
BRANCH  12  15
ATOM     15  N   UNL     1       0.711  -0.489   1.189  0.00  0.00    -0.177 NA
BRANCH  15  17
ATOM     16  C   UNL     1      -0.019   1.526   0.010  0.00  0.00    +0.022 C 
ATOM     17  C   UNL     1       0.002  -0.004   0.002  0.00  0.00    +0.106 C 
ENDBRANCH  15  17
BRANCH  15  18
ATOM     18  C   UNL     1      -0.006  -0.646   2.457  0.00  0.00    +0.106 C 
ATOM     19  C   UNL     1      -0.694  -2.013   2.489  0.00  0.00    +0.022 C 
ENDBRANCH  15  18
ENDBRANCH  12  15
ENDBRANCH   6  12
ENDBRANCH   5   9
ENDBRANCH   1   5
BRANCH   2  20
ATOM     20  C   UNL     1       3.945   7.591   3.325  0.00  0.00    +0.174 C 
BRANCH  20  21
ATOM     21  S   UNL     1       4.868   9.101   3.723  0.00  0.00    -0.056 S 
BRANCH  21  22
ATOM     22  C   UNL     1       3.613  10.297   4.039  0.00  0.00    +0.278 A 
ATOM     23  N   UNL     1       2.306  10.091   3.991  0.00  0.00    -0.101 NA
ATOM     24  N   UNL     1       1.691  11.184   4.277  0.00  0.00    -0.107 NA
ATOM     25  C   UNL     1       2.580  12.134   4.520  0.00  0.00    +0.248 A 
ATOM     26  O   UNL     1       3.809  11.583   4.378  0.00  0.00    -0.411 OA
BRANCH  25  27
ATOM     27  C   UNL     1       2.300  13.464   4.866  0.00  0.00    +0.044 C 
ATOM     28  C   UNL     1       1.044  14.047   5.029  0.00  0.00    +0.008 A 
ATOM     29  C   UNL     1      -0.267  13.537   4.909  0.00  0.00    +0.010 A 
ATOM     30  C   UNL     1      -1.330  14.352   5.130  0.00  0.00    +0.001 A 
ATOM     31  C   UNL     1      -1.162  15.695   5.476  0.00  0.00    +0.002 A 
ATOM     32  C   UNL     1       0.067  16.251   5.609  0.00  0.00    +0.026 A 
ATOM     33  C   UNL     1       1.226  15.461   5.394  0.00  0.00    +0.043 A 
ATOM     34  N   UNL     1       2.508  15.759   5.459  0.00  0.00    -0.380 N 
ATOM     35  C   UNL     1       3.299  14.565   5.148  0.00  0.00    +0.154 C 
ATOM     36  H   UNL     1       2.872  16.631   5.680  0.00  0.00    +0.160 HD
ENDBRANCH  25  27
ENDBRANCH  21  22
ENDBRANCH  20  21
ENDBRANCH   2  20
TORSDOF 10
