REMARK  Name = ZINC43226153
REMARK  8 active torsions:
REMARK  status: ('A' for Active; 'I' for Inactive)
REMARK    1  A    between atoms: C_1  and  C_2
REMARK    2  A    between atoms: C_2  and  C_3
REMARK    3  A    between atoms: C_3  and  C_4
REMARK    4  A    between atoms: C_5  and  C_26
REMARK    5  A    between atoms: C_6  and  C_16
REMARK    6  A    between atoms: N_8  and  C_9
REMARK    7  A    between atoms: C_19  and  N_23
REMARK    8  A    between atoms: C_20  and  O_22
REMARK                            x       y       z     vdW  Elec       q    Type
REMARK                         _______ _______ _______ _____ _____    ______ ____
ROOT
ATOM      1  C   UNL     1       0.676  -2.062  -1.769  0.00  0.00    +0.060 A 
ATOM      2  C   UNL     1       1.664  -2.818  -1.164  0.00  0.00    +0.112 A 
ATOM      3  C   UNL     1       1.059  -4.120  -0.861  0.00  0.00    +0.108 A 
ATOM      4  N   UNL     1      -0.186  -4.072  -1.278  0.00  0.00    -0.165 NA
ATOM      5  N   UNL     1      -0.435  -2.813  -1.832  0.00  0.00    -0.235 N 
ENDROOT
BRANCH   5   6
ATOM      6  C   UNL     1      -1.659  -2.398  -2.373  0.00  0.00    +0.066 A 
ATOM      7  C   UNL     1      -2.174  -1.149  -2.053  0.00  0.00    +0.029 A 
ATOM      8  C   UNL     1      -3.381  -0.743  -2.588  0.00  0.00    +0.022 A 
ATOM      9  C   UNL     1      -4.076  -1.579  -3.443  0.00  0.00    +0.041 A 
ATOM     10  C   UNL     1      -3.565  -2.825  -3.764  0.00  0.00    +0.022 A 
ATOM     11  C   UNL     1      -2.356  -3.233  -3.236  0.00  0.00    +0.029 A 
ATOM     12 CL   UNL     1      -5.593  -1.065  -4.114  0.00  0.00    -0.084 Cl
ENDBRANCH   5   6
BRANCH   3  13
ATOM     13  C   UNL     1       1.726  -5.272  -0.208  0.00  0.00    +0.007 A 
ATOM     14  C   UNL     1       2.530  -5.071   0.913  0.00  0.00    +0.012 A 
ATOM     15  C   UNL     1       3.150  -6.145   1.519  0.00  0.00    +0.037 A 
ATOM     16  C   UNL     1       2.977  -7.421   1.017  0.00  0.00    +0.167 A 
ATOM     17  C   UNL     1       2.178  -7.630  -0.099  0.00  0.00    +0.148 A 
ATOM     18  C   UNL     1       1.547  -6.559  -0.710  0.00  0.00    +0.057 A 
BRANCH  16  19
ATOM     19  N   UNL     1       3.645  -8.568   1.672  0.00  0.00    +0.060 N 
ATOM     20  O   UNL     1       4.341  -8.388   2.643  0.00  0.00    -0.126 OA
ATOM     21  O   UNL     1       3.495  -9.685   1.234  0.00  0.00    -0.126 OA
ENDBRANCH  16  19
BRANCH  17  22
ATOM     22  O   UNL     1       2.011  -8.887  -0.588  0.00  0.00    -0.504 OA
ATOM     23  H   UNL     1       1.259  -9.361  -0.206  0.00  0.00    +0.292 HD
ENDBRANCH  17  22
ENDBRANCH   3  13
BRANCH   2  24
ATOM     24  C   UNL     1       3.043  -2.400  -0.882  0.00  0.00    +0.390 C 
ATOM     25  O   UNL     1       3.389  -1.246  -1.097  0.00  0.00    -0.240 OA
ATOM     26  O   UNL     1       3.846  -3.206  -0.432  0.00  0.00    -0.240 OA
ENDBRANCH   2  24
BRANCH   1  27
ATOM     27  C   UNL     1       0.820  -0.646  -2.263  0.00  0.00    +0.056 C 
BRANCH  27  29
ATOM     28  C   UNL     1       1.285   0.773  -4.266  0.00  0.00    +0.004 C 
ATOM     29  C   UNL     1       1.258  -0.659  -3.729  0.00  0.00    +0.003 C 
ENDBRANCH  27  29
ENDBRANCH   1  27
TORSDOF 7
