REMARK  Name = ZINC00175951
REMARK  8 active torsions:
REMARK  status: ('A' for Active; 'I' for Inactive)
REMARK    1  A    between atoms: C_1  and  C_2
REMARK    2  A    between atoms: C_3  and  C_18
REMARK    3  A    between atoms: C_4  and  C_11
REMARK    4  A    between atoms: N_9  and  C_10
REMARK    5  A    between atoms: C_18  and  O_20
REMARK    6  A    between atoms: O_20  and  C_21
REMARK    7  A    between atoms: C_21  and  C_22
REMARK    8  A    between atoms: C_21  and  C_23
REMARK                            x       y       z     vdW  Elec       q    Type
REMARK                         _______ _______ _______ _____ _____    ______ ____
ROOT
ATOM      1  C   UNL     1       2.471  -0.199  -0.202  0.00  0.00    +0.061 C 
ATOM      2  C   UNL     1       2.413   1.304  -0.105  0.00  0.00    +0.024 C 
ATOM      3  C   UNL     1       1.266   1.946  -0.417  0.00  0.00    +0.078 C 
ATOM      4  C   UNL     1       1.254   3.458  -0.311  0.00  0.00    +0.143 C 
ATOM      5  N   UNL     1       2.498   4.106   0.135  0.00  0.00    -0.288 N 
ATOM      6  C   UNL     1       3.563   3.328   0.411  0.00  0.00    +0.307 C 
ATOM      7  O   UNL     1       4.596   3.854   0.777  0.00  0.00    -0.252 OA
ATOM      8  N   UNL     1       3.521   1.994   0.296  0.00  0.00    -0.262 N 
ATOM      9  C   UNL     1       4.730   1.234   0.619  0.00  0.00    +0.139 C 
ATOM     10  H   UNL     1       2.551   5.070   0.225  0.00  0.00    +0.151 HD
ENDROOT
BRANCH   4  11
ATOM     11  C   UNL     1       0.161   3.847   0.650  0.00  0.00    -0.022 A 
ATOM     12  C   UNL     1       0.378   3.764   2.013  0.00  0.00    +0.007 A 
ATOM     13  C   UNL     1      -0.623   4.126   2.896  0.00  0.00    +0.020 A 
ATOM     14  C   UNL     1      -1.845   4.562   2.415  0.00  0.00    +0.041 A 
ATOM     15  C   UNL     1      -2.063   4.639   1.051  0.00  0.00    +0.020 A 
ATOM     16  C   UNL     1      -1.060   4.282   0.169  0.00  0.00    +0.007 A 
ATOM     17 CL   UNL     1      -3.104   5.010   3.523  0.00  0.00    -0.084 Cl
ENDBRANCH   4  11
BRANCH   3  18
ATOM     18  C   UNL     1       0.118   1.232  -0.833  0.00  0.00    +0.339 C 
ATOM     19  O   UNL     1       0.164   0.022  -0.950  0.00  0.00    -0.245 OA
BRANCH  18  20
ATOM     20  O   UNL     1      -1.026   1.894  -1.105  0.00  0.00    -0.459 OA
BRANCH  20  21
ATOM     21  C   UNL     1      -2.144   1.110  -1.526  0.00  0.00    +0.171 C 
ATOM     22  C   UNL     1      -3.440   1.792  -1.084  0.00  0.00    +0.052 C 
ATOM     23  C   UNL     1      -2.130   0.979  -3.050  0.00  0.00    +0.052 C 
ENDBRANCH  20  21
ENDBRANCH  18  20
ENDBRANCH   3  18
TORSDOF 4
