REMARK  Name = ZINC15210075
REMARK  8 active torsions:
REMARK  status: ('A' for Active; 'I' for Inactive)
REMARK    1  A    between atoms: C_1  and  C_2
REMARK    2  A    between atoms: C_5  and  C_31
REMARK    3  A    between atoms: N_8  and  S_10
REMARK    4  A    between atoms: S_10  and  C_13
REMARK    5  A    between atoms: C_16  and  N_22
REMARK    6  A    between atoms: C_17  and  N_19
REMARK    7  A    between atoms: C_26  and  C_29
REMARK    8  A    between atoms: C_29  and  O_30
REMARK                            x       y       z     vdW  Elec       q    Type
REMARK                         _______ _______ _______ _____ _____    ______ ____
ROOT
ATOM      1  C   UNL     1       2.422  -3.409  -0.243  0.00  0.00    +0.108 A 
ATOM      2  C   UNL     1       2.084  -4.494  -1.032  0.00  0.00    +0.030 A 
ATOM      3  C   UNL     1       2.637  -4.632  -2.290  0.00  0.00    +0.027 A 
ATOM      4  C   UNL     1       3.533  -3.682  -2.762  0.00  0.00    +0.060 A 
ATOM      5  C   UNL     1       3.870  -2.594  -1.966  0.00  0.00    +0.149 A 
ATOM      6  C   UNL     1       3.309  -2.459  -0.711  0.00  0.00    +0.063 A 
ENDROOT
BRANCH   4   7
ATOM      7  N   UNL     1       4.094  -3.819  -4.034  0.00  0.00    -0.328 N 
ATOM      8  C   UNL     1       3.392  -3.313  -5.221  0.00  0.00    +0.105 C 
ATOM      9  C   UNL     1       3.269  -4.448  -6.242  0.00  0.00    +0.019 C 
ATOM     10  C   UNL     1       4.658  -5.022  -6.531  0.00  0.00    +0.009 C 
ATOM     11  C   UNL     1       5.253  -5.594  -5.242  0.00  0.00    +0.032 C 
ATOM     12  C   UNL     1       5.401  -4.467  -4.209  0.00  0.00    +0.111 C 
BRANCH  11  13
ATOM     13  C   UNL     1       6.628  -6.198  -5.538  0.00  0.00    +0.160 C 
BRANCH  13  14
ATOM     14  O   UNL     1       6.478  -7.317  -6.414  0.00  0.00    -0.395 OA
ATOM     15  H   UNL     1       7.311  -7.750  -6.646  0.00  0.00    +0.209 HD
ENDBRANCH  13  14
ENDBRANCH  11  13
ENDBRANCH   4   7
BRANCH   1  16
ATOM     16  S   UNL     1       1.713  -3.236   1.361  0.00  0.00    +0.061 S 
ATOM     17  O   UNL     1       2.604  -2.422   2.112  0.00  0.00    -0.153 OA
ATOM     18  O   UNL     1       1.335  -4.540   1.781  0.00  0.00    -0.153 OA
BRANCH  16  24
ATOM     19  C   UNL     1      -0.456   1.192   0.157  0.00  0.00    +0.009 C 
ATOM     20  C   UNL     1      -0.337  -0.327   0.020  0.00  0.00    +0.002 C 
ATOM     21  C   UNL     1      -1.731  -0.937  -0.143  0.00  0.00    +0.009 C 
ATOM     22  C   UNL     1      -1.610  -2.453  -0.312  0.00  0.00    +0.002 C 
ATOM     23  C   UNL     1      -0.964  -3.053   0.940  0.00  0.00    +0.112 C 
ATOM     24  N   UNL     1       0.313  -2.370   1.187  0.00  0.00    -0.176 NA
ATOM     25  C   UNL     1       0.325  -0.903   1.277  0.00  0.00    +0.112 C 
ATOM     26  C   UNL     1      -3.002  -3.057  -0.509  0.00  0.00    +0.009 C 
ENDBRANCH  16  24
ENDBRANCH   1  16
BRANCH   5  27
ATOM     27  N   UNL     1       4.825  -1.579  -2.465  0.00  0.00    +0.058 N 
ATOM     28  O   UNL     1       5.194  -0.688  -1.736  0.00  0.00    -0.126 OA
ATOM     29  O   UNL     1       5.235  -1.641  -3.600  0.00  0.00    -0.126 OA
ENDBRANCH   5  27
TORSDOF 6
