REMARK  Name = ZINC58391595
REMARK  9 active torsions:
REMARK  status: ('A' for Active; 'I' for Inactive)
REMARK    1  A    between atoms: C_1  and  C_2
REMARK    2  A    between atoms: C_4  and  N_16
REMARK    3  A    between atoms: C_6  and  C_7
REMARK    4  A    between atoms: C_7  and  N_9
REMARK    5  A    between atoms: N_11  and  C_15
REMARK    6  A    between atoms: C_17  and  C_19
REMARK    7  A    between atoms: C_19  and  C_20
REMARK    8  A    between atoms: C_19  and  C_21
REMARK    9  A    between atoms: C_19  and  C_22
REMARK                            x       y       z     vdW  Elec       q    Type
REMARK                         _______ _______ _______ _____ _____    ______ ____
ROOT
ATOM      1  C   UNL     1      -0.074   1.440  -0.017  0.00  0.00    +0.045 C 
ATOM      2  C   UNL     1      -0.129  -0.065   0.025  0.00  0.00    -0.029 A 
ATOM      3  C   UNL     1      -0.223  -0.795  -1.131  0.00  0.00    +0.035 A 
ATOM      4  C   UNL     1      -0.270  -2.162  -1.054  0.00  0.00    +0.073 A 
ATOM      5  S   UNL     1      -0.179  -2.445   0.706  0.00  0.00    -0.069 S 
ATOM      6  C   UNL     1      -0.079  -0.742   1.233  0.00  0.00    +0.081 A 
ENDROOT
BRANCH   4   7
ATOM      7  N   UNL     1      -0.366  -3.091  -2.084  0.00  0.00    -0.280 N 
ATOM      8  C   UNL     1      -0.399  -4.409  -1.802  0.00  0.00    +0.223 C 
ATOM      9  O   UNL     1      -0.346  -4.784  -0.650  0.00  0.00    -0.275 OA
ATOM     10  H   UNL     1      -0.408  -2.791  -3.006  0.00  0.00    +0.155 HD
BRANCH   8  11
ATOM     11  C   UNL     1      -0.502  -5.416  -2.919  0.00  0.00    +0.039 C 
ATOM     12  C   UNL     1      -0.521  -6.828  -2.331  0.00  0.00    +0.020 C 
ATOM     13  C   UNL     1      -1.791  -5.174  -3.706  0.00  0.00    +0.020 C 
ATOM     14  C   UNL     1       0.701  -5.268  -3.852  0.00  0.00    +0.020 C 
ENDBRANCH   8  11
ENDBRANCH   4   7
BRANCH   6  15
ATOM     15  C   UNL     1       0.027  -0.200   2.592  0.00  0.00    +0.276 C 
ATOM     16  O   UNL     1       0.084   1.007   2.765  0.00  0.00    -0.267 OA
BRANCH  15  17
ATOM     17  N   UNL     1       0.061  -1.030   3.643  0.00  0.00    -0.152 NA
ATOM     18  C   UNL     1       1.201  -1.621   3.987  0.00  0.00    +0.165 A 
ATOM     19  N   UNL     1       2.451  -1.403   3.491  0.00  0.00    -0.331 N 
ATOM     20  C   UNL     1       3.490  -2.127   3.990  0.00  0.00    +0.094 A 
ATOM     21  C   UNL     1       3.212  -3.018   4.948  0.00  0.00    +0.066 A 
ATOM     22  S   UNL     1       1.451  -2.816   5.143  0.00  0.00    -0.061 S 
ATOM     23  C   UNL     1       2.674  -0.407   2.440  0.00  0.00    +0.150 C 
ENDBRANCH  15  17
ENDBRANCH   6  15
TORSDOF 4
