REMARK  Name = ZINC38806316
REMARK  11 active torsions:
REMARK  status: ('A' for Active; 'I' for Inactive)
REMARK    1  A    between atoms: C_1  and  C_2
REMARK    2  A    between atoms: C_3  and  C_8
REMARK    3  A    between atoms: C_5  and  C_7
REMARK    4  A    between atoms: N_10  and  C_11
REMARK    5  A    between atoms: C_12  and  C_24
REMARK    6  A    between atoms: C_16  and  C_22
REMARK    7  A    between atoms: C_16  and  C_23
REMARK    8  A    between atoms: C_18  and  C_20
REMARK    9  A    between atoms: C_18  and  C_21
REMARK   10  A    between atoms: C_24  and  O_26
REMARK   11  A    between atoms: O_26  and  C_27
REMARK                            x       y       z     vdW  Elec       q    Type
REMARK                         _______ _______ _______ _____ _____    ______ ____
ROOT
ATOM      1  C   UNL     1      -0.014  -0.706  -4.893  0.00  0.00    +0.087 A 
ATOM      2  C   UNL     1      -0.009  -1.473  -6.053  0.00  0.00    +0.091 A 
ATOM      3  C   UNL     1      -0.021  -0.758  -7.310  0.00  0.00    -0.024 A 
ATOM      4  C   UNL     1      -0.033   0.591  -7.192  0.00  0.00    -0.016 A 
ATOM      5  S   UNL     1      -0.040   0.879  -5.448  0.00  0.00    -0.079 S 
ATOM      6  C   UNL     1      -0.031   1.576  -8.312  0.00  0.00    -0.041 C 
ATOM      7  N   UNL     1      -0.235   0.941  -9.613  0.00  0.00    +0.389 N 
ATOM      8  C   UNL     1      -0.815  -0.395  -9.604  0.00  0.00    -0.069 C 
ATOM      9  C   UNL     1      -0.030  -1.359  -8.706  0.00  0.00    +0.024 C 
ATOM     10  C   UNL     1      -2.277  -0.358  -9.155  0.00  0.00    -0.010 C 
ATOM     11  C   UNL     1      -0.775  -0.951 -11.041  0.00  0.00    -0.010 C 
ATOM     12  C   UNL     1      -1.115   2.634  -8.064  0.00  0.00    -0.005 C 
ATOM     13  C   UNL     1       1.334   2.292  -8.322  0.00  0.00    -0.005 C 
ATOM     14  H   UNL     1      -0.830   1.548 -10.180  0.00  0.00    -0.084 HD
ATOM     15  H   UNL     1       0.662   0.903 -10.101  0.00  0.00    -0.084 HD
ENDROOT
BRANCH   1  18
ATOM     16  C   UNL     1      -0.008  -0.260  -2.569  0.00  0.00    +0.257 C 
ATOM     17  O   UNL     1      -0.026   0.933  -2.808  0.00  0.00    -0.269 OA
ATOM     18  N   UNL     1      -0.001  -1.149  -3.582  0.00  0.00    -0.275 N 
ATOM     19  H   UNL     1       0.014  -2.101  -3.392  0.00  0.00    +0.156 HD
BRANCH  16  22
ATOM     20  C   UNL     1      -0.018   1.503   0.010  0.00  0.00    +0.067 C 
ATOM     21  C   UNL     1       0.002  -0.004   0.002  0.00  0.00    +0.058 A 
ATOM     22  C   UNL     1       0.006  -0.730  -1.181  0.00  0.00    +0.097 A 
ATOM     23  S   UNL     1       0.033  -2.397  -0.539  0.00  0.00    -0.068 S 
ATOM     24  C   UNL     1       0.036  -2.014   1.100  0.00  0.00    +0.076 A 
ATOM     25  N   UNL     1       0.023  -0.701   1.111  0.00  0.00    -0.249 NA
ATOM     26  C   UNL     1       0.055  -2.956   2.276  0.00  0.00    +0.073 C 
ENDBRANCH  16  22
ENDBRANCH   1  18
BRANCH   2  27
ATOM     27  C   UNL     1       0.010  -2.936  -5.991  0.00  0.00    +0.342 C 
ATOM     28  O   UNL     1      -1.036  -3.556  -5.962  0.00  0.00    -0.245 OA
BRANCH  27  29
ATOM     29  O   UNL     1       1.186  -3.595  -5.967  0.00  0.00    -0.464 OA
ATOM     30  C   UNL     1       1.130  -5.021  -5.907  0.00  0.00    +0.280 C 
ENDBRANCH  27  29
ENDBRANCH   2  27
TORSDOF 4
