REMARK  Name = ZINC12250131
REMARK  12 active torsions:
REMARK  status: ('A' for Active; 'I' for Inactive)
REMARK    1  A    between atoms: C_1  and  C_2
REMARK    2  A    between atoms: C_4  and  C_38
REMARK    3  A    between atoms: C_5  and  N_9
REMARK    4  A    between atoms: C_6  and  C_8
REMARK    5  A    between atoms: C_10  and  C_12
REMARK    6  A    between atoms: C_13  and  C_37
REMARK    7  A    between atoms: C_15  and  S_26
REMARK    8  A    between atoms: C_16  and  C_24
REMARK    9  A    between atoms: C_17  and  C_19
REMARK   10  A    between atoms: S_26  and  C_27
REMARK   11  A    between atoms: C_27  and  C_28
REMARK   12  A    between atoms: N_30  and  C_31
REMARK                            x       y       z     vdW  Elec       q    Type
REMARK                         _______ _______ _______ _____ _____    ______ ____
ROOT
ATOM      1  C   UNL     1      -0.126  -0.274  -0.488  0.00  0.00    +0.047 C 
ATOM      2  C   UNL     1       0.535  -1.041  -1.371  0.00  0.00    +0.015 C 
ATOM      3  N   UNL     1       0.597  -2.399  -1.217  0.00  0.00    -0.312 N 
ATOM      4  C   UNL     1      -0.301  -3.043  -0.394  0.00  0.00    +0.080 C 
ATOM      5  C   UNL     1      -1.007  -2.346   0.536  0.00  0.00    +0.072 C 
ATOM      6  C   UNL     1      -0.827  -0.863   0.702  0.00  0.00    +0.134 C 
ATOM      7  C   UNL     1       1.222  -0.396  -2.546  0.00  0.00    +0.061 C 
ATOM      8  H   UNL     1       1.364  -2.978  -1.750  0.00  0.00    +0.152 HD
ENDROOT
BRANCH   6   9
ATOM      9  C   UNL     1      -0.008  -0.600   1.940  0.00  0.00    +0.118 A 
ATOM     10  C   UNL     1      -0.414   0.092   3.019  0.00  0.00    +0.045 A 
ATOM     11  C   UNL     1       0.663   0.092   3.935  0.00  0.00    +0.041 A 
ATOM     12  C   UNL     1       1.663  -0.600   3.360  0.00  0.00    +0.195 A 
ATOM     13  O   UNL     1       1.249  -1.021   2.154  0.00  0.00    -0.467 OA
ENDBRANCH   6   9
BRANCH   1  15
ATOM     14  N   UNL     1      -0.926   1.900   0.113  0.00  0.00    -0.281 N 
ATOM     15  C   UNL     1      -0.168   1.127  -0.689  0.00  0.00    +0.247 C 
ATOM     16  O   UNL     1       0.478   1.633  -1.589  0.00  0.00    -0.270 OA
ATOM     17  H   UNL     1      -1.478   1.449   0.951  0.00  0.00    +0.155 HD
BRANCH  14  22
ATOM     18  C   UNL     1      -1.277   7.482  -0.831  0.00  0.00    +0.044 C 
ATOM     19  C   UNL     1      -1.184   5.999  -0.580  0.00  0.00    -0.050 A 
ATOM     20  C   UNL     1      -2.333   5.231  -0.550  0.00  0.00    +0.008 A 
ATOM     21  C   UNL     1      -2.251   3.872  -0.320  0.00  0.00    -0.029 A 
ATOM     22  C   UNL     1      -1.013   3.276  -0.120  0.00  0.00    +0.040 A 
ATOM     23  C   UNL     1       0.140   4.051  -0.147  0.00  0.00    -0.029 A 
ATOM     24  C   UNL     1       0.051   5.409  -0.381  0.00  0.00    +0.008 A 
ATOM     25  C   UNL     1       1.485   3.410   0.076  0.00  0.00    +0.045 C 
ATOM     26  C   UNL     1      -3.505   3.035  -0.287  0.00  0.00    +0.045 C 
ENDBRANCH  14  22
ENDBRANCH   1  15
BRANCH   5  27
ATOM     27  C   UNL     1      -1.941  -3.038   1.373  0.00  0.00    +0.098 C 
ATOM     28  N   UNL     1      -2.682  -3.586   2.036  0.00  0.00    -0.191 NA
ENDBRANCH   5  27
BRANCH   4  29
ATOM     29  S   UNL     1      -0.536  -4.782  -0.548  0.00  0.00    -0.100 S 
BRANCH  29  30
ATOM     30  C   UNL     1       0.624  -5.139  -1.891  0.00  0.00    +0.171 C 
BRANCH  30  31
ATOM     31  C   UNL     1       0.593  -6.612  -2.204  0.00  0.00    +0.227 C 
ATOM     32  O   UNL     1      -0.142  -7.349  -1.580  0.00  0.00    -0.275 OA
ATOM     33  N   UNL     1       1.381  -7.112  -3.176  0.00  0.00    -0.285 N 
ATOM     34  H   UNL     1       2.112  -6.462  -3.680  0.00  0.00    +0.155 HD
BRANCH  33  35
ATOM     35  C   UNL     1       1.270  -8.457  -3.545  0.00  0.00    +0.033 A 
ATOM     36  C   UNL     1       2.370  -9.131  -4.057  0.00  0.00    +0.023 A 
ATOM     37  C   UNL     1       2.258 -10.460  -4.416  0.00  0.00    +0.002 A 
ATOM     38  C   UNL     1       1.049 -11.116  -4.276  0.00  0.00    +0.000 A 
ATOM     39  C   UNL     1      -0.050 -10.446  -3.772  0.00  0.00    +0.002 A 
ATOM     40  C   UNL     1       0.056  -9.118  -3.406  0.00  0.00    +0.023 A 
ENDBRANCH  33  35
ENDBRANCH  30  31
ENDBRANCH  29  30
ENDBRANCH   4  29
TORSDOF 8
