REMARK  Name = ZINC11396111
REMARK  13 active torsions:
REMARK  status: ('A' for Active; 'I' for Inactive)
REMARK    1  A    between atoms: C_1  and  C_2
REMARK    2  A    between atoms: C_2  and  O_3
REMARK    3  A    between atoms: O_3  and  C_4
REMARK    4  A    between atoms: C_4  and  C_6
REMARK    5  A    between atoms: C_7  and  C_34
REMARK    6  A    between atoms: C_11  and  N_33
REMARK    7  A    between atoms: C_13  and  C_15
REMARK    8  A    between atoms: C_15  and  O_16
REMARK    9  A    between atoms: O_16  and  C_17
REMARK   10  A    between atoms: C_17  and  C_19
REMARK   11  A    between atoms: C_19  and  C_20
REMARK   12  A    between atoms: C_20  and  C_21
REMARK   13  A    between atoms: C_21  and  C_23
REMARK                            x       y       z     vdW  Elec       q    Type
REMARK                         _______ _______ _______ _____ _____    ______ ____
ROOT
ATOM      1  C   UNL     1       1.232   3.545   0.009  0.00  0.00    +0.112 A 
ATOM      2  C   UNL     1       1.268   4.362   1.098  0.00  0.00    +0.119 A 
ATOM      3  O   UNL     1       1.319   5.641   0.703  0.00  0.00    -0.441 OA
ATOM      4  C   UNL     1       1.310   5.741  -0.637  0.00  0.00    +0.233 A 
ATOM      5  C   UNL     1       1.256   4.441  -1.160  0.00  0.00    +0.094 A 
ATOM      6  C   UNL     1       1.236   4.269  -2.548  0.00  0.00    +0.132 A 
ATOM      7  N   UNL     1       1.269   5.353  -3.319  0.00  0.00    -0.213 NA
ATOM      8  C   UNL     1       1.321   6.560  -2.788  0.00  0.00    +0.172 A 
ATOM      9  N   UNL     1       1.341   6.764  -1.488  0.00  0.00    -0.193 NA
ATOM     10  C   UNL     1       1.256   3.897   2.532  0.00  0.00    +0.087 C 
ENDROOT
BRANCH   6  11
ATOM     11  N   UNL     1       1.182   3.003  -3.105  0.00  0.00    -0.342 N 
ATOM     12  H   UNL     1       1.158   2.221  -2.531  0.00  0.00    +0.144 HD
ATOM     13  H   UNL     1       1.169   2.897  -4.069  0.00  0.00    +0.144 HD
ENDBRANCH   6  11
BRANCH   1  14
ATOM     14  C   UNL     1       1.175   2.076   0.002  0.00  0.00    +0.343 C 
ATOM     15  O   UNL     1       2.204   1.428  -0.011  0.00  0.00    -0.245 OA
BRANCH  14  16
ATOM     16  O   UNL     1      -0.018   1.448   0.010  0.00  0.00    -0.461 OA
BRANCH  16  18
ATOM     17  C   UNL     1      -1.433  -0.534   0.013  0.00  0.00    +0.048 C 
ATOM     18  C   UNL     1       0.002  -0.004   0.002  0.00  0.00    +0.229 C 
ENDBRANCH  16  18
ENDBRANCH  14  16
ENDBRANCH   1  14
BRANCH   8  19
ATOM     19  C   UNL     1       1.357   7.753  -3.708  0.00  0.00    +0.308 C 
BRANCH  19  20
ATOM     20  O   UNL     1       2.736   8.084  -4.017  0.00  0.00    -0.457 OA
BRANCH  20  21
ATOM     21  C   UNL     1       2.944   9.131  -4.831  0.00  0.00    +0.308 C 
ATOM     22  O   UNL     1       2.004   9.750  -5.271  0.00  0.00    -0.251 OA
BRANCH  21  23
ATOM     23  C   UNL     1       4.349   9.534  -5.196  0.00  0.00    +0.128 C 
BRANCH  23  24
ATOM     24  C   UNL     1       4.306  10.747  -6.128  0.00  0.00    +0.091 C 
BRANCH  24  25
ATOM     25  C   UNL     1       5.712  11.150  -6.493  0.00  0.00    +0.164 C 
ATOM     26  O   UNL     1       6.655  10.529  -6.052  0.00  0.00    -0.292 OA
BRANCH  25  27
ATOM     27  C   UNL     1       5.939  12.298  -7.386  0.00  0.00    +0.018 A 
ATOM     28  C   UNL     1       4.856  13.016  -7.903  0.00  0.00    +0.011 A 
ATOM     29  C   UNL     1       5.085  14.088  -8.733  0.00  0.00    +0.004 A 
ATOM     30  C   UNL     1       6.382  14.460  -9.074  0.00  0.00    -0.044 A 
ATOM     31  C   UNL     1       7.455  13.757  -8.569  0.00  0.00    -0.044 A 
ATOM     32  C   UNL     1       7.238  12.677  -7.728  0.00  0.00    +0.015 A 
ATOM     33  C   UNL     1       8.883  14.114  -8.891  0.00  0.00    +0.035 C 
ATOM     34  C   UNL     1       8.947  15.008 -10.128  0.00  0.00    +0.005 C 
ATOM     35  C   UNL     1       7.976  16.178  -9.929  0.00  0.00    +0.005 C 
ATOM     36  C   UNL     1       6.549  15.637 -10.001  0.00  0.00    +0.035 C 
ENDBRANCH  25  27
ENDBRANCH  24  25
ENDBRANCH  23  24
ENDBRANCH  21  23
ENDBRANCH  20  21
ENDBRANCH  19  20
ENDBRANCH   8  19
TORSDOF 11
