REMARK  Name = ZINC09403221
REMARK  8 active torsions:
REMARK  status: ('A' for Active; 'I' for Inactive)
REMARK    1  A    between atoms: C_3  and  C_9
REMARK    2  A    between atoms: N_11  and  C_12
REMARK    3  A    between atoms: C_12  and  C_13
REMARK    4  A    between atoms: C_13  and  O_15
REMARK    5  A    between atoms: O_15  and  C_16
REMARK    6  A    between atoms: C_16  and  C_17
REMARK    7  A    between atoms: N_19  and  C_20
REMARK    8  A    between atoms: C_25  and  N_26
REMARK                            x       y       z     vdW  Elec       q    Type
REMARK                         _______ _______ _______ _____ _____    ______ ____
ROOT
ATOM      1  O   UNL     1       2.396   1.053  -0.019  0.00  0.00    -0.454 OA
ENDROOT
BRANCH   1   2
ATOM      2  C   UNL     1       3.629   1.583  -0.038  0.00  0.00    +0.325 C 
ATOM      3  O   UNL     1       3.771   2.783  -0.049  0.00  0.00    -0.249 OA
BRANCH   2   4
ATOM      4  C   UNL     1       4.837   0.681  -0.048  0.00  0.00    +0.225 C 
BRANCH   4   7
ATOM      5  C   UNL     1       7.263   0.900  -0.080  0.00  0.00    +0.246 C 
ATOM      6  O   UNL     1       7.344  -0.313  -0.073  0.00  0.00    -0.270 OA
ATOM      7  N   UNL     1       6.054   1.496  -0.069  0.00  0.00    -0.301 N 
ATOM      8  H   UNL     1       5.990   2.464  -0.075  0.00  0.00    +0.150 HD
BRANCH   5  11
ATOM      9  C   UNL     1       9.551   3.876  -0.130  0.00  0.00    +0.021 A 
ATOM     10  C   UNL     1       8.402   3.115  -0.110  0.00  0.00    +0.016 A 
ATOM     11  C   UNL     1       8.491   1.722  -0.102  0.00  0.00    +0.055 A 
ATOM     12  C   UNL     1       9.746   1.107  -0.108  0.00  0.00    +0.054 A 
ATOM     13  C   UNL     1      10.889   1.881  -0.134  0.00  0.00    +0.040 A 
ATOM     14  C   UNL     1      10.793   3.262  -0.141  0.00  0.00    +0.042 A 
ATOM     15 CL   UNL     1      12.235   4.229  -0.166  0.00  0.00    -0.083 Cl
ATOM     16 CL   UNL     1       9.868  -0.624  -0.090  0.00  0.00    -0.083 Cl
ENDBRANCH   5  11
ENDBRANCH   4   7
ENDBRANCH   2   4
ENDBRANCH   1   2
BRANCH   1  17
ATOM     17  C   UNL     1       1.280   1.981  -0.011  0.00  0.00    +0.328 C 
BRANCH  17  18
ATOM     18  C   UNL     1      -0.015   1.210   0.011  0.00  0.00    +0.255 C 
ATOM     19  O   UNL     1       0.002  -0.003   0.019  0.00  0.00    -0.272 OA
ATOM     20  N   UNL     1      -1.191   1.868   0.016  0.00  0.00    -0.281 N 
ATOM     21  H   UNL     1      -1.206   2.835   0.090  0.00  0.00    +0.155 HD
BRANCH  20  22
ATOM     22  C   UNL     1      -2.392   1.155  -0.087  0.00  0.00    +0.064 A 
ATOM     23  C   UNL     1      -2.411  -0.091  -0.700  0.00  0.00    +0.027 A 
ATOM     24  C   UNL     1      -3.597  -0.791  -0.799  0.00  0.00    +0.022 A 
ATOM     25  C   UNL     1      -4.765  -0.253  -0.289  0.00  0.00    +0.043 A 
ATOM     26  C   UNL     1      -4.748   0.988   0.322  0.00  0.00    +0.054 A 
ATOM     27  C   UNL     1      -3.564   1.691   0.428  0.00  0.00    +0.149 A 
ATOM     28 CL   UNL     1      -6.254  -1.137  -0.416  0.00  0.00    -0.083 Cl
BRANCH  27  29
ATOM     29  N   UNL     1      -3.546   3.017   1.087  0.00  0.00    +0.058 N 
ATOM     30  O   UNL     1      -4.554   3.446   1.619  0.00  0.00    -0.126 OA
ATOM     31  O   UNL     1      -2.523   3.677   1.098  0.00  0.00    -0.126 OA
ENDBRANCH  27  29
ENDBRANCH  20  22
ENDBRANCH  17  18
ENDBRANCH   1  17
TORSDOF 8
