REMARK  Name = ZINC19356715
REMARK  11 active torsions:
REMARK  status: ('A' for Active; 'I' for Inactive)
REMARK    1  A    between atoms: C_1  and  C_2
REMARK    2  A    between atoms: C_2  and  O_3
REMARK    3  A    between atoms: O_3  and  C_4
REMARK    4  A    between atoms: C_4  and  C_6
REMARK    5  A    between atoms: C_7  and  C_19
REMARK    6  A    between atoms: C_12  and  C_14
REMARK    7  A    between atoms: C_19  and  O_20
REMARK    8  A    between atoms: O_20  and  C_21
REMARK    9  A    between atoms: C_21  and  C_23
REMARK   10  A    between atoms: C_24  and  C_34
REMARK   11  A    between atoms: C_32  and  C_33
REMARK                            x       y       z     vdW  Elec       q    Type
REMARK                         _______ _______ _______ _____ _____    ______ ____
ROOT
ATOM      1  C   UNL     1      -1.136  -7.541   2.914  0.00  0.00    +0.084 C 
ATOM      2  C   UNL     1      -0.023  -6.934   2.449  0.00  0.00    +0.061 C 
ATOM      3  N   UNL     1       1.106  -6.851   3.212  0.00  0.00    -0.269 N 
ATOM      4  C   UNL     1       1.200  -7.341   4.455  0.00  0.00    +0.305 C 
ATOM      5  O   UNL     1       2.247  -7.215   5.059  0.00  0.00    -0.252 OA
ATOM      6  N   UNL     1       0.173  -7.975   5.055  0.00  0.00    -0.285 N 
ATOM      7  C   UNL     1      -1.090  -8.122   4.312  0.00  0.00    +0.179 C 
ATOM      8  H   UNL     1       2.006  -6.360   2.813  0.00  0.00    +0.156 HD
ATOM      9  H   UNL     1       0.262  -8.378   6.074  0.00  0.00    +0.151 HD
ENDROOT
BRANCH   7  10
ATOM     10  C   UNL     1      -2.183  -7.472   5.121  0.00  0.00    +0.130 A 
ATOM     11  C   UNL     1      -3.385  -8.010   5.395  0.00  0.00    +0.047 A 
ATOM     12  C   UNL     1      -4.089  -7.064   6.175  0.00  0.00    +0.041 A 
ATOM     13  C   UNL     1      -3.275  -6.005   6.332  0.00  0.00    +0.195 A 
ATOM     14  O   UNL     1      -2.119  -6.260   5.696  0.00  0.00    -0.466 OA
ENDBRANCH   7  10
BRANCH   1  15
ATOM     15  C   UNL     1      -2.305  -7.632   2.122  0.00  0.00    +0.339 C 
ATOM     16  O   UNL     1      -2.289  -7.246   0.968  0.00  0.00    -0.245 OA
BRANCH  15  17
ATOM     17  O   UNL     1      -3.437  -8.147   2.646  0.00  0.00    -0.462 OA
BRANCH  17  19
ATOM     18  C   UNL     1      -5.757  -8.816   2.554  0.00  0.00    +0.048 C 
ATOM     19  C   UNL     1      -4.579  -8.208   1.790  0.00  0.00    +0.229 C 
ENDBRANCH  17  19
ENDBRANCH  15  17
ENDBRANCH   1  15
BRANCH   2  20
ATOM     20  C   UNL     1      -0.025  -6.343   1.062  0.00  0.00    +0.283 C 
BRANCH  20  21
ATOM     21  O   UNL     1       1.237  -5.666   0.823  0.00  0.00    -0.455 OA
BRANCH  21  22
ATOM     22  C   UNL     1       1.398  -5.079  -0.379  0.00  0.00    +0.342 C 
ATOM     23  O   UNL     1       0.508  -5.132  -1.205  0.00  0.00    -0.245 OA
BRANCH  22  24
ATOM     24  C   UNL     1       2.655  -4.373  -0.694  0.00  0.00    +0.083 A 
ATOM     25  C   UNL     1       3.717  -5.057  -1.278  0.00  0.00    -0.026 A 
ATOM     26  C   UNL     1       4.891  -4.337  -1.556  0.00  0.00    +0.004 A 
ATOM     27  C   UNL     1       6.004  -4.959  -2.145  0.00  0.00    +0.010 A 
ATOM     28  C   UNL     1       7.125  -4.230  -2.401  0.00  0.00    +0.001 A 
ATOM     29  C   UNL     1       7.183  -2.874  -2.086  0.00  0.00    +0.002 A 
ATOM     30  C   UNL     1       6.123  -2.240  -1.514  0.00  0.00    +0.028 A 
ATOM     31  C   UNL     1       4.947  -2.957  -1.234  0.00  0.00    +0.072 A 
ATOM     32  N   UNL     1       3.893  -2.353  -0.673  0.00  0.00    -0.251 NA
ATOM     33  C   UNL     1       2.791  -3.003  -0.405  0.00  0.00    +0.053 A 
ATOM     34  C   UNL     1       1.638  -2.268   0.228  0.00  0.00    +0.066 C 
ATOM     35  C   UNL     1       3.610  -6.524  -1.603  0.00  0.00    +0.045 C 
ENDBRANCH  22  24
ENDBRANCH  21  22
ENDBRANCH  20  21
ENDBRANCH   2  20
TORSDOF 8
