REMARK  Name = ZINC13281070
REMARK  13 active torsions:
REMARK  status: ('A' for Active; 'I' for Inactive)
REMARK    1  A    between atoms: C_1  and  C_2
REMARK    2  A    between atoms: C_2  and  O_3
REMARK    3  A    between atoms: O_3  and  C_4
REMARK    4  A    between atoms: C_4  and  C_6
REMARK    5  A    between atoms: C_7  and  C_31
REMARK    6  A    between atoms: C_9  and  N_11
REMARK    7  A    between atoms: C_12  and  C_14
REMARK    8  A    between atoms: C_14  and  S_15
REMARK    9  A    between atoms: S_15  and  C_16
REMARK   10  A    between atoms: C_19  and  C_24
REMARK   11  A    between atoms: N_20  and  C_21
REMARK   12  A    between atoms: C_21  and  C_22
REMARK   13  A    between atoms: C_27  and  C_30
REMARK                            x       y       z     vdW  Elec       q    Type
REMARK                         _______ _______ _______ _____ _____    ______ ____
ROOT
ATOM      1  S   UNL     1       1.027   3.697   1.777  0.00  0.00    -0.077 S 
ENDROOT
BRANCH   1   2
ATOM      2  C   UNL     1      -0.349   2.621   2.008  0.00  0.00    +0.193 A 
ATOM      3  N   UNL     1      -1.325   2.778   2.875  0.00  0.00    -0.122 NA
ATOM      4  N   UNL     1      -2.159   1.805   2.780  0.00  0.00    -0.128 NA
ATOM      5  C   UNL     1      -1.771   0.971   1.844  0.00  0.00    +0.165 A 
ATOM      6  N   UNL     1      -0.601   1.469   1.319  0.00  0.00    -0.291 N 
BRANCH   5   7
ATOM      7  C   UNL     1      -2.460  -0.271   1.433  0.00  0.00    +0.019 A 
ATOM      8  C   UNL     1      -2.179  -0.851   0.194  0.00  0.00    +0.012 A 
ATOM      9  C   UNL     1      -2.822  -2.012  -0.181  0.00  0.00    +0.004 A 
ATOM     10  C   UNL     1      -3.750  -2.597   0.662  0.00  0.00    -0.050 A 
ATOM     11  C   UNL     1      -4.037  -2.024   1.888  0.00  0.00    +0.004 A 
ATOM     12  C   UNL     1      -3.397  -0.866   2.278  0.00  0.00    +0.012 A 
ATOM     13  C   UNL     1      -4.452  -3.862   0.242  0.00  0.00    +0.044 C 
ENDBRANCH   5   7
BRANCH   6  14
ATOM     14  C   UNL     1       0.209   0.884   0.247  0.00  0.00    +0.250 C 
BRANCH  14  15
ATOM     15  C   UNL     1      -0.240   1.436  -1.081  0.00  0.00    +0.375 C 
ATOM     16  O   UNL     1      -1.144   2.237  -1.128  0.00  0.00    -0.244 OA
ATOM     17  O   UNL     1       0.363   1.039  -2.212  0.00  0.00    -0.244 OA
ENDBRANCH  14  15
ENDBRANCH   6  14
ENDBRANCH   1   2
BRANCH   1  18
ATOM     18  C   UNL     1       0.656   4.954   3.026  0.00  0.00    +0.173 C 
BRANCH  18  20
ATOM     19  N   UNL     1       1.663   7.052   3.863  0.00  0.00    -0.279 N 
ATOM     20  C   UNL     1       1.731   6.010   3.011  0.00  0.00    +0.228 C 
ATOM     21  O   UNL     1       2.656   5.922   2.232  0.00  0.00    -0.275 OA
ATOM     22  H   UNL     1       0.923   7.123   4.486  0.00  0.00    +0.155 HD
BRANCH  19  26
ATOM     23  C   UNL     1       4.749   9.636   3.474  0.00  0.00    +0.101 A 
ATOM     24  C   UNL     1       3.828   9.988   4.452  0.00  0.00    -0.028 A 
ATOM     25  C   UNL     1       2.758   9.154   4.634  0.00  0.00    +0.035 A 
ATOM     26  C   UNL     1       2.654   8.026   3.849  0.00  0.00    +0.073 A 
ATOM     27  S   UNL     1       4.064   8.114   2.844  0.00  0.00    -0.067 S 
ATOM     28  C   UNL     1       3.999  11.236   5.277  0.00  0.00    +0.045 C 
BRANCH  23  29
ATOM     29  C   UNL     1       5.932  10.309   3.082  0.00  0.00    +0.346 C 
ATOM     30  O   UNL     1       6.253  11.347   3.631  0.00  0.00    -0.244 OA
BRANCH  29  31
ATOM     31  O   UNL     1       6.704   9.800   2.098  0.00  0.00    -0.461 OA
BRANCH  31  33
ATOM     32  C   UNL     1       8.623   9.806   0.628  0.00  0.00    +0.048 C 
ATOM     33  C   UNL     1       7.882  10.532   1.754  0.00  0.00    +0.229 C 
ENDBRANCH  31  33
ENDBRANCH  29  31
ENDBRANCH  23  29
ENDBRANCH  19  26
ENDBRANCH  18  20
ENDBRANCH   1  18
TORSDOF 10
