REMARK  Name = ZINC63709745
REMARK  5 active torsions:
REMARK  status: ('A' for Active; 'I' for Inactive)
REMARK    1  A    between atoms: C_5  and  C_7
REMARK    2  A    between atoms: C_7  and  N_8
REMARK    3  A    between atoms: C_9  and  S_19
REMARK    4  A    between atoms: S_19  and  C_20
REMARK    5  A    between atoms: C_20  and  C_21
REMARK                            x       y       z     vdW  Elec       q    Type
REMARK                         _______ _______ _______ _____ _____    ______ ____
ROOT
ATOM      1  N   UNL     1       1.488  -2.679   1.333  0.00  0.00    -0.265 N 
ATOM      2  C   UNL     1       2.868  -2.895   1.759  0.00  0.00    +0.222 C 
ATOM      3  N   UNL     1       3.055  -2.611   3.189  0.00  0.00    -0.316 N 
ATOM      4  C   UNL     1       2.023  -3.022   4.056  0.00  0.00    +0.048 A 
ATOM      5  C   UNL     1       2.091  -3.317   5.401  0.00  0.00    +0.031 A 
ATOM      6  C   UNL     1       0.966  -3.695   6.058  0.00  0.00    +0.048 A 
ATOM      7  S   UNL     1      -0.238  -3.668   4.881  0.00  0.00    -0.090 S 
ATOM      8  C   UNL     1       0.738  -3.160   3.505  0.00  0.00    +0.095 A 
ATOM      9  C   UNL     1       0.439  -2.918   2.162  0.00  0.00    +0.257 C 
ATOM     10  O   UNL     1      -0.708  -2.926   1.753  0.00  0.00    -0.269 OA
ATOM     11  H   UNL     1       3.849  -2.162   3.520  0.00  0.00    +0.149 HD
ENDROOT
BRANCH   1  12
ATOM     12  C   UNL     1       1.228  -2.186  -0.022  0.00  0.00    +0.148 C 
BRANCH  12  17
ATOM     13  C   UNL     1      -0.017   1.378   0.010  0.00  0.00    +0.000 A 
ATOM     14  C   UNL     1       1.171   2.087   0.002  0.00  0.00    +0.003 A 
ATOM     15  C   UNL     1       2.377   1.414  -0.013  0.00  0.00    +0.038 A 
ATOM     16  C   UNL     1       2.397   0.029  -0.021  0.00  0.00    +0.128 A 
ATOM     17  C   UNL     1       1.208  -0.679  -0.013  0.00  0.00    +0.005 A 
ATOM     18  C   UNL     1       0.002  -0.004   0.002  0.00  0.00    +0.008 A 
ATOM     19  F   UNL     1       3.577  -0.630  -0.036  0.00  0.00    -0.205 F 
ENDBRANCH  12  17
ENDBRANCH   1  12
BRANCH   2  20
ATOM     20  S   UNL     1       3.321  -4.622   1.439  0.00  0.00    -0.115 S 
BRANCH  20  21
ATOM     21  C   UNL     1       2.137  -5.576   2.428  0.00  0.00    +0.119 C 
BRANCH  21  22
ATOM     22  C   UNL     1       2.410  -7.071   2.247  0.00  0.00    +0.184 C 
ATOM     23  N   UNL     1       3.797  -7.378   2.619  0.00  0.00    -0.363 N 
ATOM     24  C   UNL     1       4.385  -7.864   1.564  0.00  0.00    +0.060 A 
ATOM     25  C   UNL     1       5.751  -8.346   1.315  0.00  0.00    +0.027 A 
ATOM     26  C   UNL     1       6.081  -8.804   0.091  0.00  0.00    +0.002 A 
ATOM     27  C   UNL     1       5.167  -8.842  -0.977  0.00  0.00    +0.002 A 
ATOM     28  C   UNL     1       3.891  -8.423  -0.856  0.00  0.00    +0.027 A 
ATOM     29  C   UNL     1       3.417  -7.904   0.434  0.00  0.00    +0.060 A 
ATOM     30  N   UNL     1       2.268  -7.442   0.834  0.00  0.00    -0.363 N 
ATOM     31  H   UNL     1       4.200  -7.244   3.491  0.00  0.00    +0.162 HD
ATOM     32  H   UNL     1       1.465  -7.359   0.297  0.00  0.00    +0.162 HD
ENDBRANCH  21  22
ENDBRANCH  20  21
ENDBRANCH   2  20
TORSDOF 5
