REMARK  Name = ZINC43740325
REMARK  6 active torsions:
REMARK  status: ('A' for Active; 'I' for Inactive)
REMARK    1  A    between atoms: C_1  and  C_2
REMARK    2  A    between atoms: C_15  and  O_33
REMARK    3  A    between atoms: C_18  and  C_31
REMARK    4  A    between atoms: C_23  and  C_25
REMARK    5  A    between atoms: C_25  and  C_30
REMARK    6  A    between atoms: C_31  and  O_32
REMARK                            x       y       z     vdW  Elec       q    Type
REMARK                         _______ _______ _______ _____ _____    ______ ____
ROOT
ATOM      1  C   UNL     1       0.536  -0.150  -1.493  0.00  0.00    +0.012 C 
ATOM      2  C   UNL     1       0.168  -1.632  -1.377  0.00  0.00    -0.023 C 
ATOM      3  C   UNL     1       0.575  -2.355  -2.655  0.00  0.00    +0.012 C 
ATOM      4  C   UNL     1       2.076  -2.147  -2.893  0.00  0.00    +0.065 C 
ATOM      5  C   UNL     1       2.904  -2.627  -1.705  0.00  0.00    +0.170 C 
ATOM      6  C   UNL     1       2.429  -2.005  -0.388  0.00  0.00    +0.069 C 
ATOM      7  C   UNL     1       0.939  -2.267  -0.216  0.00  0.00    +0.000 C 
ATOM      8  C   UNL     1       0.396  -1.786   1.120  0.00  0.00    +0.004 C 
ATOM      9  C   UNL     1      -1.012  -2.363   1.316  0.00  0.00    +0.004 C 
ATOM     10  C   UNL     1      -1.594  -2.769  -0.032  0.00  0.00    -0.001 C 
ATOM     11  C   UNL     1      -1.328  -1.699  -1.085  0.00  0.00    +0.027 C 
ATOM     12  C   UNL     1      -2.155  -1.916  -2.339  0.00  0.00    +0.119 C 
ATOM     13  C   UNL     1      -3.665  -1.926  -2.064  0.00  0.00    +0.041 C 
ATOM     14  C   UNL     1      -3.964  -2.080  -0.596  0.00  0.00    +0.007 C 
ATOM     15  C   UNL     1      -3.043  -3.145   0.032  0.00  0.00    +0.001 C 
ATOM     16  C   UNL     1      -3.664  -3.321   1.425  0.00  0.00    +0.005 C 
ATOM     17  C   UNL     1      -5.190  -3.269   1.139  0.00  0.00    +0.010 C 
ATOM     18  C   UNL     1      -5.350  -2.691  -0.289  0.00  0.00    +0.057 C 
ATOM     19  O   UNL     1       4.279  -2.247  -1.918  0.00  0.00    -0.346 OA
ATOM     20  C   UNL     1       5.057  -3.357  -1.413  0.00  0.00    +0.191 C 
ATOM     21  C   UNL     1       4.170  -4.564  -1.811  0.00  0.00    +0.191 C 
ATOM     22  O   UNL     1       2.834  -4.057  -1.612  0.00  0.00    -0.346 OA
ENDROOT
BRANCH  18  23
ATOM     23  C   UNL     1      -6.414  -1.592  -0.309  0.00  0.00    +0.171 C 
ATOM     24  O   UNL     1      -6.176  -0.669   0.767  0.00  0.00    -0.346 OA
ATOM     25  C   UNL     1      -7.495  -0.277   1.218  0.00  0.00    +0.191 C 
ATOM     26  C   UNL     1      -8.290  -1.596   1.050  0.00  0.00    +0.191 C 
ATOM     27  O   UNL     1      -7.712  -2.176  -0.138  0.00  0.00    -0.346 OA
ATOM     28  C   UNL     1      -6.358  -0.847  -1.644  0.00  0.00    +0.074 C 
ENDBRANCH  18  23
BRANCH  12  29
ATOM     29  O   UNL     1      -1.888  -0.866  -3.282  0.00  0.00    -0.391 OA
ATOM     30  H   UNL     1      -2.384  -0.943  -4.109  0.00  0.00    +0.210 HD
ENDBRANCH  12  29
BRANCH  14  31
ATOM     31  C   UNL     1      -3.904  -0.737   0.132  0.00  0.00    +0.163 C 
BRANCH  31  32
ATOM     32  O   UNL     1      -4.105  -0.945   1.531  0.00  0.00    -0.394 OA
ATOM     33  H   UNL     1      -3.977  -0.151   2.069  0.00  0.00    +0.209 HD
ENDBRANCH  31  32
ENDBRANCH  14  31
TORSDOF 4
