REMARK  Name = ZINC22302585
REMARK  8 active torsions:
REMARK  status: ('A' for Active; 'I' for Inactive)
REMARK    1  A    between atoms: C_1  and  C_2
REMARK    2  A    between atoms: C_2  and  C_4
REMARK    3  A    between atoms: C_2  and  S_13
REMARK    4  A    between atoms: N_6  and  C_7
REMARK    5  A    between atoms: C_7  and  C_8
REMARK    6  A    between atoms: S_13  and  C_14
REMARK    7  A    between atoms: C_17  and  C_20
REMARK    8  A    between atoms: N_18  and  N_19
REMARK                            x       y       z     vdW  Elec       q    Type
REMARK                         _______ _______ _______ _____ _____    ______ ____
ROOT
ATOM      1  C   UNL     1       1.907  -4.243  -0.090  0.00  0.00    +0.209 A 
ATOM      2  N   UNL     1       0.600  -4.186   0.035  0.00  0.00    -0.121 NA
ATOM      3  N   UNL     1       0.213  -2.961   0.072  0.00  0.00    -0.127 NA
ATOM      4  C   UNL     1       1.249  -2.160  -0.026  0.00  0.00    +0.183 A 
ATOM      5  N   UNL     1       2.365  -2.957  -0.139  0.00  0.00    -0.224 N 
ENDROOT
BRANCH   4   6
ATOM      6  C   UNL     1       1.221  -0.682  -0.022  0.00  0.00    +0.035 A 
ATOM      7  C   UNL     1       1.939   0.035  -0.981  0.00  0.00    +0.013 A 
ATOM      8  C   UNL     1       1.909   1.414  -0.972  0.00  0.00    +0.001 A 
ATOM      9  C   UNL     1       1.169   2.087  -0.015  0.00  0.00    +0.001 A 
ATOM     10  C   UNL     1       0.455   1.383   0.937  0.00  0.00    +0.016 A 
ATOM     11  C   UNL     1       0.476   0.003   0.940  0.00  0.00    +0.029 A 
ATOM     12 BR   UNL     1      -0.502  -0.958   2.243  0.00  0.00    -0.050 Br
ENDBRANCH   4   6
BRANCH   5  13
ATOM     13  N   UNL     1       3.662  -2.547  -0.270  0.00  0.00    -0.295 N 
ATOM     14  H   UNL     1       3.899  -1.474  -0.296  0.00  0.00    +0.163 HD
ATOM     15  H   UNL     1       4.468  -3.291  -0.349  0.00  0.00    +0.163 HD
ENDBRANCH   5  13
BRANCH   1  16
ATOM     16  S   UNL     1       2.885  -5.705  -0.184  0.00  0.00    -0.072 S 
BRANCH  16  18
ATOM     17  C   UNL     1       0.924  -6.875   1.316  0.00  0.00    +0.029 C 
ATOM     18  C   UNL     1       1.586  -6.960  -0.061  0.00  0.00    +0.137 C 
BRANCH  18  19
ATOM     19  C   UNL     1       2.191  -8.328  -0.244  0.00  0.00    +0.227 C 
ATOM     20  O   UNL     1       3.363  -8.513   0.010  0.00  0.00    -0.275 OA
ATOM     21  N   UNL     1       1.430  -9.347  -0.691  0.00  0.00    -0.307 N 
ATOM     22  H   UNL     1       0.368  -9.180  -0.921  0.00  0.00    +0.149 HD
BRANCH  21  23
ATOM     23  C   UNL     1       2.018 -10.677  -0.869  0.00  0.00    +0.178 C 
BRANCH  23  24
ATOM     24  C   UNL     1       0.964 -11.629  -1.373  0.00  0.00    +0.122 A 
ATOM     25  C   UNL     1       0.677 -11.872  -2.665  0.00  0.00    +0.046 A 
ATOM     26  C   UNL     1      -0.369 -12.823  -2.680  0.00  0.00    +0.041 A 
ATOM     27  C   UNL     1      -0.659 -13.104  -1.397  0.00  0.00    +0.195 A 
ATOM     28  O   UNL     1       0.156 -12.383  -0.610  0.00  0.00    -0.466 OA
ENDBRANCH  23  24
ENDBRANCH  21  23
ENDBRANCH  18  19
ENDBRANCH  16  18
ENDBRANCH   1  16
TORSDOF 7
