REMARK  Name = ZINC21655351
REMARK  10 active torsions:
REMARK  status: ('A' for Active; 'I' for Inactive)
REMARK    1  A    between atoms: C_1  and  C_2
REMARK    2  A    between atoms: C_2  and  C_3
REMARK    3  A    between atoms: C_3  and  C_5
REMARK    4  A    between atoms: C_3  and  N_6
REMARK    5  A    between atoms: C_7  and  C_9
REMARK    6  A    between atoms: C_9  and  N_10
REMARK    7  A    between atoms: C_12  and  C_22
REMARK    8  A    between atoms: C_18  and  C_21
REMARK    9  A    between atoms: C_24  and  C_27
REMARK   10  A    between atoms: C_30  and  C_33
REMARK                            x       y       z     vdW  Elec       q    Type
REMARK                         _______ _______ _______ _____ _____    ______ ____
ROOT
ATOM      1  N   UNL     1       2.364   1.514  -0.013  0.00  0.00    -0.322 N 
ATOM      2  C   UNL     1       1.180   2.147   0.002  0.00  0.00    +0.105 A 
ATOM      3  C   UNL     1      -0.018   1.467   0.010  0.00  0.00    +0.103 A 
ATOM      4  C   UNL     1       0.002  -0.004   0.002  0.00  0.00    +0.203 A 
ATOM      5  O   UNL     1      -1.029  -0.654   0.008  0.00  0.00    -0.286 OA
ATOM      6  C   UNL     1       1.322  -0.658  -0.014  0.00  0.00    +0.065 A 
ATOM      7  C   UNL     1       2.477   0.144  -0.021  0.00  0.00    +0.145 A 
ATOM      8  N   UNL     1       3.674  -0.430  -0.035  0.00  0.00    -0.234 NA
ATOM      9  C   UNL     1       3.814  -1.739  -0.044  0.00  0.00    +0.041 A 
ATOM     10  C   UNL     1       2.718  -2.588  -0.037  0.00  0.00    +0.024 A 
ATOM     11  C   UNL     1       1.444  -2.049  -0.023  0.00  0.00    +0.017 A 
ATOM     12  C   UNL     1       5.200  -2.330  -0.060  0.00  0.00    +0.065 C 
ENDROOT
BRANCH   3  13
ATOM     13  C   UNL     1      -1.296   2.200   0.020  0.00  0.00    +0.264 A 
ATOM     14  N   UNL     1      -2.508   1.671   0.018  0.00  0.00    -0.187 NA
ATOM     15  C   UNL     1      -3.358   2.719   0.033  0.00  0.00    +0.202 A 
ATOM     16  N   UNL     1      -2.635   3.809   0.035  0.00  0.00    -0.056 NA
ATOM     17  O   UNL     1      -1.455   3.534   0.028  0.00  0.00    -0.332 OA
BRANCH  15  18
ATOM     18  C   UNL     1      -4.841   2.647   0.039  0.00  0.00    +0.022 A 
ATOM     19  C   UNL     1      -5.481   1.409   0.030  0.00  0.00    +0.012 A 
ATOM     20  C   UNL     1      -6.860   1.348   0.041  0.00  0.00    +0.004 A 
ATOM     21  C   UNL     1      -7.606   2.513   0.051  0.00  0.00    -0.050 A 
ATOM     22  C   UNL     1      -6.976   3.744   0.055  0.00  0.00    +0.004 A 
ATOM     23  C   UNL     1      -5.598   3.817   0.049  0.00  0.00    +0.012 A 
ATOM     24  C   UNL     1      -9.111   2.440   0.057  0.00  0.00    +0.044 C 
ENDBRANCH  15  18
ENDBRANCH   3  13
BRANCH   1  25
ATOM     25  C   UNL     1       3.588   2.319  -0.021  0.00  0.00    +0.218 C 
BRANCH  25  27
ATOM     26  N   UNL     1       5.179   3.209  -1.692  0.00  0.00    -0.311 N 
ATOM     27  C   UNL     1       4.062   2.498  -1.440  0.00  0.00    +0.233 C 
ATOM     28  O   UNL     1       3.438   2.003  -2.355  0.00  0.00    -0.274 OA
ATOM     29  H   UNL     1       5.744   3.659  -0.863  0.00  0.00    +0.149 HD
BRANCH  26  30
ATOM     30  C   UNL     1       5.639   3.384  -3.072  0.00  0.00    +0.070 C 
ATOM     31  C   UNL     1       6.490   2.180  -3.482  0.00  0.00    +0.028 C 
BRANCH  30  33
ATOM     32  C   UNL     1       5.597   5.875  -2.883  0.00  0.00    +0.005 C 
ATOM     33  C   UNL     1       6.479   4.659  -3.172  0.00  0.00    +0.018 C 
ENDBRANCH  30  33
ENDBRANCH  26  30
ENDBRANCH  25  27
ENDBRANCH   1  25
TORSDOF 6
