REMARK  Name = ZINC29744198
REMARK  8 active torsions:
REMARK  status: ('A' for Active; 'I' for Inactive)
REMARK    1  A    between atoms: C_1  and  C_2
REMARK    2  A    between atoms: C_2  and  C_4
REMARK    3  A    between atoms: C_2  and  S_17
REMARK    4  A    between atoms: N_6  and  C_7
REMARK    5  A    between atoms: C_9  and  N_14
REMARK    6  A    between atoms: S_17  and  C_18
REMARK    7  A    between atoms: N_22  and  C_23
REMARK    8  A    between atoms: C_23  and  C_24
REMARK                            x       y       z     vdW  Elec       q    Type
REMARK                         _______ _______ _______ _____ _____    ______ ____
ROOT
ATOM      1  C   UNL     1      -2.885   0.426  -1.238  0.00  0.00    +0.029 C 
ATOM      2  C   UNL     1      -2.482   0.978   0.131  0.00  0.00    +0.137 C 
ENDROOT
BRANCH   2   3
ATOM      3  C   UNL     1      -1.153   1.681   0.018  0.00  0.00    +0.230 C 
ATOM      4  O   UNL     1      -1.113   2.890  -0.064  0.00  0.00    -0.274 OA
ATOM      5  N   UNL     1      -0.011   0.966   0.007  0.00  0.00    -0.283 N 
ATOM      6  H   UNL     1      -0.050  -0.133  -0.009  0.00  0.00    +0.155 HD
BRANCH   5   7
ATOM      7  C   UNL     1       1.225   1.622   0.017  0.00  0.00    +0.054 A 
ATOM      8  C   UNL     1       1.329   2.904   0.539  0.00  0.00    +0.057 A 
ATOM      9  C   UNL     1       2.550   3.549   0.547  0.00  0.00    +0.128 A 
ATOM     10  C   UNL     1       3.670   2.920   0.035  0.00  0.00    +0.034 A 
ATOM     11  C   UNL     1       3.571   1.643  -0.486  0.00  0.00    +0.024 A 
ATOM     12  C   UNL     1       2.353   0.989  -0.492  0.00  0.00    +0.062 A 
ATOM     13 CL   UNL     1       2.231  -0.617  -1.140  0.00  0.00    -0.082 Cl
BRANCH   9  14
ATOM     14  N   UNL     1       2.660   4.916   1.104  0.00  0.00    +0.056 N 
ATOM     15  O   UNL     1       1.675   5.471   1.556  0.00  0.00    -0.126 OA
ATOM     16  O   UNL     1       3.737   5.486   1.111  0.00  0.00    -0.126 OA
ENDBRANCH   9  14
ENDBRANCH   5   7
ENDBRANCH   2   3
BRANCH   2  17
ATOM     17  S   UNL     1      -3.738   2.148   0.703  0.00  0.00    -0.072 S 
BRANCH  17  18
ATOM     18  C   UNL     1      -5.110   1.059   0.888  0.00  0.00    +0.210 A 
ATOM     19  N   UNL     1      -5.119  -0.235   0.650  0.00  0.00    -0.101 NA
ATOM     20  N   UNL     1      -6.281  -0.728   0.886  0.00  0.00    -0.022 NA
ATOM     21  N   UNL     1      -7.087   0.196   1.284  0.00  0.00    -0.043 NA
ATOM     22  N   UNL     1      -6.353   1.395   1.306  0.00  0.00    -0.215 N 
BRANCH  22  23
ATOM     23  C   UNL     1      -6.832   2.723   1.696  0.00  0.00    +0.190 C 
BRANCH  23  24
ATOM     24  C   UNL     1      -7.379   3.435   0.486  0.00  0.00    +0.011 A 
ATOM     25  C   UNL     1      -8.643   3.438  -0.003  0.00  0.00    +0.013 A 
ATOM     26  C   UNL     1      -8.920   4.173  -1.141  0.00  0.00    +0.008 A 
ATOM     27  C   UNL     1      -7.920   4.870  -1.733  0.00  0.00    +0.045 A 
ATOM     28  S   UNL     1      -6.534   4.501  -0.670  0.00  0.00    -0.100 S 
ENDBRANCH  23  24
ENDBRANCH  22  23
ENDBRANCH  17  18
ENDBRANCH   2  17
TORSDOF 7
