REMARK  Name = ZINC23936492
REMARK  10 active torsions:
REMARK  status: ('A' for Active; 'I' for Inactive)
REMARK    1  A    between atoms: C_1  and  C_2
REMARK    2  A    between atoms: C_5  and  C_8
REMARK    3  A    between atoms: C_8  and  C_36
REMARK    4  A    between atoms: N_11  and  C_15
REMARK    5  A    between atoms: C_15  and  C_16
REMARK    6  A    between atoms: N_18  and  C_19
REMARK    7  A    between atoms: C_24  and  C_25
REMARK    8  A    between atoms: N_27  and  C_28
REMARK    9  A    between atoms: C_28  and  C_29
REMARK   10  A    between atoms: C_29  and  C_30
REMARK                            x       y       z     vdW  Elec       q    Type
REMARK                         _______ _______ _______ _____ _____    ______ ____
ROOT
ATOM      1  C   UNL     1      -1.528   2.619   7.652  0.00  0.00    +0.235 C 
ATOM      2  O   UNL     1      -0.797   2.341   8.579  0.00  0.00    -0.274 OA
ATOM      3  N   UNL     1      -1.241   2.177   6.412  0.00  0.00    -0.284 N 
ATOM      4  H   UNL     1      -1.855   2.499   5.557  0.00  0.00    +0.155 HD
ENDROOT
BRANCH   3   5
ATOM      5  C   UNL     1      -0.167   1.312   6.211  0.00  0.00    +0.046 A 
ATOM      6  C   UNL     1       0.150   0.360   7.171  0.00  0.00    +0.024 A 
ATOM      7  C   UNL     1       1.218  -0.491   6.973  0.00  0.00    +0.002 A 
ATOM      8  C   UNL     1       1.977  -0.408   5.817  0.00  0.00    +0.001 A 
ATOM      9  C   UNL     1       1.673   0.527   4.851  0.00  0.00    +0.015 A 
ATOM     10  C   UNL     1       0.595   1.395   5.037  0.00  0.00    +0.058 A 
BRANCH  10  11
ATOM     11  C   UNL     1       0.264   2.398   4.007  0.00  0.00    +0.246 C 
ATOM     12  O   UNL     1      -0.727   3.091   4.130  0.00  0.00    -0.270 OA
ATOM     13  N   UNL     1       1.061   2.547   2.930  0.00  0.00    -0.311 N 
ATOM     14  H   UNL     1       1.958   1.920   2.819  0.00  0.00    +0.149 HD
BRANCH  13  15
ATOM     15  C   UNL     1       0.733   3.543   1.907  0.00  0.00    +0.109 C 
BRANCH  15  16
ATOM     16  C   UNL     1       1.790   3.506   0.802  0.00  0.00    +0.054 C 
BRANCH  16  17
ATOM     17  C   UNL     1       1.452   4.531  -0.250  0.00  0.00    -0.046 A 
ATOM     18  C   UNL     1       0.656   4.181  -1.325  0.00  0.00    +0.004 A 
ATOM     19  C   UNL     1       0.343   5.122  -2.288  0.00  0.00    +0.000 A 
ATOM     20  C   UNL     1       0.832   6.411  -2.181  0.00  0.00    +0.000 A 
ATOM     21  C   UNL     1       1.632   6.759  -1.108  0.00  0.00    +0.000 A 
ATOM     22  C   UNL     1       1.942   5.819  -0.143  0.00  0.00    +0.004 A 
ENDBRANCH  16  17
ENDBRANCH  15  16
ENDBRANCH  13  15
ENDBRANCH  10  11
ENDBRANCH   3   5
BRANCH   1  23
ATOM     23  C   UNL     1      -2.758   3.457   7.887  0.00  0.00    +0.214 C 
BRANCH  23  27
ATOM     24  C   UNL     1      -2.641   4.860  11.324  0.00  0.00    +0.135 C 
ATOM     25  C   UNL     1      -2.298   4.913   9.849  0.00  0.00    +0.251 C 
ATOM     26  O   UNL     1      -1.663   5.772   9.275  0.00  0.00    -0.272 OA
ATOM     27  N   UNL     1      -2.846   3.808   9.307  0.00  0.00    -0.215 N 
ATOM     28  C   UNL     1      -3.485   3.073  10.225  0.00  0.00    +0.310 C 
ATOM     29  O   UNL     1      -4.061   2.033   9.975  0.00  0.00    -0.252 OA
ATOM     30  N   UNL     1      -3.414   3.613  11.455  0.00  0.00    -0.281 N 
ATOM     31  C   UNL     1      -1.367   4.798  12.171  0.00  0.00    +0.047 C 
ATOM     32  H   UNL     1      -3.801   3.306  12.438  0.00  0.00    +0.152 HD
BRANCH  24  37
ATOM     33  C   UNL     1      -5.857   9.417  12.832  0.00  0.00    +0.044 C 
ATOM     34  C   UNL     1      -5.018   8.229  12.439  0.00  0.00    -0.050 A 
ATOM     35  C   UNL     1      -5.164   7.028  13.108  0.00  0.00    +0.004 A 
ATOM     36  C   UNL     1      -4.395   5.938  12.748  0.00  0.00    +0.006 A 
ATOM     37  C   UNL     1      -3.480   6.048  11.717  0.00  0.00    -0.015 A 
ATOM     38  C   UNL     1      -3.330   7.250  11.052  0.00  0.00    +0.006 A 
ATOM     39  C   UNL     1      -4.103   8.339  11.409  0.00  0.00    +0.004 A 
ENDBRANCH  24  37
ENDBRANCH  23  27
ENDBRANCH   1  23
TORSDOF 8
