REMARK  Name = ZINC39617264
REMARK  6 active torsions:
REMARK  status: ('A' for Active; 'I' for Inactive)
REMARK    1  A    between atoms: C_1  and  C_2
REMARK    2  A    between atoms: C_2  and  C_20
REMARK    3  A    between atoms: N_5  and  N_9
REMARK    4  A    between atoms: C_10  and  C_11
REMARK    5  A    between atoms: C_23  and  O_26
REMARK    6  A    between atoms: O_26  and  C_27
REMARK                            x       y       z     vdW  Elec       q    Type
REMARK                         _______ _______ _______ _____ _____    ______ ____
ROOT
ATOM      1  C   UNL     1      -0.013   1.527   0.019  0.00  0.00    +0.047 C 
ATOM      2  C   UNL     1       0.003  -0.003   0.002  0.00  0.00    +0.137 C 
ATOM      3  C   UNL     1       0.818  -0.515  -1.169  0.00  0.00    +0.271 C 
ATOM      4  O   UNL     1       0.603  -0.330  -2.347  0.00  0.00    -0.271 OA
ATOM      5  N   UNL     1       1.832  -1.218  -0.627  0.00  0.00    -0.109 N 
ATOM      6  C   UNL     1       1.771  -1.222   0.709  0.00  0.00    +0.330 C 
ATOM      7  O   UNL     1       2.576  -1.790   1.420  0.00  0.00    -0.250 OA
ATOM      8  N   UNL     1       0.720  -0.526   1.178  0.00  0.00    -0.280 N 
ATOM      9  H   UNL     1       0.480  -0.395   2.109  0.00  0.00    +0.152 HD
ENDROOT
BRANCH   2  10
ATOM     10  C   UNL     1      -1.402  -0.546  -0.048  0.00  0.00    -0.015 A 
ATOM     11  C   UNL     1      -2.001  -0.800  -1.268  0.00  0.00    +0.010 A 
ATOM     12  C   UNL     1      -3.289  -1.297  -1.316  0.00  0.00    +0.046 A 
ATOM     13  C   UNL     1      -3.981  -1.542  -0.139  0.00  0.00    +0.127 A 
ATOM     14  C   UNL     1      -3.378  -1.287   1.084  0.00  0.00    +0.046 A 
ATOM     15  C   UNL     1      -2.088  -0.794   1.127  0.00  0.00    +0.010 A 
BRANCH  13  16
ATOM     16  O   UNL     1      -5.248  -2.031  -0.184  0.00  0.00    -0.434 OA
BRANCH  16  17
ATOM     17  C   UNL     1      -5.901  -2.259   1.067  0.00  0.00    +0.541 C 
ATOM     18  F   UNL     1      -5.166  -3.187   1.814  0.00  0.00    -0.166 F 
ATOM     19  F   UNL     1      -5.987  -1.055   1.774  0.00  0.00    -0.166 F 
ENDBRANCH  16  17
ENDBRANCH  13  16
ENDBRANCH   2  10
BRANCH   5  20
ATOM     20  N   UNL     1       2.826  -1.867  -1.372  0.00  0.00    -0.177 NA
ATOM     21  C   UNL     1       2.748  -1.901  -2.677  0.00  0.00    +0.137 C 
BRANCH  21  22
ATOM     22  C   UNL     1       3.685  -2.640  -3.417  0.00  0.00    +0.000 C 
ATOM     23  C   UNL     1       3.746  -2.775  -4.801  0.00  0.00    +0.004 A 
ATOM     24  C   UNL     1       2.950  -2.256  -5.847  0.00  0.00    +0.010 A 
ATOM     25  C   UNL     1       3.250  -2.560  -7.134  0.00  0.00    +0.001 A 
ATOM     26  C   UNL     1       4.334  -3.381  -7.460  0.00  0.00    +0.002 A 
ATOM     27  C   UNL     1       5.139  -3.913  -6.511  0.00  0.00    +0.026 A 
ATOM     28  C   UNL     1       4.890  -3.640  -5.139  0.00  0.00    +0.043 A 
ATOM     29  N   UNL     1       5.513  -4.028  -4.047  0.00  0.00    -0.380 N 
ATOM     30  C   UNL     1       4.843  -3.450  -2.878  0.00  0.00    +0.150 C 
ATOM     31  H   UNL     1       6.294  -4.603  -4.020  0.00  0.00    +0.160 HD
ENDBRANCH  21  22
ENDBRANCH   5  20
TORSDOF 5
