REMARK  Name = ZINC13045119
REMARK  9 active torsions:
REMARK  status: ('A' for Active; 'I' for Inactive)
REMARK    1  A    between atoms: C_4  and  C_7
REMARK    2  A    between atoms: C_7  and  C_8
REMARK    3  A    between atoms: C_8  and  N_9
REMARK    4  A    between atoms: C_15  and  C_31
REMARK    5  A    between atoms: C_19  and  S_20
REMARK    6  A    between atoms: S_20  and  C_21
REMARK    7  A    between atoms: C_21  and  C_22
REMARK    8  A    between atoms: N_24  and  C_25
REMARK    9  A    between atoms: C_25  and  C_26
REMARK                            x       y       z     vdW  Elec       q    Type
REMARK                         _______ _______ _______ _____ _____    ______ ____
ROOT
ATOM      1  N   UNL     1      -1.372  -0.511   0.012  0.00  0.00    -0.287 N 
ATOM      2  C   UNL     1      -1.989  -0.755   1.192  0.00  0.00    +0.262 A 
ATOM      3  O   UNL     1      -1.422  -0.561   2.252  0.00  0.00    -0.267 OA
ATOM      4  C   UNL     1      -3.371  -1.258   1.147  0.00  0.00    +0.065 A 
ATOM      5  C   UNL     1      -4.088  -1.533   2.311  0.00  0.00    +0.016 A 
ATOM      6  C   UNL     1      -5.367  -2.005   2.227  0.00  0.00    +0.016 A 
ATOM      7  C   UNL     1      -5.968  -2.215   0.979  0.00  0.00    +0.065 A 
ATOM      8  C   UNL     1      -5.273  -1.948  -0.193  0.00  0.00    +0.043 A 
ATOM      9  C   UNL     1      -3.963  -1.465  -0.119  0.00  0.00    +0.080 A 
ATOM     10  N   UNL     1      -3.247  -1.191  -1.235  0.00  0.00    -0.223 NA
ATOM     11  C   UNL     1      -2.019  -0.739  -1.169  0.00  0.00    +0.173 A 
ENDROOT
BRANCH   7  12
ATOM     12  C   UNL     1      -7.355  -2.727   0.910  0.00  0.00    +0.387 C 
ATOM     13  O   UNL     1      -7.881  -2.911  -0.169  0.00  0.00    -0.241 OA
ATOM     14  O   UNL     1      -8.034  -2.988   2.043  0.00  0.00    -0.241 OA
ENDBRANCH   7  12
BRANCH   1  15
ATOM     15  C   UNL     1       0.002  -0.004   0.002  0.00  0.00    +0.132 C 
BRANCH  15  16
ATOM     16  C   UNL     1      -0.019   1.526   0.010  0.00  0.00    +0.057 C 
BRANCH  16  20
ATOM     17  C   UNL     1       3.989   3.005  -0.020  0.00  0.00    +0.000 A 
ATOM     18  C   UNL     1       3.329   2.772  -1.212  0.00  0.00    +0.000 A 
ATOM     19  C   UNL     1       2.032   2.293  -1.202  0.00  0.00    +0.004 A 
ATOM     20  C   UNL     1       1.395   2.047  -0.000  0.00  0.00    -0.046 A 
ATOM     21  C   UNL     1       2.053   2.285   1.192  0.00  0.00    +0.004 A 
ATOM     22  C   UNL     1       3.352   2.759   1.182  0.00  0.00    +0.000 A 
ENDBRANCH  16  20
ENDBRANCH  15  16
ENDBRANCH   1  15
BRANCH  11  23
ATOM     23  S   UNL     1      -1.162  -0.410  -2.673  0.00  0.00    -0.078 S 
BRANCH  23  24
ATOM     24  C   UNL     1      -2.440  -0.870  -3.869  0.00  0.00    +0.173 C 
BRANCH  24  25
ATOM     25  C   UNL     1      -1.916  -0.665  -5.267  0.00  0.00    +0.224 C 
ATOM     26  O   UNL     1      -0.790  -0.248  -5.438  0.00  0.00    -0.275 OA
ATOM     27  N   UNL     1      -2.699  -0.944  -6.328  0.00  0.00    -0.308 N 
ATOM     28  H   UNL     1      -3.600  -1.278  -6.192  0.00  0.00    +0.149 HD
BRANCH  27  29
ATOM     29  C   UNL     1      -2.190  -0.744  -7.687  0.00  0.00    +0.178 C 
BRANCH  29  30
ATOM     30  C   UNL     1      -3.253  -1.128  -8.684  0.00  0.00    +0.122 A 
ATOM     31  C   UNL     1      -4.186  -0.304  -9.194  0.00  0.00    +0.046 A 
ATOM     32  C   UNL     1      -4.971  -1.075 -10.082  0.00  0.00    +0.041 A 
ATOM     33  C   UNL     1      -4.471  -2.324 -10.061  0.00  0.00    +0.195 A 
ATOM     34  O   UNL     1      -3.427  -2.348  -9.216  0.00  0.00    -0.466 OA
ENDBRANCH  29  30
ENDBRANCH  27  29
ENDBRANCH  24  25
ENDBRANCH  23  24
ENDBRANCH  11  23
TORSDOF 9
