REMARK  Name = ZINC15834294
REMARK  6 active torsions:
REMARK  status: ('A' for Active; 'I' for Inactive)
REMARK    1  A    between atoms: C_1  and  C_2
REMARK    2  A    between atoms: C_5  and  C_8
REMARK    3  A    between atoms: C_13  and  C_22
REMARK    4  A    between atoms: C_27  and  C_28
REMARK    5  A    between atoms: N_31  and  C_36
REMARK    6  A    between atoms: N_34  and  C_35
REMARK                            x       y       z     vdW  Elec       q    Type
REMARK                         _______ _______ _______ _____ _____    ______ ____
ROOT
ATOM      1  C   UNL     1      -1.246  -1.950   0.556  0.00  0.00    +0.150 C 
ATOM      2  C   UNL     1       0.019  -2.651   0.111  0.00  0.00    +0.073 A 
ATOM      3  C   UNL     1       0.272  -3.948   0.017  0.00  0.00    +0.082 A 
ATOM      4  C   UNL     1       1.681  -4.074  -0.434  0.00  0.00    +0.089 A 
ATOM      5  C   UNL     1       2.160  -2.796  -0.580  0.00  0.00    +0.069 A 
ATOM      6  N   UNL     1       1.152  -1.941  -0.262  0.00  0.00    -0.306 N 
ATOM      7  C   UNL     1       1.156  -0.538  -0.286  0.00  0.00    +0.068 A 
ATOM      8  C   UNL     1       2.326   0.180  -0.436  0.00  0.00    +0.028 A 
ATOM      9  C   UNL     1       2.289   1.563  -0.428  0.00  0.00    +0.002 A 
ATOM     10  C   UNL     1       1.085   2.225  -0.270  0.00  0.00    +0.002 A 
ATOM     11  C   UNL     1      -0.092   1.512  -0.127  0.00  0.00    +0.025 A 
ATOM     12  C   UNL     1      -0.066   0.126  -0.142  0.00  0.00    +0.052 A 
ATOM     13  N   UNL     1      -1.254  -0.607  -0.044  0.00  0.00    -0.330 N 
ATOM     14  C   UNL     1       2.254  -5.410  -0.627  0.00  0.00    +0.266 A 
ATOM     15  O   UNL     1       3.401  -5.579  -0.993  0.00  0.00    -0.267 OA
ATOM     16  N   UNL     1       1.415  -6.447  -0.367  0.00  0.00    -0.263 N 
ATOM     17  C   UNL     1       0.150  -6.296   0.037  0.00  0.00    +0.332 A 
ATOM     18  O   UNL     1      -0.495  -7.308   0.234  0.00  0.00    -0.246 OA
ATOM     19  N   UNL     1      -0.472  -5.115   0.244  0.00  0.00    -0.294 N 
ATOM     20  C   UNL     1      -1.867  -5.056   0.688  0.00  0.00    +0.154 C 
ATOM     21  C   UNL     1       1.927  -7.808  -0.540  0.00  0.00    +0.157 C 
ATOM     22  H   UNL     1      -2.085  -0.228  -0.373  0.00  0.00    +0.147 HD
ENDROOT
BRANCH   1  27
ATOM     23  C   UNL     1      -1.319  -1.515   6.318  0.00  0.00    +0.044 C 
ATOM     24  C   UNL     1      -1.300  -1.629   4.815  0.00  0.00    -0.050 A 
ATOM     25  C   UNL     1      -0.332  -0.966   4.084  0.00  0.00    +0.004 A 
ATOM     26  C   UNL     1      -0.314  -1.070   2.706  0.00  0.00    +0.006 A 
ATOM     27  C   UNL     1      -1.265  -1.837   2.058  0.00  0.00    -0.021 A 
ATOM     28  C   UNL     1      -2.236  -2.495   2.789  0.00  0.00    +0.006 A 
ATOM     29  C   UNL     1      -2.251  -2.396   4.168  0.00  0.00    +0.004 A 
ENDBRANCH   1  27
BRANCH   5  30
ATOM     30  C   UNL     1       3.522  -2.419  -1.005  0.00  0.00    +0.003 A 
ATOM     31  C   UNL     1       4.531  -2.244  -0.055  0.00  0.00    +0.010 A 
ATOM     32  C   UNL     1       5.801  -1.891  -0.459  0.00  0.00    +0.001 A 
ATOM     33  C   UNL     1       6.078  -1.712  -1.803  0.00  0.00    +0.000 A 
ATOM     34  C   UNL     1       5.084  -1.883  -2.750  0.00  0.00    +0.004 A 
ATOM     35  C   UNL     1       3.811  -2.241  -2.361  0.00  0.00    -0.041 A 
ATOM     36  C   UNL     1       2.731  -2.434  -3.394  0.00  0.00    +0.044 C 
ENDBRANCH   5  30
TORSDOF 2
