REMARK  Name = ZINC15278569
REMARK  9 active torsions:
REMARK  status: ('A' for Active; 'I' for Inactive)
REMARK    1  A    between atoms: C_4  and  C_7
REMARK    2  A    between atoms: C_7  and  N_8
REMARK    3  A    between atoms: C_9  and  C_30
REMARK    4  A    between atoms: C_12  and  S_13
REMARK    5  A    between atoms: S_13  and  C_14
REMARK    6  A    between atoms: C_14  and  C_15
REMARK    7  A    between atoms: N_17  and  N_18
REMARK    8  A    between atoms: C_19  and  C_21
REMARK    9  A    between atoms: C_24  and  N_27
REMARK                            x       y       z     vdW  Elec       q    Type
REMARK                         _______ _______ _______ _____ _____    ______ ____
ROOT
ATOM      1  S   UNL     1      -1.248  -1.249   0.156  0.00  0.00    -0.077 S 
ENDROOT
BRANCH   1   6
ATOM      2  N   UNL     1       0.007   1.234   0.446  0.00  0.00    -0.298 N 
ATOM      3  C   UNL     1       1.256   1.751   0.186  0.00  0.00    +0.167 A 
ATOM      4  N   UNL     1       1.978   0.778  -0.320  0.00  0.00    -0.128 NA
ATOM      5  N   UNL     1       1.276  -0.296  -0.394  0.00  0.00    -0.122 NA
ATOM      6  C   UNL     1       0.063  -0.075   0.061  0.00  0.00    +0.193 A 
BRANCH   3   7
ATOM      7  C   UNL     1       1.701   3.139   0.431  0.00  0.00    +0.037 A 
ATOM      8  C   UNL     1       0.808   4.208   0.287  0.00  0.00    +0.014 A 
ATOM      9  C   UNL     1       1.274   5.489   0.529  0.00  0.00    +0.020 A 
ATOM     10  C   UNL     1       2.595   5.670   0.901  0.00  0.00    +0.111 A 
ATOM     11  N   UNL     1       3.413   4.643   1.030  0.00  0.00    -0.263 NA
ATOM     12  C   UNL     1       3.015   3.406   0.816  0.00  0.00    +0.122 A 
ENDBRANCH   3   7
BRANCH   2  13
ATOM     13  C   UNL     1      -1.143   1.943   1.012  0.00  0.00    +0.161 C 
BRANCH  13  17
ATOM     14  C   UNL     1      -0.899   1.881   5.276  0.00  0.00    +0.000 A 
ATOM     15  C   UNL     1      -0.318   2.915   4.565  0.00  0.00    +0.000 A 
ATOM     16  C   UNL     1      -0.397   2.935   3.185  0.00  0.00    +0.005 A 
ATOM     17  C   UNL     1      -1.057   1.921   2.516  0.00  0.00    -0.028 A 
ATOM     18  C   UNL     1      -1.642   0.890   3.227  0.00  0.00    +0.005 A 
ATOM     19  C   UNL     1      -1.559   0.867   4.607  0.00  0.00    +0.000 A 
ENDBRANCH  13  17
ENDBRANCH   2  13
ENDBRANCH   1   6
BRANCH   1  20
ATOM     20  C   UNL     1      -0.415  -2.705  -0.521  0.00  0.00    +0.174 C 
BRANCH  20  21
ATOM     21  C   UNL     1      -1.372  -3.869  -0.538  0.00  0.00    +0.239 C 
ATOM     22  O   UNL     1      -2.506  -3.728  -0.132  0.00  0.00    -0.273 OA
ATOM     23  N   UNL     1      -0.968  -5.067  -1.005  0.00  0.00    -0.233 N 
ATOM     24  H   UNL     1      -0.061  -5.181  -1.329  0.00  0.00    +0.173 HD
BRANCH  23  25
ATOM     25  N   UNL     1      -1.858  -6.149  -1.020  0.00  0.00    -0.230 N 
ATOM     26  C   UNL     1      -1.454  -7.348  -1.486  0.00  0.00    +0.260 C 
ATOM     27  O   UNL     1      -0.318  -7.490  -1.894  0.00  0.00    -0.269 OA
ATOM     28  H   UNL     1      -2.765  -6.036  -0.695  0.00  0.00    +0.173 HD
BRANCH  26  29
ATOM     29  C   UNL     1      -2.393  -8.489  -1.503  0.00  0.00    +0.038 A 
ATOM     30  C   UNL     1      -3.697  -8.331  -1.030  0.00  0.00    +0.015 A 
ATOM     31  C   UNL     1      -4.570  -9.399  -1.052  0.00  0.00    +0.033 A 
ATOM     32  C   UNL     1      -4.152 -10.628  -1.532  0.00  0.00    +0.126 A 
ATOM     33  C   UNL     1      -2.859 -10.793  -1.997  0.00  0.00    +0.033 A 
ATOM     34  C   UNL     1      -1.978  -9.732  -1.985  0.00  0.00    +0.015 A 
BRANCH  32  35
ATOM     35  N   UNL     1      -5.092 -11.771  -1.548  0.00  0.00    +0.056 N 
ATOM     36  O   UNL     1      -4.727 -12.854  -1.970  0.00  0.00    -0.126 OA
ATOM     37  O   UNL     1      -6.230 -11.629  -1.139  0.00  0.00    -0.126 OA
ENDBRANCH  32  35
ENDBRANCH  26  29
ENDBRANCH  23  25
ENDBRANCH  20  21
ENDBRANCH   1  20
TORSDOF 9
