REMARK  Name = ZINC20905208
REMARK  13 active torsions:
REMARK  status: ('A' for Active; 'I' for Inactive)
REMARK    1  A    between atoms: C_1  and  C_2
REMARK    2  A    between atoms: C_4  and  C_31
REMARK    3  A    between atoms: C_6  and  N_8
REMARK    4  A    between atoms: C_9  and  C_11
REMARK    5  A    between atoms: C_11  and  S_12
REMARK    6  A    between atoms: S_12  and  C_13
REMARK    7  A    between atoms: N_18  and  N_19
REMARK    8  A    between atoms: C_20  and  C_21
REMARK    9  A    between atoms: C_22  and  C_30
REMARK   10  A    between atoms: N_24  and  C_27
REMARK   11  A    between atoms: C_25  and  C_26
REMARK   12  A    between atoms: C_27  and  C_28
REMARK   13  A    between atoms: C_27  and  C_29
REMARK                            x       y       z     vdW  Elec       q    Type
REMARK                         _______ _______ _______ _____ _____    ______ ____
ROOT
ATOM      1  C   UNL     1      -5.290   0.812   0.259  0.00  0.00    +0.211 A 
ATOM      2  N   UNL     1      -6.602   1.189   0.291  0.00  0.00    -0.186 NA
ATOM      3  C   UNL     1      -7.363   0.059   0.407  0.00  0.00    +0.232 A 
ATOM      4  N   UNL     1      -6.554  -0.972   0.444  0.00  0.00    -0.245 N 
ATOM      5  N   UNL     1      -5.240  -0.495   0.344  0.00  0.00    -0.144 NA
ATOM      6  N   UNL     1      -8.748   0.011   0.474  0.00  0.00    -0.205 N 
ATOM      7  H   UNL     1      -9.333   0.942   0.434  0.00  0.00    +0.177 HD
ATOM      8  H   UNL     1      -6.963  -1.989   0.540  0.00  0.00    +0.192 HD
ENDROOT
BRANCH   6   9
ATOM      9  N   UNL     1      -9.402  -1.222   0.592  0.00  0.00    -0.187 NA
ATOM     10  C   UNL     1     -10.697  -1.267   0.655  0.00  0.00    +0.141 C 
BRANCH  10  11
ATOM     11  C   UNL     1     -11.386  -2.566   0.779  0.00  0.00    +0.038 A 
ATOM     12  C   UNL     1     -10.772  -3.836   0.843  0.00  0.00    +0.069 A 
ATOM     13  N   UNL     1     -11.712  -4.736   0.950  0.00  0.00    -0.175 NA
ATOM     14  N   UNL     1     -12.955  -4.094   0.961  0.00  0.00    -0.265 N 
ATOM     15  C   UNL     1     -12.747  -2.765   0.862  0.00  0.00    +0.045 A 
ATOM     16  C   UNL     1     -13.808  -1.695   0.841  0.00  0.00    +0.066 C 
ATOM     17  C   UNL     1      -9.290  -4.105   0.793  0.00  0.00    +0.068 C 
BRANCH  14  18
ATOM     18  C   UNL     1     -14.259  -4.752   1.068  0.00  0.00    +0.101 C 
ATOM     19  C   UNL     1     -14.444  -5.713  -0.108  0.00  0.00    +0.032 C 
ATOM     20  C   UNL     1     -14.330  -5.533   2.382  0.00  0.00    +0.032 C 
ENDBRANCH  14  18
ENDBRANCH  10  11
ENDBRANCH   6   9
BRANCH   1  21
ATOM     21  S   UNL     1      -3.905   1.894   0.118  0.00  0.00    -0.075 S 
BRANCH  21  22
ATOM     22  C   UNL     1      -2.474   0.779   0.133  0.00  0.00    +0.173 C 
BRANCH  22  24
ATOM     23  N   UNL     1      -0.011   0.966   0.007  0.00  0.00    -0.285 N 
ATOM     24  C   UNL     1      -1.207   1.587   0.017  0.00  0.00    +0.227 C 
ATOM     25  O   UNL     1      -1.264   2.795  -0.067  0.00  0.00    -0.275 OA
ATOM     26  H   UNL     1       0.038  -0.133   0.011  0.00  0.00    +0.155 HD
BRANCH  23  32
ATOM     27  C   UNL     1       4.673   1.524   1.393  0.00  0.00    +0.044 C 
ATOM     28  C   UNL     1       3.454   2.013   0.655  0.00  0.00    -0.048 A 
ATOM     29  C   UNL     1       3.500   3.208  -0.039  0.00  0.00    +0.006 A 
ATOM     30  C   UNL     1       2.383   3.661  -0.718  0.00  0.00    -0.048 A 
ATOM     31  C   UNL     1       1.218   2.920  -0.704  0.00  0.00    +0.026 A 
ATOM     32  C   UNL     1       1.168   1.719  -0.008  0.00  0.00    +0.034 A 
ATOM     33  C   UNL     1       2.289   1.271   0.677  0.00  0.00    +0.026 A 
ATOM     34  C   UNL     1       2.438   4.964  -1.473  0.00  0.00    +0.044 C 
ENDBRANCH  23  32
ENDBRANCH  22  24
ENDBRANCH  21  22
ENDBRANCH   1  21
TORSDOF 7
