REMARK  Name = ZINC32526515
REMARK  6 active torsions:
REMARK  status: ('A' for Active; 'I' for Inactive)
REMARK    1  A    between atoms: C_1  and  C_2
REMARK    2  A    between atoms: N_6  and  C_13
REMARK    3  A    between atoms: C_13  and  C_14
REMARK    4  A    between atoms: C_14  and  C_15
REMARK    5  A    between atoms: C_20  and  C_23
REMARK    6  A    between atoms: C_27  and  N_29
REMARK                            x       y       z     vdW  Elec       q    Type
REMARK                         _______ _______ _______ _____ _____    ______ ____
ROOT
ATOM      1  C   UNL     1       1.935   9.537   0.037  0.00  0.00    +0.220 C 
ATOM      2  O   UNL     1       0.803   9.971   0.050  0.00  0.00    -0.275 OA
ATOM      3  N   UNL     1       2.147   8.207   0.027  0.00  0.00    -0.265 N 
ATOM      4  C   UNL     1       1.069   7.331   0.032  0.00  0.00    +0.165 A 
ATOM      5  N   UNL     1       1.064   6.011   0.025  0.00  0.00    -0.225 NA
ATOM      6  C   UNL     1      -0.070   5.327   0.031  0.00  0.00    +0.080 A 
ATOM      7  C   UNL     1      -1.260   6.001   0.041  0.00  0.00    +0.076 A 
ATOM      8  S   UNL     1      -0.682   7.693   0.051  0.00  0.00    -0.060 S 
ATOM      9  H   UNL     1       3.175   7.814   0.015  0.00  0.00    +0.157 HD
ENDROOT
BRANCH   6  10
ATOM     10  C   UNL     1      -0.050   3.844   0.023  0.00  0.00    +0.003 A 
ATOM     11  C   UNL     1      -1.246   3.128   0.030  0.00  0.00    +0.010 A 
ATOM     12  C   UNL     1      -1.222   1.749   0.017  0.00  0.00    +0.003 A 
ATOM     13  C   UNL     1      -0.013   1.076   0.008  0.00  0.00    +0.033 A 
ATOM     14  C   UNL     1       1.177   1.781   0.000  0.00  0.00    +0.127 A 
ATOM     15  C   UNL     1       1.165   3.161   0.008  0.00  0.00    +0.042 A 
BRANCH  14  16
ATOM     16  N   UNL     1       2.467   1.054  -0.015  0.00  0.00    +0.056 N 
ATOM     17  O   UNL     1       2.479  -0.164  -0.022  0.00  0.00    -0.126 OA
ATOM     18  O   UNL     1       3.515   1.674  -0.022  0.00  0.00    -0.126 OA
ENDBRANCH  14  16
ENDBRANCH   6  10
BRANCH   1  19
ATOM     19  C   UNL     1       3.106  10.487   0.031  0.00  0.00    +0.118 C 
BRANCH  19  20
ATOM     20  C   UNL     1       2.593  11.928   0.044  0.00  0.00    +0.134 C 
BRANCH  20  26
ATOM     21  C   UNL     1       7.073  15.564  -0.098  0.00  0.00    +0.044 C 
ATOM     22  C   UNL     1       5.903  14.616  -0.049  0.00  0.00    -0.036 A 
ATOM     23  C   UNL     1       5.329  14.165  -1.191  0.00  0.00    +0.074 A 
ATOM     24  C   UNL     1       4.234  13.276  -1.134  0.00  0.00    +0.252 A 
ATOM     25  O   UNL     1       3.732  12.883  -2.173  0.00  0.00    -0.268 OA
ATOM     26  N   UNL     1       3.730  12.852   0.039  0.00  0.00    -0.308 N 
ATOM     27  C   UNL     1       4.265  13.277   1.236  0.00  0.00    +0.052 A 
ATOM     28  C   UNL     1       5.362  14.160   1.233  0.00  0.00    +0.002 A 
ATOM     29  C   UNL     1       5.912  14.591   2.445  0.00  0.00    +0.010 A 
ATOM     30  C   UNL     1       5.373  14.161   3.624  0.00  0.00    +0.001 A 
ATOM     31  C   UNL     1       4.295  13.286   3.631  0.00  0.00    +0.002 A 
ATOM     32  C   UNL     1       3.741  12.844   2.449  0.00  0.00    +0.026 A 
ENDBRANCH  20  26
ENDBRANCH  19  20
ENDBRANCH   1  19
TORSDOF 5
