REMARK  Name = ZINC36545787
REMARK  11 active torsions:
REMARK  status: ('A' for Active; 'I' for Inactive)
REMARK    1  A    between atoms: C_5  and  N_7
REMARK    2  A    between atoms: N_7  and  C_8
REMARK    3  A    between atoms: C_8  and  C_10
REMARK    4  A    between atoms: C_8  and  C_19
REMARK    5  A    between atoms: C_11  and  O_18
REMARK    6  A    between atoms: C_13  and  O_17
REMARK    7  A    between atoms: C_15  and  O_16
REMARK    8  A    between atoms: N_21  and  C_22
REMARK    9  A    between atoms: C_28  and  C_30
REMARK   10  A    between atoms: C_30  and  C_31
REMARK   11  A    between atoms: C_31  and  S_32
REMARK                            x       y       z     vdW  Elec       q    Type
REMARK                         _______ _______ _______ _____ _____    ______ ____
ROOT
ATOM      1  C   UNL     1       1.282  -2.676  -1.502  0.00  0.00    +0.204 C 
ENDROOT
BRANCH   1   2
ATOM      2  C   UNL     1       0.259  -1.610  -1.799  0.00  0.00    +0.065 A 
ATOM      3  C   UNL     1       0.397  -0.344  -1.251  0.00  0.00    +0.129 A 
ATOM      4  C   UNL     1      -0.544   0.637  -1.524  0.00  0.00    +0.091 A 
ATOM      5  C   UNL     1      -1.624   0.351  -2.346  0.00  0.00    +0.124 A 
ATOM      6  C   UNL     1      -1.762  -0.915  -2.895  0.00  0.00    +0.091 A 
ATOM      7  C   UNL     1      -0.818  -1.894  -2.625  0.00  0.00    +0.129 A 
BRANCH   7   8
ATOM      8  O   UNL     1      -0.951  -3.133  -3.167  0.00  0.00    -0.506 OA
ATOM      9  H   UNL     1      -1.460  -3.748  -2.622  0.00  0.00    +0.292 HD
ENDBRANCH   7   8
BRANCH   5  10
ATOM     10  O   UNL     1      -2.548   1.312  -2.613  0.00  0.00    -0.507 OA
ATOM     11  H   UNL     1      -2.346   1.845  -3.394  0.00  0.00    +0.292 HD
ENDBRANCH   5  10
BRANCH   3  12
ATOM     12  O   UNL     1       1.456  -0.064  -0.445  0.00  0.00    -0.506 OA
ATOM     13  H   UNL     1       2.229   0.274  -0.916  0.00  0.00    +0.292 HD
ENDBRANCH   3  12
ENDBRANCH   1   2
BRANCH   1  14
ATOM     14  C   UNL     1       2.554  -2.374  -2.253  0.00  0.00    +0.239 C 
ATOM     15  O   UNL     1       3.365  -1.603  -1.786  0.00  0.00    -0.273 OA
ATOM     16  N   UNL     1       2.789  -2.961  -3.443  0.00  0.00    -0.311 N 
ATOM     17  H   UNL     1       2.140  -3.578  -3.817  0.00  0.00    +0.149 HD
BRANCH  16  18
ATOM     18  C   UNL     1       4.025  -2.668  -4.173  0.00  0.00    +0.073 C 
ATOM     19  C   UNL     1       3.838  -1.396  -5.003  0.00  0.00    +0.022 C 
ATOM     20  C   UNL     1       5.129  -1.090  -5.765  0.00  0.00    +0.002 C 
ATOM     21  C   UNL     1       5.462  -2.260  -6.693  0.00  0.00    +0.000 C 
ATOM     22  C   UNL     1       5.649  -3.532  -5.864  0.00  0.00    +0.002 C 
ATOM     23  C   UNL     1       4.359  -3.838  -5.101  0.00  0.00    +0.022 C 
ENDBRANCH  16  18
ENDBRANCH   1  14
BRANCH   1  24
ATOM     24  N   UNL     1       1.559  -2.700  -0.064  0.00  0.00    -0.254 N 
ATOM     25  C   UNL     1       0.542  -2.785   0.816  0.00  0.00    +0.222 C 
ATOM     26  O   UNL     1      -0.602  -2.841   0.418  0.00  0.00    -0.275 OA
BRANCH  24  31
ATOM     27  C   UNL     1       4.705  -1.370   1.299  0.00  0.00    +0.002 A 
ATOM     28  C   UNL     1       5.490  -2.508   1.305  0.00  0.00    +0.002 A 
ATOM     29  C   UNL     1       4.974  -3.710   0.858  0.00  0.00    +0.022 A 
ATOM     30  C   UNL     1       3.671  -3.778   0.403  0.00  0.00    +0.062 A 
ATOM     31  C   UNL     1       2.879  -2.636   0.396  0.00  0.00    +0.056 A 
ATOM     32  C   UNL     1       3.401  -1.430   0.847  0.00  0.00    +0.025 A 
ATOM     33 CL   UNL     1       3.024  -5.287  -0.160  0.00  0.00    -0.082 Cl
ENDBRANCH  24  31
BRANCH  25  34
ATOM     34  C   UNL     1       0.826  -2.810   2.296  0.00  0.00    +0.107 C 
BRANCH  34  35
ATOM     35  C   UNL     1      -0.492  -2.909   3.067  0.00  0.00    +0.075 C 
BRANCH  35  36
ATOM     36  S   UNL     1      -0.150  -2.939   4.848  0.00  0.00    -0.178 S 
ATOM     37  H   UNL     1      -1.367  -3.027   5.412  0.00  0.00    +0.102 HD
ENDBRANCH  35  36
ENDBRANCH  34  35
ENDBRANCH  25  34
ENDBRANCH   1  24
TORSDOF 11
