REMARK  Name = ZINC13040113
REMARK  13 active torsions:
REMARK  status: ('A' for Active; 'I' for Inactive)
REMARK    1  A    between atoms: C_1  and  C_2
REMARK    2  A    between atoms: C_2  and  C_3
REMARK    3  A    between atoms: C_3  and  N_4
REMARK    4  A    between atoms: C_5  and  N_34
REMARK    5  A    between atoms: C_6  and  N_13
REMARK    6  A    between atoms: N_13  and  C_14
REMARK    7  A    between atoms: C_14  and  C_15
REMARK    8  A    between atoms: C_15  and  O_16
REMARK    9  A    between atoms: O_16  and  C_17
REMARK   10  A    between atoms: C_18  and  C_20
REMARK   11  A    between atoms: C_20  and  O_21
REMARK   12  A    between atoms: O_21  and  C_22
REMARK   13  A    between atoms: C_22  and  C_24
REMARK                            x       y       z     vdW  Elec       q    Type
REMARK                         _______ _______ _______ _____ _____    ______ ____
ROOT
ATOM      1  N   UNL     1      -0.097  -3.244  -2.213  0.00  0.00    -0.259 N 
ATOM      2  C   UNL     1      -0.065  -2.730  -3.460  0.00  0.00    +0.258 C 
ATOM      3  O   UNL     1      -0.102  -1.528  -3.623  0.00  0.00    -0.272 OA
ENDROOT
BRANCH   1   6
ATOM      4  N   UNL     1       0.526  -1.397   0.902  0.00  0.00    -0.280 N 
ATOM      5  C   UNL     1       0.731  -2.232  -0.172  0.00  0.00    +0.127 A 
ATOM      6  C   UNL     1      -0.275  -2.391  -1.103  0.00  0.00    +0.140 A 
ATOM      7  C   UNL     1      -1.479  -1.683  -0.930  0.00  0.00    +0.277 A 
ATOM      8  O   UNL     1      -2.383  -1.801  -1.740  0.00  0.00    -0.266 OA
ATOM      9  N   UNL     1      -1.627  -0.874   0.137  0.00  0.00    -0.273 N 
ATOM     10  H   UNL     1      -2.482  -0.370   0.261  0.00  0.00    +0.173 HD
ATOM     11  C   UNL     1      -0.637  -0.735   1.038  0.00  0.00    +0.331 A 
ATOM     12  O   UNL     1      -0.797   0.001   1.992  0.00  0.00    -0.246 OA
BRANCH   5  13
ATOM     13  N   UNL     1       1.922  -2.903  -0.313  0.00  0.00    -0.343 N 
ATOM     14  H   UNL     1       2.587  -2.864   0.392  0.00  0.00    +0.144 HD
ATOM     15  H   UNL     1       2.097  -3.416  -1.118  0.00  0.00    +0.144 HD
ENDBRANCH   5  13
BRANCH   4  16
ATOM     16  C   UNL     1       1.583  -1.224   1.902  0.00  0.00    +0.128 C 
BRANCH  16  18
ATOM     17  C   UNL     1       2.517  -2.083   4.054  0.00  0.00    +0.005 C 
ATOM     18  C   UNL     1       1.413  -2.264   3.010  0.00  0.00    +0.018 C 
ENDBRANCH  16  18
ENDBRANCH   4  16
ENDBRANCH   1   6
BRANCH   1  19
ATOM     19  C   UNL     1       0.053  -4.687  -2.010  0.00  0.00    +0.142 C 
BRANCH  19  20
ATOM     20  C   UNL     1      -1.330  -5.331  -1.888  0.00  0.00    +0.178 C 
BRANCH  20  21
ATOM     21  O   UNL     1      -2.030  -5.193  -3.126  0.00  0.00    -0.381 OA
ATOM     22  C   UNL     1      -3.340  -5.765  -3.119  0.00  0.00    +0.194 C 
ENDBRANCH  20  21
ENDBRANCH  19  20
ENDBRANCH   1  19
BRANCH   2  23
ATOM     23  C   UNL     1       0.016  -3.650  -4.651  0.00  0.00    +0.328 C 
BRANCH  23  24
ATOM     24  O   UNL     1       0.037  -2.861  -5.871  0.00  0.00    -0.451 OA
BRANCH  24  25
ATOM     25  C   UNL     1       0.109  -3.537  -7.036  0.00  0.00    +0.346 C 
ATOM     26  O   UNL     1       0.153  -4.753  -7.032  0.00  0.00    -0.244 OA
BRANCH  25  27
ATOM     27  C   UNL     1       0.134  -2.808  -8.305  0.00  0.00    +0.097 A 
ATOM     28  C   UNL     1       0.204  -3.303  -9.596  0.00  0.00    +0.026 A 
ATOM     29  C   UNL     1       0.206  -2.393 -10.645  0.00  0.00    -0.036 A 
ATOM     30  C   UNL     1       0.168  -1.082 -10.311  0.00  0.00    -0.006 A 
ATOM     31  S   UNL     1       0.074  -1.046  -8.594  0.00  0.00    -0.086 S 
ATOM     32  C   UNL     1       0.214   0.094 -11.260  0.00  0.00    +0.043 C 
ATOM     33  C   UNL     1      -1.105   0.091 -12.051  0.00  0.00    +0.005 C 
ATOM     34  C   UNL     1      -1.052  -0.937 -13.156  0.00  0.00    +0.001 C 
ATOM     35  C   UNL     1      -1.113  -2.382 -12.732  0.00  0.00    +0.005 C 
ATOM     36  C   UNL     1       0.202  -2.853 -12.108  0.00  0.00    +0.036 C 
ENDBRANCH  25  27
ENDBRANCH  24  25
ENDBRANCH  23  24
ENDBRANCH   2  23
TORSDOF 11
