REMARK  Name = ZINC20432854
REMARK  5 active torsions:
REMARK  status: ('A' for Active; 'I' for Inactive)
REMARK    1  A    between atoms: C_3  and  C_8
REMARK    2  A    between atoms: C_5  and  O_7
REMARK    3  A    between atoms: C_10  and  C_13
REMARK    4  A    between atoms: C_13  and  O_14
REMARK    5  A    between atoms: O_14  and  C_15
REMARK                            x       y       z     vdW  Elec       q    Type
REMARK                         _______ _______ _______ _____ _____    ______ ____
ROOT
ATOM      1  C   UNL     1       2.433   3.933  -0.001  0.00  0.00    +0.202 A 
ATOM      2  N   UNL     1       3.679   3.410  -0.010  0.00  0.00    -0.188 NA
ATOM      3  C   UNL     1       4.492   4.436  -0.019  0.00  0.00    +0.265 A 
ATOM      4  O   UNL     1       3.735   5.538  -0.005  0.00  0.00    -0.334 OA
ATOM      5  N   UNL     1       2.561   5.235   0.006  0.00  0.00    -0.056 NA
ENDROOT
BRANCH   1   8
ATOM      6  C   UNL     1      -0.013   1.076   0.008  0.00  0.00    +0.004 A 
ATOM      7  C   UNL     1       1.175   1.780   0.000  0.00  0.00    +0.012 A 
ATOM      8  C   UNL     1       1.158   3.174   0.008  0.00  0.00    +0.026 A 
ATOM      9  C   UNL     1      -0.059   3.851   0.023  0.00  0.00    +0.057 A 
ATOM     10  C   UNL     1      -1.245   3.137   0.031  0.00  0.00    +0.118 A 
ATOM     11  C   UNL     1      -1.220   1.749   0.017  0.00  0.00    +0.045 A 
BRANCH  10  12
ATOM     12  O   UNL     1      -2.434   3.794   0.045  0.00  0.00    -0.507 OA
ATOM     13  H   UNL     1      -3.377   3.227   0.051  0.00  0.00    +0.292 HD
ENDBRANCH  10  12
ENDBRANCH   1   8
BRANCH   3  14
ATOM     14  C   UNL     1       5.998   4.386  -0.033  0.00  0.00    +0.327 C 
BRANCH  14  15
ATOM     15  O   UNL     1       6.461   4.377  -1.385  0.00  0.00    -0.483 OA
BRANCH  15  16
ATOM     16  C   UNL     1       7.806   4.333  -1.577  0.00  0.00    +0.121 A 
ATOM     17  C   UNL     1       8.662   4.304  -0.486  0.00  0.00    +0.047 A 
ATOM     18  C   UNL     1      10.029   4.254  -0.682  0.00  0.00    +0.023 A 
ATOM     19  C   UNL     1      10.544   4.243  -1.966  0.00  0.00    +0.041 A 
ATOM     20  C   UNL     1       9.692   4.277  -3.056  0.00  0.00    +0.023 A 
ATOM     21  C   UNL     1       8.325   4.322  -2.863  0.00  0.00    +0.047 A 
ATOM     22 CL   UNL     1      12.262   4.186  -2.211  0.00  0.00    -0.084 Cl
ENDBRANCH  15  16
ENDBRANCH  14  15
ENDBRANCH   3  14
TORSDOF 5
