REMARK  Name = ZINC19219204
REMARK  9 active torsions:
REMARK  status: ('A' for Active; 'I' for Inactive)
REMARK    1  A    between atoms: C_1  and  C_2
REMARK    2  A    between atoms: C_8  and  O_35
REMARK    3  A    between atoms: N_15  and  C_18
REMARK    4  A    between atoms: C_18  and  C_19
REMARK    5  A    between atoms: C_19  and  C_21
REMARK    6  A    between atoms: C_19  and  O_34
REMARK    7  A    between atoms: C_22  and  C_33
REMARK    8  A    between atoms: C_28  and  O_31
REMARK    9  A    between atoms: O_31  and  C_32
REMARK                            x       y       z     vdW  Elec       q    Type
REMARK                         _______ _______ _______ _____ _____    ______ ____
ROOT
ATOM      1  C   UNL     1      -2.394  -2.647   8.469  0.00  0.00    +0.044 C 
ATOM      2  C   UNL     1      -2.514  -1.917   7.156  0.00  0.00    -0.050 A 
ATOM      3  C   UNL     1      -2.574  -2.628   5.972  0.00  0.00    +0.007 A 
ATOM      4  C   UNL     1      -2.688  -1.959   4.771  0.00  0.00    +0.046 A 
ATOM      5  C   UNL     1      -2.741  -0.569   4.746  0.00  0.00    +0.127 A 
ATOM      6  C   UNL     1      -2.673   0.141   5.932  0.00  0.00    +0.023 A 
ATOM      7  C   UNL     1      -2.564  -0.537   7.135  0.00  0.00    +0.013 A 
ATOM      8  C   UNL     1      -2.708   1.648   5.949  0.00  0.00    +0.152 C 
ATOM      9  C   UNL     1      -3.259   2.168   4.620  0.00  0.00    +0.084 C 
ATOM     10  C   UNL     1      -2.537   1.442   3.479  0.00  0.00    +0.110 C 
ATOM     11  O   UNL     1      -2.859   0.054   3.544  0.00  0.00    -0.485 OA
ATOM     12  C   UNL     1      -1.026   1.631   3.628  0.00  0.00    +0.029 C 
ATOM     13  C   UNL     1      -0.314   0.958   2.452  0.00  0.00    -0.075 C 
ATOM     14  N   UNL     1      -0.781   1.552   1.192  0.00  0.00    +0.382 N 
ATOM     15  C   UNL     1      -2.221   1.336   1.005  0.00  0.00    -0.075 C 
ATOM     16  C   UNL     1      -2.992   2.019   2.138  0.00  0.00    +0.029 C 
ATOM     17  H   UNL     1      -0.609   2.637   1.249  0.00  0.00    -0.082 HD
ENDROOT
BRANCH   8  18
ATOM     18  O   UNL     1      -3.547   2.092   7.017  0.00  0.00    -0.387 OA
ATOM     19  H   UNL     1      -3.696   3.168   7.189  0.00  0.00    +0.210 HD
ENDBRANCH   8  18
BRANCH  14  20
ATOM     20  C   UNL     1      -0.018   1.031   0.050  0.00  0.00    -0.042 C 
BRANCH  20  21
ATOM     21  C   UNL     1      -0.592   1.600  -1.249  0.00  0.00    +0.130 C 
BRANCH  21  22
ATOM     22  C   UNL     1       0.200   1.077  -2.420  0.00  0.00    +0.007 A 
ATOM     23  C   UNL     1      -0.193   0.137  -3.293  0.00  0.00    +0.019 A 
ATOM     24  N   UNL     1       0.789  -0.078  -4.221  0.00  0.00    -0.358 N 
ATOM     25  H   UNL     1       0.639  -0.820  -5.019  0.00  0.00    +0.166 HD
ATOM     26  C   UNL     1       1.868   0.740  -3.959  0.00  0.00    +0.047 A 
ATOM     27  C   UNL     1       1.542   1.503  -2.823  0.00  0.00    +0.009 A 
ATOM     28  C   UNL     1       2.455   2.434  -2.323  0.00  0.00    +0.056 A 
ATOM     29  C   UNL     1       3.672   2.602  -2.953  0.00  0.00    +0.121 A 
ATOM     30  C   UNL     1       3.990   1.848  -4.079  0.00  0.00    +0.047 A 
ATOM     31  C   UNL     1       3.101   0.921  -4.576  0.00  0.00    +0.030 A 
ATOM     32  C   UNL     1      -1.521  -0.576  -3.258  0.00  0.00    +0.063 C 
BRANCH  29  33
ATOM     33  O   UNL     1       4.565   3.508  -2.471  0.00  0.00    -0.495 OA
ATOM     34  C   UNL     1       5.805   3.631  -3.169  0.00  0.00    +0.277 C 
ENDBRANCH  29  33
ENDBRANCH  21  22
BRANCH  21  35
ATOM     35  O   UNL     1      -0.513   3.027  -1.220  0.00  0.00    -0.389 OA
ATOM     36  H   UNL     1      -0.880   3.615  -2.073  0.00  0.00    +0.210 HD
ENDBRANCH  21  35
ENDBRANCH  20  21
ENDBRANCH  14  20
TORSDOF 6
