REMARK  Name = ZINC28050238
REMARK  8 active torsions:
REMARK  status: ('A' for Active; 'I' for Inactive)
REMARK    1  A    between atoms: C_1  and  C_2
REMARK    2  A    between atoms: C_6  and  N_9
REMARK    3  A    between atoms: C_7  and  C_8
REMARK    4  A    between atoms: C_10  and  C_12
REMARK    5  A    between atoms: C_12  and  C_13
REMARK    6  A    between atoms: N_20  and  N_21
REMARK    7  A    between atoms: C_22  and  C_23
REMARK    8  A    between atoms: C_27  and  O_29
REMARK                            x       y       z     vdW  Elec       q    Type
REMARK                         _______ _______ _______ _____ _____    ______ ____
ROOT
ATOM      1  C   UNL     1       4.341   5.191   1.314  0.00  0.00    +0.150 C 
ATOM      2  C   UNL     1       4.517   3.689   1.122  0.00  0.00    +0.252 C 
ATOM      3  O   UNL     1       5.599   3.144   1.222  0.00  0.00    -0.272 OA
ATOM      4  N   UNL     1       3.425   3.030   0.847  0.00  0.00    -0.157 NA
ATOM      5  C   UNL     1       2.227   3.584   0.722  0.00  0.00    +0.166 C 
ATOM      6  S   UNL     1       2.529   5.319   1.030  0.00  0.00    -0.078 S 
ATOM      7  N   UNL     1       1.040   2.974   0.433  0.00  0.00    -0.217 N 
ATOM      8  H   UNL     1       0.117   3.568   0.366  0.00  0.00    +0.176 HD
ENDROOT
BRANCH   7   9
ATOM      9  N   UNL     1       0.999   1.589   0.222  0.00  0.00    -0.188 NA
ATOM     10  C   UNL     1      -0.094   1.030  -0.200  0.00  0.00    +0.138 C 
BRANCH  10  11
ATOM     11  C   UNL     1      -1.151   1.851  -0.819  0.00  0.00    -0.002 A 
ATOM     12  C   UNL     1      -0.850   3.120  -1.320  0.00  0.00    +0.010 A 
ATOM     13  C   UNL     1      -1.842   3.884  -1.899  0.00  0.00    +0.004 A 
ATOM     14  C   UNL     1      -3.134   3.399  -1.987  0.00  0.00    +0.045 A 
ATOM     15  C   UNL     1      -3.442   2.139  -1.492  0.00  0.00    +0.117 A 
ATOM     16  C   UNL     1      -2.454   1.360  -0.913  0.00  0.00    +0.054 A 
BRANCH  15  17
ATOM     17  O   UNL     1      -4.714   1.667  -1.581  0.00  0.00    -0.507 OA
ATOM     18  H   UNL     1      -4.959   0.668  -1.190  0.00  0.00    +0.292 HD
ENDBRANCH  15  17
ENDBRANCH  10  11
ENDBRANCH   7   9
BRANCH   1  19
ATOM     19  C   UNL     1       5.128   5.984   0.269  0.00  0.00    +0.120 C 
BRANCH  19  21
ATOM     20  N   UNL     1       5.445   8.352  -0.370  0.00  0.00    -0.285 N 
ATOM     21  C   UNL     1       4.855   7.455   0.445  0.00  0.00    +0.219 C 
ATOM     22  O   UNL     1       4.104   7.833   1.320  0.00  0.00    -0.275 OA
ATOM     23  H   UNL     1       6.190   8.019  -1.107  0.00  0.00    +0.155 HD
BRANCH  20  29
ATOM     24  C   UNL     1       6.631  13.066  -1.109  0.00  0.00    +0.044 C 
ATOM     25  C   UNL     1       5.665  12.014  -0.629  0.00  0.00    -0.046 A 
ATOM     26  C   UNL     1       4.444  12.387  -0.098  0.00  0.00    +0.004 A 
ATOM     27  C   UNL     1       3.555  11.425   0.344  0.00  0.00    +0.002 A 
ATOM     28  C   UNL     1       3.882  10.086   0.250  0.00  0.00    +0.023 A 
ATOM     29  C   UNL     1       5.109   9.708  -0.279  0.00  0.00    +0.037 A 
ATOM     30  C   UNL     1       6.000  10.677  -0.721  0.00  0.00    -0.026 A 
ATOM     31  C   UNL     1       7.330  10.270  -1.300  0.00  0.00    +0.046 C 
ENDBRANCH  20  29
ENDBRANCH  19  21
ENDBRANCH   1  19
TORSDOF 6
