REMARK  Name = ZINC21112403
REMARK  8 active torsions:
REMARK  status: ('A' for Active; 'I' for Inactive)
REMARK    1  A    between atoms: C_1  and  C_2
REMARK    2  A    between atoms: C_5  and  N_8
REMARK    3  A    between atoms: N_8  and  S_9
REMARK    4  A    between atoms: S_9  and  C_12
REMARK    5  A    between atoms: C_15  and  C_18
REMARK    6  A    between atoms: C_19  and  C_20
REMARK    7  A    between atoms: C_21  and  N_26
REMARK    8  A    between atoms: C_22  and  C_25
REMARK                            x       y       z     vdW  Elec       q    Type
REMARK                         _______ _______ _______ _____ _____    ______ ____
ROOT
ATOM      1  C   UNL     1       1.117   3.556   0.160  0.00  0.00    +0.109 A 
ATOM      2  C   UNL     1       0.894   2.191   0.182  0.00  0.00    +0.029 A 
ATOM      3  C   UNL     1      -0.391   1.701   0.284  0.00  0.00    +0.010 A 
ATOM      4  C   UNL     1      -1.470   2.587   0.359  0.00  0.00    -0.025 A 
ATOM      5  C   UNL     1      -1.235   3.965   0.341  0.00  0.00    +0.010 A 
ATOM      6  C   UNL     1       0.056   4.440   0.239  0.00  0.00    +0.029 A 
ENDROOT
BRANCH   1   7
ATOM      7  S   UNL     1       2.763   4.173   0.029  0.00  0.00    +0.072 S 
ATOM      8  O   UNL     1       2.725   5.526   0.461  0.00  0.00    -0.150 OA
ATOM      9  O   UNL     1       3.609   3.203   0.632  0.00  0.00    -0.150 OA
BRANCH   7  10
ATOM     10  N   UNL     1       3.149   4.200  -1.581  0.00  0.00    -0.216 N 
ATOM     11  H   UNL     1       3.965   3.569  -1.962  0.00  0.00    +0.174 HD
BRANCH  10  16
ATOM     12  C   UNL     1       0.262   7.550  -5.132  0.00  0.00    +0.044 C 
ATOM     13  C   UNL     1       1.030   6.660  -4.189  0.00  0.00    -0.050 A 
ATOM     14  C   UNL     1       1.947   7.211  -3.313  0.00  0.00    +0.005 A 
ATOM     15  C   UNL     1       2.651   6.398  -2.447  0.00  0.00    +0.025 A 
ATOM     16  C   UNL     1       2.438   5.025  -2.456  0.00  0.00    +0.048 A 
ATOM     17  C   UNL     1       1.519   4.475  -3.341  0.00  0.00    +0.025 A 
ATOM     18  C   UNL     1       0.814   5.294  -4.201  0.00  0.00    +0.005 A 
ENDBRANCH  10  16
ENDBRANCH   7  10
ENDBRANCH   1   7
BRANCH   4  19
ATOM     19  C   UNL     1      -2.845   2.072   0.463  0.00  0.00    +0.011 C 
ATOM     20  C   UNL     1      -3.882   2.929   0.535  0.00  0.00    +0.052 C 
BRANCH  20  21
ATOM     21  C   UNL     1      -5.251   2.416   0.638  0.00  0.00    +0.190 A 
ATOM     22  C   UNL     1      -6.406   3.155   0.720  0.00  0.00    +0.195 A 
ATOM     23  C   UNL     1      -7.423   2.184   0.799  0.00  0.00    +0.111 A 
ATOM     24  N   UNL     1      -6.833   1.022   0.761  0.00  0.00    -0.081 NA
ATOM     25  O   UNL     1      -5.632   1.125   0.667  0.00  0.00    -0.353 OA
ATOM     26  C   UNL     1      -8.904   2.438   0.906  0.00  0.00    +0.071 C 
BRANCH  22  27
ATOM     27  N   UNL     1      -6.549   4.629   0.723  0.00  0.00    +0.062 N 
ATOM     28  O   UNL     1      -6.686   5.230  -0.328  0.00  0.00    -0.126 OA
ATOM     29  O   UNL     1      -6.531   5.240   1.776  0.00  0.00    -0.126 OA
ENDBRANCH  22  27
ENDBRANCH  20  21
ENDBRANCH   4  19
TORSDOF 6
