REMARK  Name = ZINC04089787
REMARK  5 active torsions:
REMARK  status: ('A' for Active; 'I' for Inactive)
REMARK    1  A    between atoms: C_8  and  C_10
REMARK    2  A    between atoms: N_12  and  C_13
REMARK    3  A    between atoms: C_13  and  N_15
REMARK    4  A    between atoms: N_18  and  C_21
REMARK    5  A    between atoms: C_24  and  N_27
REMARK                            x       y       z     vdW  Elec       q    Type
REMARK                         _______ _______ _______ _____ _____    ______ ____
ROOT
ATOM      1  C   UNL     1       6.694   4.001  -0.040  0.00  0.00    +0.140 C 
ATOM      2  S   UNL     1       7.657   2.590   0.077  0.00  0.00    -0.018 S 
ENDROOT
BRANCH   1   3
ATOM      3  N   UNL     1       7.281   5.210  -0.141  0.00  0.00    -0.309 N 
ATOM      4  C   UNL     1       6.477   6.442  -0.135  0.00  0.00    +0.125 C 
ATOM      5  C   UNL     1       7.064   7.395   0.918  0.00  0.00    +0.124 C 
ATOM      6  N   UNL     1       8.495   7.590   0.653  0.00  0.00    -0.327 N 
ATOM      7  C   UNL     1       9.238   6.329   0.787  0.00  0.00    +0.124 C 
ATOM      8  C   UNL     1       8.741   5.333  -0.266  0.00  0.00    +0.125 C 
BRANCH   6   9
ATOM      9  C   UNL     1       9.029   8.576   1.484  0.00  0.00    +0.030 A 
ATOM     10  C   UNL     1      10.120   8.288   2.295  0.00  0.00    +0.025 A 
ATOM     11  C   UNL     1      10.649   9.268   3.112  0.00  0.00    +0.034 A 
ATOM     12  C   UNL     1      10.088  10.531   3.132  0.00  0.00    +0.126 A 
ATOM     13  C   UNL     1       8.998  10.820   2.330  0.00  0.00    +0.034 A 
ATOM     14  C   UNL     1       8.468   9.847   1.507  0.00  0.00    +0.025 A 
BRANCH  12  15
ATOM     15  N   UNL     1      10.654  11.577   4.013  0.00  0.00    +0.056 N 
ATOM     16  O   UNL     1      10.161  12.691   4.031  0.00  0.00    -0.126 OA
ATOM     17  O   UNL     1      11.613  11.324   4.720  0.00  0.00    -0.126 OA
ENDBRANCH  12  15
ENDBRANCH   6   9
ENDBRANCH   1   3
BRANCH   1  20
ATOM     18  C   UNL     1       4.763   2.690  -0.038  0.00  0.00    +0.285 C 
ATOM     19  O   UNL     1       5.447   1.683  -0.051  0.00  0.00    -0.266 OA
ATOM     20  N   UNL     1       5.350   3.903  -0.032  0.00  0.00    -0.261 N 
ATOM     21  H   UNL     1       4.805   4.705  -0.022  0.00  0.00    +0.157 HD
BRANCH  18  29
ATOM     22  C   UNL     1      -1.203   1.744  -0.011  0.00  0.00    +0.001 A 
ATOM     23  C   UNL     1      -1.229   3.132   0.007  0.00  0.00    +0.004 A 
ATOM     24  C   UNL     1      -0.059   3.859   0.005  0.00  0.00    +0.047 A 
ATOM     25  C   UNL     1       1.165   3.200  -0.009  0.00  0.00    +0.136 A 
ATOM     26  C   UNL     1       1.186   1.792  -0.021  0.00  0.00    +0.021 A 
ATOM     27  C   UNL     1      -0.012   1.074  -0.018  0.00  0.00    +0.011 A 
ATOM     28  C   UNL     1       2.599   1.417  -0.033  0.00  0.00    +0.063 A 
ATOM     29  C   UNL     1       3.299   2.582  -0.029  0.00  0.00    +0.191 A 
ATOM     30  O   UNL     1       2.443   3.626  -0.015  0.00  0.00    -0.450 OA
ENDBRANCH  18  29
ENDBRANCH   1  20
TORSDOF 5
