REMARK  Name = ZINC32778465
REMARK  8 active torsions:
REMARK  status: ('A' for Active; 'I' for Inactive)
REMARK    1  A    between atoms: C_1  and  C_2
REMARK    2  A    between atoms: C_2  and  C_3
REMARK    3  A    between atoms: C_2  and  N_4
REMARK    4  A    between atoms: C_5  and  N_9
REMARK    5  A    between atoms: C_10  and  C_12
REMARK    6  A    between atoms: C_12  and  S_13
REMARK    7  A    between atoms: S_13  and  C_14
REMARK    8  A    between atoms: C_18  and  C_21
REMARK                            x       y       z     vdW  Elec       q    Type
REMARK                         _______ _______ _______ _____ _____    ______ ____
ROOT
ATOM      1  S   UNL     1      -2.679  -3.344   4.755  0.00  0.00    -0.075 S 
ENDROOT
BRANCH   1   2
ATOM      2  C   UNL     1      -2.547  -5.088   4.534  0.00  0.00    +0.213 A 
ATOM      3  N   UNL     1      -3.087  -5.923   5.468  0.00  0.00    -0.180 NA
ATOM      4  C   UNL     1      -2.976  -7.260   5.281  0.00  0.00    +0.300 A 
ATOM      5  O   UNL     1      -3.440  -8.051   6.083  0.00  0.00    -0.263 OA
ATOM      6  C   UNL     1      -2.275  -7.720   4.077  0.00  0.00    +0.161 A 
ATOM      7  N   UNL     1      -1.792  -6.816   3.242  0.00  0.00    -0.141 NA
ATOM      8  N   UNL     1      -1.932  -5.559   3.467  0.00  0.00    -0.122 NA
BRANCH   6   9
ATOM      9  C   UNL     1      -2.113  -9.165   3.803  0.00  0.00    +0.034 A 
ATOM     10  C   UNL     1      -2.517 -10.119   4.735  0.00  0.00    +0.039 A 
ATOM     11  C   UNL     1      -2.356 -11.430   4.445  0.00  0.00    +0.080 A 
ATOM     12  S   UNL     1      -1.606 -11.371   2.827  0.00  0.00    -0.065 S 
ATOM     13  C   UNL     1      -1.557  -9.598   2.628  0.00  0.00    +0.089 A 
ATOM     14 CL   UNL     1      -0.959  -8.664   1.293  0.00  0.00    -0.075 Cl
ATOM     15 CL   UNL     1      -2.769 -12.816   5.405  0.00  0.00    -0.076 Cl
ENDBRANCH   6   9
ENDBRANCH   1   2
BRANCH   1  16
ATOM     16  C   UNL     1      -1.818  -2.773   3.269  0.00  0.00    +0.173 C 
BRANCH  16  18
ATOM     17  N   UNL     1      -1.215  -0.615   2.222  0.00  0.00    -0.270 N 
ATOM     18  C   UNL     1      -1.806  -1.266   3.243  0.00  0.00    +0.229 C 
ATOM     19  O   UNL     1      -2.329  -0.640   4.141  0.00  0.00    -0.275 OA
ATOM     20  H   UNL     1      -0.741  -1.182   1.408  0.00  0.00    +0.156 HD
BRANCH  17  22
ATOM     21  N   UNL     1      -0.650   1.558   1.241  0.00  0.00    -0.248 N 
ATOM     22  C   UNL     1      -1.204   0.780   2.198  0.00  0.00    +0.123 A 
ATOM     23  C   UNL     1      -1.747   1.605   3.135  0.00  0.00    +0.065 A 
ATOM     24  C   UNL     1      -1.522   2.922   2.727  0.00  0.00    +0.136 A 
ATOM     25  N   UNL     1      -0.866   2.896   1.595  0.00  0.00    -0.178 NA
BRANCH  21  27
ATOM     26  C   UNL     1       1.484   1.613   0.047  0.00  0.00    +0.032 C 
ATOM     27  C   UNL     1       0.047   1.086   0.042  0.00  0.00    +0.103 C 
ATOM     28  C   UNL     1      -0.679   1.596  -1.204  0.00  0.00    +0.032 C 
ENDBRANCH  21  27
ENDBRANCH  17  22
ENDBRANCH  16  18
ENDBRANCH   1  16
TORSDOF 6
