REMARK  Name = ZINC15391355
REMARK  7 active torsions:
REMARK  status: ('A' for Active; 'I' for Inactive)
REMARK    1  A    between atoms: C_1  and  C_2
REMARK    2  A    between atoms: C_2  and  C_4
REMARK    3  A    between atoms: C_2  and  O_14
REMARK    4  A    between atoms: N_6  and  C_7
REMARK    5  A    between atoms: O_14  and  N_15
REMARK    6  A    between atoms: C_16  and  C_17
REMARK    7  A    between atoms: C_20  and  N_22
REMARK                            x       y       z     vdW  Elec       q    Type
REMARK                         _______ _______ _______ _____ _____    ______ ____
ROOT
ATOM      1  C   UNL     1      -1.693   8.596  -1.373  0.00  0.00    +0.065 C 
ATOM      2  C   UNL     1      -2.137   8.306   0.062  0.00  0.00    +0.286 C 
ENDROOT
BRANCH   2   3
ATOM      3  C   UNL     1      -2.736   9.550   0.664  0.00  0.00    +0.260 C 
ATOM      4  O   UNL     1      -3.886   9.544   1.050  0.00  0.00    -0.271 OA
ATOM      5  N   UNL     1      -1.994  10.671   0.773  0.00  0.00    -0.282 N 
ATOM      6  H   UNL     1      -1.056  10.657   0.526  0.00  0.00    +0.155 HD
BRANCH   5   7
ATOM      7  C   UNL     1      -2.578  11.853   1.241  0.00  0.00    +0.035 A 
ATOM      8  C   UNL     1      -3.562  11.803   2.220  0.00  0.00    +0.023 A 
ATOM      9  C   UNL     1      -4.136  12.972   2.681  0.00  0.00    +0.003 A 
ATOM     10  C   UNL     1      -3.731  14.191   2.169  0.00  0.00    +0.015 A 
ATOM     11  C   UNL     1      -2.751  14.245   1.194  0.00  0.00    +0.020 A 
ATOM     12  C   UNL     1      -2.170  13.079   0.733  0.00  0.00    +0.038 A 
ATOM     13 BR   UNL     1      -2.201  15.915   0.498  0.00  0.00    -0.050 Br
ENDBRANCH   5   7
ENDBRANCH   2   3
BRANCH   2  14
ATOM     14  O   UNL     1      -3.113   7.262   0.057  0.00  0.00    -0.381 OA
BRANCH  14  15
ATOM     15  N   UNL     1      -2.561   5.957   0.055  0.00  0.00    -0.089 NA
ATOM     16  C   UNL     1      -3.343   4.923   0.051  0.00  0.00    +0.199 C 
BRANCH  16  17
ATOM     17  C   UNL     1      -2.772   3.571   0.049  0.00  0.00    +0.152 A 
ATOM     18  C   UNL     1      -3.477   2.403   0.045  0.00  0.00    +0.053 A 
ATOM     19  C   UNL     1      -2.532   1.361   0.039  0.00  0.00    +0.076 A 
ATOM     20  C   UNL     1      -1.310   1.933   0.049  0.00  0.00    +0.280 A 
ATOM     21  O   UNL     1      -1.458   3.267   0.051  0.00  0.00    -0.433 OA
BRANCH  20  22
ATOM     22  N   UNL     1      -0.019   1.210   0.049  0.00  0.00    +0.093 N 
ATOM     23  O   UNL     1      -0.004  -0.008   0.046  0.00  0.00    -0.123 OA
ATOM     24  O   UNL     1       1.028   1.832   0.048  0.00  0.00    -0.123 OA
ENDBRANCH  20  22
ENDBRANCH  16  17
ENDBRANCH  14  15
ENDBRANCH   2  14
TORSDOF 6
