REMARK  Name = ZINC22407661
REMARK  13 active torsions:
REMARK  status: ('A' for Active; 'I' for Inactive)
REMARK    1  A    between atoms: C_1  and  C_2
REMARK    2  A    between atoms: C_3  and  C_34
REMARK    3  A    between atoms: N_4  and  C_27
REMARK    4  A    between atoms: C_5  and  N_9
REMARK    5  A    between atoms: C_6  and  C_7
REMARK    6  A    between atoms: C_10  and  C_12
REMARK    7  A    between atoms: C_12  and  S_13
REMARK    8  A    between atoms: S_13  and  C_14
REMARK    9  A    between atoms: C_17  and  C_24
REMARK   10  A    between atoms: N_18  and  C_19
REMARK   11  A    between atoms: C_19  and  C_20
REMARK   12  A    between atoms: C_20  and  C_21
REMARK   13  A    between atoms: C_27  and  C_28
REMARK                            x       y       z     vdW  Elec       q    Type
REMARK                         _______ _______ _______ _____ _____    ______ ____
ROOT
ATOM      1  N   UNL     1       1.482   3.549   0.070  0.00  0.00    -0.270 N 
ATOM      2  C   UNL     1       2.740   4.027  -0.001  0.00  0.00    +0.229 C 
ATOM      3  O   UNL     1       3.681   3.263   0.024  0.00  0.00    -0.275 OA
ATOM      4  H   UNL     1       0.631   4.245   0.115  0.00  0.00    +0.156 HD
ENDROOT
BRANCH   1   9
ATOM      5  C   UNL     1       0.807  -1.229   1.572  0.00  0.00    +0.047 C 
ATOM      6  C   UNL     1       0.952   0.014   0.732  0.00  0.00    -0.011 A 
ATOM      7  C   UNL     1       0.873   0.090  -0.607  0.00  0.00    +0.022 A 
ATOM      8  N   UNL     1       1.058   1.389  -0.998  0.00  0.00    -0.327 N 
ATOM      9  C   UNL     1       1.260   2.180   0.088  0.00  0.00    +0.124 A 
ATOM     10  C   UNL     1       1.206   1.375   1.217  0.00  0.00    +0.095 A 
ATOM     11  C   UNL     1       0.620  -1.072  -1.533  0.00  0.00    +0.064 C 
BRANCH  10  12
ATOM     12  C   UNL     1       1.362   1.790   2.579  0.00  0.00    +0.103 C 
ATOM     13  N   UNL     1       1.485   2.119   3.659  0.00  0.00    -0.191 NA
ENDBRANCH  10  12
BRANCH   8  14
ATOM     14  C   UNL     1       1.040   1.858  -2.385  0.00  0.00    +0.158 C 
BRANCH  14  15
ATOM     15  C   UNL     1      -0.340   2.360  -2.728  0.00  0.00    -0.028 A 
ATOM     16  C   UNL     1      -1.262   1.507  -3.303  0.00  0.00    +0.005 A 
ATOM     17  C   UNL     1      -2.529   1.966  -3.613  0.00  0.00    +0.000 A 
ATOM     18  C   UNL     1      -2.869   3.281  -3.358  0.00  0.00    +0.000 A 
ATOM     19  C   UNL     1      -1.945   4.136  -2.788  0.00  0.00    +0.000 A 
ATOM     20  C   UNL     1      -0.680   3.675  -2.473  0.00  0.00    +0.005 A 
ENDBRANCH  14  15
ENDBRANCH   8  14
ENDBRANCH   1   9
BRANCH   2  21
ATOM     21  C   UNL     1       2.977   5.511  -0.111  0.00  0.00    +0.173 C 
BRANCH  21  22
ATOM     22  S   UNL     1       4.756   5.835  -0.187  0.00  0.00    -0.077 S 
BRANCH  22  23
ATOM     23  C   UNL     1       4.743   7.592  -0.308  0.00  0.00    +0.192 A 
ATOM     24  N   UNL     1       3.682   8.366  -0.329  0.00  0.00    -0.122 NA
ATOM     25  N   UNL     1       4.040   9.596  -0.425  0.00  0.00    -0.133 NA
ATOM     26  C   UNL     1       5.340   9.681  -0.471  0.00  0.00    +0.137 A 
ATOM     27  N   UNL     1       5.834   8.409  -0.392  0.00  0.00    -0.305 N 
BRANCH  26  28
ATOM     28  C   UNL     1       6.148  10.948  -0.584  0.00  0.00    +0.057 C 
ATOM     29  C   UNL     1       5.402  12.277  -0.447  0.00  0.00    +0.012 C 
ATOM     30  C   UNL     1       5.918  11.826  -1.815  0.00  0.00    +0.012 C 
ENDBRANCH  26  28
BRANCH  27  31
ATOM     31  C   UNL     1       7.242   8.005  -0.400  0.00  0.00    +0.135 C 
BRANCH  31  32
ATOM     32  C   UNL     1       7.696   7.765  -1.841  0.00  0.00    +0.117 C 
BRANCH  32  33
ATOM     33  C   UNL     1       9.145   7.349  -1.849  0.00  0.00    +0.212 C 
ATOM     34  O   UNL     1       9.754   7.254  -0.805  0.00  0.00    -0.276 OA
ATOM     35  N   UNL     1       9.763   7.083  -3.017  0.00  0.00    -0.329 N 
ATOM     36  H   UNL     1      10.821   6.780  -3.022  0.00  0.00    +0.145 HD
ATOM     37  H   UNL     1       9.211   7.170  -3.964  0.00  0.00    +0.145 HD
ENDBRANCH  32  33
ENDBRANCH  31  32
ENDBRANCH  27  31
ENDBRANCH  22  23
ENDBRANCH  21  22
ENDBRANCH   2  21
TORSDOF 11
