REMARK  Name = ZINC03402534
REMARK  9 active torsions:
REMARK  status: ('A' for Active; 'I' for Inactive)
REMARK    1  A    between atoms: C_1  and  C_2
REMARK    2  A    between atoms: C_2  and  C_3
REMARK    3  A    between atoms: C_3  and  C_4
REMARK    4  A    between atoms: C_4  and  C_5
REMARK    5  A    between atoms: C_5  and  N_6
REMARK    6  A    between atoms: C_15  and  S_16
REMARK    7  A    between atoms: S_16  and  C_17
REMARK    8  A    between atoms: C_17  and  C_19
REMARK    9  A    between atoms: C_17  and  C_20
REMARK                            x       y       z     vdW  Elec       q    Type
REMARK                         _______ _______ _______ _____ _____    ______ ____
ROOT
ATOM      1  N   UNL     1      -1.176  -0.693   0.010  0.00  0.00    -0.287 N 
ATOM      2  C   UNL     1      -1.198  -2.039   0.002  0.00  0.00    +0.263 A 
ATOM      3  O   UNL     1      -2.258  -2.641   0.010  0.00  0.00    -0.267 OA
ATOM      4  C   UNL     1       0.042  -2.751  -0.014  0.00  0.00    +0.076 A 
ATOM      5  C   UNL     1       0.248  -4.209  -0.023  0.00  0.00    -0.023 A 
ATOM      6  C   UNL     1       1.519  -4.642  -0.041  0.00  0.00    -0.004 A 
ATOM      7  S   UNL     1       2.509  -3.165  -0.042  0.00  0.00    -0.073 S 
ATOM      8  C   UNL     1       1.203  -1.965  -0.021  0.00  0.00    +0.117 A 
ATOM      9  N   UNL     1       1.157  -0.638  -0.018  0.00  0.00    -0.216 NA
ATOM     10  C   UNL     1       0.002  -0.004   0.002  0.00  0.00    +0.173 A 
ATOM     11  C   UNL     1       1.607  -6.144  -0.054  0.00  0.00    +0.043 C 
ATOM     12  C   UNL     1       0.197  -6.612  -0.477  0.00  0.00    +0.010 C 
ATOM     13  C   UNL     1      -0.676  -5.429  -0.014  0.00  0.00    +0.037 C 
ENDROOT
BRANCH   1  14
ATOM     14  C   UNL     1      -2.441   0.047   0.026  0.00  0.00    +0.127 C 
BRANCH  14  15
ATOM     15  C   UNL     1      -2.895   0.313  -1.410  0.00  0.00    +0.022 C 
BRANCH  15  16
ATOM     16  C   UNL     1      -4.216   1.085  -1.393  0.00  0.00    +0.001 C 
BRANCH  16  18
ATOM     17  C   UNL     1      -5.991   2.123  -2.812  0.00  0.00    +0.004 C 
ATOM     18  C   UNL     1      -4.670   1.351  -2.830  0.00  0.00    -0.003 C 
ENDBRANCH  16  18
ENDBRANCH  15  16
ENDBRANCH  14  15
ENDBRANCH   1  14
BRANCH  10  19
ATOM     19  S   UNL     1      -0.022   1.758   0.012  0.00  0.00    -0.075 S 
BRANCH  19  20
ATOM     20  C   UNL     1       1.756   2.096  -0.004  0.00  0.00    +0.137 C 
ATOM     21  C   UNL     1       2.359   1.600  -1.319  0.00  0.00    +0.029 C 
BRANCH  20  22
ATOM     22  C   UNL     1       1.986   3.580   0.126  0.00  0.00    +0.233 C 
ATOM     23  O   UNL     1       1.095   4.357  -0.140  0.00  0.00    -0.274 OA
ATOM     24  N   UNL     1       3.183   4.043   0.538  0.00  0.00    -0.239 N 
ATOM     25  C   UNL     1       3.389   5.370   0.654  0.00  0.00    +0.303 C 
ATOM     26  O   UNL     1       2.495   6.149   0.387  0.00  0.00    -0.253 OA
ATOM     27  N   UNL     1       4.585   5.833   1.067  0.00  0.00    -0.313 N 
ATOM     28  H   UNL     1       3.896   3.421   0.752  0.00  0.00    +0.159 HD
ATOM     29  H   UNL     1       5.299   5.211   1.280  0.00  0.00    +0.146 HD
ATOM     30  H   UNL     1       4.733   6.788   1.150  0.00  0.00    +0.146 HD
ENDBRANCH  20  22
ENDBRANCH  19  20
ENDBRANCH  10  19
TORSDOF 7
