REMARK  Name = ZINC16789104
REMARK  9 active torsions:
REMARK  status: ('A' for Active; 'I' for Inactive)
REMARK    1  A    between atoms: C_1  and  C_2
REMARK    2  A    between atoms: C_5  and  N_9
REMARK    3  A    between atoms: C_10  and  C_12
REMARK    4  A    between atoms: C_12  and  C_14
REMARK    5  A    between atoms: C_12  and  S_15
REMARK    6  A    between atoms: S_15  and  C_16
REMARK    7  A    between atoms: C_19  and  C_22
REMARK    8  A    between atoms: N_20  and  N_21
REMARK    9  A    between atoms: C_26  and  C_27
REMARK                            x       y       z     vdW  Elec       q    Type
REMARK                         _______ _______ _______ _____ _____    ______ ____
ROOT
ATOM      1  S   UNL     1      -0.284  -7.031   2.692  0.00  0.00    -0.072 S 
ENDROOT
BRANCH   1   2
ATOM      2  C   UNL     1      -0.204  -8.776   2.461  0.00  0.00    +0.209 A 
ATOM      3  N   UNL     1       0.202  -9.401   1.380  0.00  0.00    -0.121 NA
ATOM      4  N   UNL     1       0.131 -10.673   1.552  0.00  0.00    -0.127 NA
ATOM      5  C   UNL     1      -0.325 -10.938   2.754  0.00  0.00    +0.185 A 
ATOM      6  N   UNL     1      -0.549  -9.732   3.375  0.00  0.00    -0.224 N 
BRANCH   5   7
ATOM      7  C   UNL     1      -0.550 -12.280   3.332  0.00  0.00    +0.061 A 
ATOM      8  C   UNL     1      -1.065 -12.594   4.671  0.00  0.00    +0.053 A 
ATOM      9  C   UNL     1      -1.099 -13.934   4.751  0.00  0.00    +0.196 A 
ATOM     10  O   UNL     1      -0.656 -14.453   3.595  0.00  0.00    -0.467 OA
ATOM     11  C   UNL     1      -0.328 -13.481   2.732  0.00  0.00    +0.112 A 
ATOM     12  C   UNL     1       0.200 -13.684   1.335  0.00  0.00    +0.087 C 
ENDBRANCH   5   7
BRANCH   6  13
ATOM     13  N   UNL     1      -1.021  -9.531   4.642  0.00  0.00    -0.295 N 
ATOM     14  H   UNL     1      -2.028  -9.475   4.648  0.00  0.00    +0.163 HD
ATOM     15  H   UNL     1      -0.695 -10.252   5.267  0.00  0.00    +0.163 HD
ENDBRANCH   6  13
ENDBRANCH   1   2
BRANCH   1  16
ATOM     16  C   UNL     1       0.306  -6.353   1.116  0.00  0.00    +0.137 C 
ATOM     17  C   UNL     1       1.775  -6.732   0.915  0.00  0.00    +0.029 C 
BRANCH  16  19
ATOM     18  N   UNL     1       0.057  -4.171  -0.023  0.00  0.00    -0.285 N 
ATOM     19  C   UNL     1       0.174  -4.852   1.134  0.00  0.00    +0.230 C 
ATOM     20  O   UNL     1       0.172  -4.256   2.191  0.00  0.00    -0.274 OA
ATOM     21  H   UNL     1      -0.009  -4.651  -0.863  0.00  0.00    +0.155 HD
BRANCH  18  26
ATOM     22  C   UNL     1      -0.048   1.502   0.013  0.00  0.00    +0.047 C 
ATOM     23  C   UNL     1      -0.020  -0.004   0.004  0.00  0.00    -0.015 A 
ATOM     24  C   UNL     1       0.592  -0.677  -1.038  0.00  0.00    +0.008 A 
ATOM     25  C   UNL     1       0.619  -2.058  -1.049  0.00  0.00    +0.024 A 
ATOM     26  C   UNL     1       0.031  -2.772  -0.013  0.00  0.00    +0.036 A 
ATOM     27  C   UNL     1      -0.582  -2.096   1.032  0.00  0.00    +0.062 A 
ATOM     28  C   UNL     1      -0.602  -0.713   1.042  0.00  0.00    +0.128 A 
ATOM     29  F   UNL     1      -1.194  -0.052   2.061  0.00  0.00    -0.205 F 
ENDBRANCH  18  26
ENDBRANCH  16  19
ENDBRANCH   1  16
TORSDOF 6
