REMARK  Name = ZINC08723933
REMARK  9 active torsions:
REMARK  status: ('A' for Active; 'I' for Inactive)
REMARK    1  A    between atoms: C_1  and  C_2
REMARK    2  A    between atoms: C_2  and  O_3
REMARK    3  A    between atoms: O_3  and  C_4
REMARK    4  A    between atoms: C_4  and  C_6
REMARK    5  A    between atoms: C_7  and  C_20
REMARK    6  A    between atoms: C_12  and  C_14
REMARK    7  A    between atoms: C_20  and  O_21
REMARK    8  A    between atoms: O_21  and  C_22
REMARK    9  A    between atoms: C_22  and  C_24
REMARK                            x       y       z     vdW  Elec       q    Type
REMARK                         _______ _______ _______ _____ _____    ______ ____
ROOT
ATOM      1  C   UNL     1       1.037   9.446  -2.361  0.00  0.00    +0.081 C 
ATOM      2  C   UNL     1       1.435   8.844  -1.220  0.00  0.00    +0.061 C 
ATOM      3  N   UNL     1       2.759   8.742  -0.902  0.00  0.00    -0.269 N 
ATOM      4  C   UNL     1       3.746   9.222  -1.669  0.00  0.00    +0.304 C 
ATOM      5  O   UNL     1       4.896   9.083  -1.301  0.00  0.00    -0.252 OA
ATOM      6  N   UNL     1       3.506   9.853  -2.835  0.00  0.00    -0.288 N 
ATOM      7  C   UNL     1       2.108  10.015  -3.270  0.00  0.00    +0.144 C 
ATOM      8  H   UNL     1       2.998   8.298  -0.073  0.00  0.00    +0.156 HD
ATOM      9  H   UNL     1       4.236  10.192  -3.376  0.00  0.00    +0.151 HD
ENDROOT
BRANCH   7  10
ATOM     10  C   UNL     1       1.962   9.360  -4.619  0.00  0.00    -0.022 A 
ATOM     11  C   UNL     1       2.603   8.163  -4.879  0.00  0.00    +0.006 A 
ATOM     12  C   UNL     1       2.465   7.560  -6.116  0.00  0.00    +0.000 A 
ATOM     13  C   UNL     1       1.695   8.159  -7.095  0.00  0.00    +0.000 A 
ATOM     14  C   UNL     1       1.058   9.359  -6.836  0.00  0.00    +0.000 A 
ATOM     15  C   UNL     1       1.192   9.959  -5.598  0.00  0.00    +0.006 A 
ENDBRANCH   7  10
BRANCH   1  16
ATOM     16  C   UNL     1      -0.334   9.547  -2.695  0.00  0.00    +0.339 C 
ATOM     17  O   UNL     1      -1.171   8.993  -2.007  0.00  0.00    -0.245 OA
BRANCH  16  18
ATOM     18  O   UNL     1      -0.715  10.257  -3.778  0.00  0.00    -0.462 OA
BRANCH  18  20
ATOM     19  C   UNL     1      -2.351  11.159  -5.311  0.00  0.00    +0.048 C 
ATOM     20  C   UNL     1      -2.115  10.316  -4.056  0.00  0.00    +0.229 C 
ENDBRANCH  18  20
ENDBRANCH  16  18
ENDBRANCH   1  16
BRANCH   2  21
ATOM     21  C   UNL     1       0.402   8.269  -0.286  0.00  0.00    +0.283 C 
BRANCH  21  22
ATOM     22  O   UNL     1       1.060   7.728   0.890  0.00  0.00    -0.456 OA
BRANCH  22  23
ATOM     23  C   UNL     1       0.274   7.175   1.827  0.00  0.00    +0.349 C 
ATOM     24  O   UNL     1      -0.923   7.144   1.671  0.00  0.00    -0.247 OA
BRANCH  23  25
ATOM     25  C   UNL     1       0.887   6.593   3.075  0.00  0.00    +0.289 C 
ATOM     26  C   UNL     1       1.540   7.708   3.892  0.00  0.00    +0.092 C 
ATOM     27  C   UNL     1       1.939   7.197   5.250  0.00  0.00    -0.029 A 
ATOM     28  C   UNL     1       2.909   7.858   5.978  0.00  0.00    +0.004 A 
ATOM     29  C   UNL     1       3.273   7.398   7.230  0.00  0.00    +0.000 A 
ATOM     30  C   UNL     1       2.670   6.274   7.767  0.00  0.00    +0.001 A 
ATOM     31  C   UNL     1       1.700   5.601   7.051  0.00  0.00    +0.015 A 
ATOM     32  C   UNL     1       1.333   6.061   5.787  0.00  0.00    +0.062 A 
ATOM     33  C   UNL     1       0.302   5.346   5.001  0.00  0.00    +0.340 C 
ATOM     34  O   UNL     1      -0.120   4.261   5.347  0.00  0.00    -0.245 OA
ATOM     35  O   UNL     1      -0.151   5.956   3.876  0.00  0.00    -0.446 OA
ENDBRANCH  23  25
ENDBRANCH  22  23
ENDBRANCH  21  22
ENDBRANCH   2  21
TORSDOF 8
