REMARK  Name = ZINC33024670
REMARK  9 active torsions:
REMARK  status: ('A' for Active; 'I' for Inactive)
REMARK    1  A    between atoms: C_1  and  C_2
REMARK    2  A    between atoms: C_2  and  C_3
REMARK    3  A    between atoms: C_3  and  C_4
REMARK    4  A    between atoms: C_4  and  C_5
REMARK    5  A    between atoms: C_5  and  N_6
REMARK    6  A    between atoms: C_7  and  C_9
REMARK    7  A    between atoms: C_15  and  C_17
REMARK    8  A    between atoms: C_20  and  C_22
REMARK    9  A    between atoms: N_24  and  C_25
REMARK                            x       y       z     vdW  Elec       q    Type
REMARK                         _______ _______ _______ _____ _____    ______ ____
ROOT
ATOM      1  C   UNL     1      -0.714  -2.761   0.049  0.00  0.00    +0.187 A 
ATOM      2  N   UNL     1      -1.581  -3.770   0.076  0.00  0.00    -0.136 NA
ATOM      3  N   UNL     1      -1.168  -4.964   0.072  0.00  0.00    -0.136 NA
ATOM      4  C   UNL     1       0.136  -5.224   0.040  0.00  0.00    +0.187 A 
ATOM      5  S   UNL     1       0.797  -3.617   0.015  0.00  0.00    -0.036 S 
ENDROOT
BRANCH   1  12
ATOM      6  C   UNL     1      -4.797  -0.058   0.859  0.00  0.00    +0.078 C 
ATOM      7  C   UNL     1      -4.401  -1.537   0.838  0.00  0.00    +0.032 C 
ATOM      8  C   UNL     1      -3.354  -1.766  -0.256  0.00  0.00    +0.109 C 
ATOM      9  N   UNL     1      -2.231  -0.843  -0.037  0.00  0.00    -0.296 N 
ATOM     10  C   UNL     1      -2.512   0.593   0.095  0.00  0.00    +0.109 C 
ATOM     11  C   UNL     1      -3.568   0.796   1.180  0.00  0.00    +0.032 C 
ATOM     12  C   UNL     1      -0.968  -1.307   0.048  0.00  0.00    +0.274 C 
ATOM     13  O   UNL     1      -0.039  -0.527   0.122  0.00  0.00    -0.268 OA
BRANCH   6  15
ATOM     14  N   UNL     1      -6.355   1.399   2.111  0.00  0.00    -0.315 N 
ATOM     15  C   UNL     1      -5.852   0.164   1.912  0.00  0.00    +0.216 C 
ATOM     16  O   UNL     1      -6.248  -0.767   2.579  0.00  0.00    -0.276 OA
ATOM     17  H   UNL     1      -5.995   2.243   1.505  0.00  0.00    +0.149 HD
BRANCH  14  18
ATOM     18  C   UNL     1      -7.380   1.615   3.134  0.00  0.00    +0.104 C 
BRANCH  18  19
ATOM     19  C   UNL     1      -7.776   3.093   3.155  0.00  0.00    +0.019 C 
BRANCH  19  20
ATOM     20  C   UNL     1      -8.847   3.319   4.224  0.00  0.00    +0.001 C 
BRANCH  20  22
ATOM     21  C   UNL     1     -10.314   5.022   5.314  0.00  0.00    +0.004 C 
ATOM     22  C   UNL     1      -9.243   4.796   4.245  0.00  0.00    -0.003 C 
ENDBRANCH  20  22
ENDBRANCH  19  20
ENDBRANCH  18  19
ENDBRANCH  14  18
ENDBRANCH   6  15
ENDBRANCH   1  12
BRANCH   4  23
ATOM     23  C   UNL     1       0.833  -6.525   0.028  0.00  0.00    +0.275 C 
ATOM     24  O   UNL     1       2.048  -6.563  -0.004  0.00  0.00    -0.268 OA
ATOM     25  N   UNL     1       0.123  -7.670   0.052  0.00  0.00    -0.280 N 
ATOM     26  H   UNL     1      -0.975  -7.638  -0.009  0.00  0.00    +0.155 HD
BRANCH  25  27
ATOM     27  C   UNL     1       0.783  -8.900   0.154  0.00  0.00    +0.037 A 
ATOM     28  C   UNL     1       0.274 -10.017  -0.496  0.00  0.00    +0.027 A 
ATOM     29  C   UNL     1       0.926 -11.231  -0.400  0.00  0.00    +0.051 A 
ATOM     30  C   UNL     1       2.085 -11.341   0.352  0.00  0.00    +0.166 A 
ATOM     31  C   UNL     1       2.595 -10.223   1.010  0.00  0.00    +0.168 A 
ATOM     32  C   UNL     1       1.943  -9.006   0.909  0.00  0.00    +0.072 A 
ATOM     33  O   UNL     1       3.729 -10.589   1.675  0.00  0.00    -0.453 OA
ATOM     34  C   UNL     1       3.683 -12.026   1.754  0.00  0.00    +0.466 C 
ATOM     35  O   UNL     1       2.901 -12.406   0.607  0.00  0.00    -0.453 OA
ENDBRANCH  25  27
ENDBRANCH   4  23
TORSDOF 8
