REMARK  Name = ZINC06015150
REMARK  12 active torsions:
REMARK  status: ('A' for Active; 'I' for Inactive)
REMARK    1  A    between atoms: C_1  and  C_2
REMARK    2  A    between atoms: C_2  and  C_3
REMARK    3  A    between atoms: C_2  and  O_4
REMARK    4  A    between atoms: O_4  and  C_5
REMARK    5  A    between atoms: C_5  and  C_6
REMARK    6  A    between atoms: C_6  and  C_8
REMARK    7  A    between atoms: C_6  and  O_34
REMARK    8  A    between atoms: C_8  and  N_9
REMARK    9  A    between atoms: N_17  and  C_33
REMARK   10  A    between atoms: N_21  and  N_22
REMARK   11  A    between atoms: C_23  and  C_24
REMARK   12  A    between atoms: C_25  and  C_26
REMARK                            x       y       z     vdW  Elec       q    Type
REMARK                         _______ _______ _______ _____ _____    ______ ____
ROOT
ATOM      1  N   UNL     1       7.140   8.386  -0.647  0.00  0.00    -0.302 N 
ATOM      2  C   UNL     1       6.685   9.695  -0.717  0.00  0.00    +0.153 A 
ATOM      3  C   UNL     1       7.311  10.949  -0.839  0.00  0.00    +0.280 A 
ATOM      4  O   UNL     1       8.525  11.027  -0.908  0.00  0.00    -0.265 OA
ATOM      5  N   UNL     1       6.553  12.064  -0.878  0.00  0.00    -0.273 N 
ATOM      6  H   UNL     1       6.994  12.957  -0.965  0.00  0.00    +0.173 HD
ATOM      7  C   UNL     1       5.213  11.993  -0.803  0.00  0.00    +0.331 A 
ATOM      8  O   UNL     1       4.561  13.019  -0.842  0.00  0.00    -0.246 OA
ATOM      9  N   UNL     1       4.574  10.814  -0.685  0.00  0.00    -0.280 N 
ATOM     10  C   UNL     1       5.298   9.633  -0.639  0.00  0.00    +0.170 A 
ATOM     11  N   UNL     1       4.957   8.348  -0.535  0.00  0.00    -0.195 NA
ATOM     12  C   UNL     1       6.039   7.595  -0.533  0.00  0.00    +0.218 A 
ATOM     13  N   UNL     1       6.052   6.222  -0.437  0.00  0.00    -0.206 N 
ATOM     14  C   UNL     1       3.111  10.779  -0.606  0.00  0.00    +0.155 C 
ATOM     15  H   UNL     1       6.896   5.743  -0.447  0.00  0.00    +0.177 HD
ENDROOT
BRANCH  13  16
ATOM     16  N   UNL     1       4.847   5.516  -0.323  0.00  0.00    -0.187 NA
ATOM     17  C   UNL     1       4.860   4.217  -0.232  0.00  0.00    +0.145 C 
BRANCH  17  18
ATOM     18  C   UNL     1       3.640   3.502  -0.116  0.00  0.00    +0.038 C 
ATOM     19  C   UNL     1       3.653   2.155  -0.022  0.00  0.00    +0.024 C 
ATOM     20 BR   UNL     1       1.996   4.436  -0.095  0.00  0.00    -0.049 Br
BRANCH  19  21
ATOM     21  C   UNL     1       2.390   1.402  -0.072  0.00  0.00    -0.024 A 
ATOM     22  C   UNL     1       2.229   0.247   0.700  0.00  0.00    +0.008 A 
ATOM     23  C   UNL     1       1.042  -0.453   0.648  0.00  0.00    +0.001 A 
ATOM     24  C   UNL     1       0.011  -0.015  -0.165  0.00  0.00    +0.000 A 
ATOM     25  C   UNL     1       0.163   1.127  -0.932  0.00  0.00    +0.001 A 
ATOM     26  C   UNL     1       1.343   1.838  -0.891  0.00  0.00    +0.008 A 
ENDBRANCH  19  21
ENDBRANCH  17  18
ENDBRANCH  13  16
BRANCH   1  27
ATOM     27  C   UNL     1       8.535   7.941  -0.689  0.00  0.00    +0.159 C 
BRANCH  27  28
ATOM     28  C   UNL     1       8.945   7.684  -2.140  0.00  0.00    +0.160 C 
BRANCH  28  29
ATOM     29  O   UNL     1       8.918   8.913  -2.869  0.00  0.00    -0.388 OA
ATOM     30  H   UNL     1       9.514   9.590  -2.520  0.00  0.00    +0.210 HD
ENDBRANCH  28  29
BRANCH  28  31
ATOM     31  C   UNL     1      10.359   7.101  -2.175  0.00  0.00    +0.193 C 
BRANCH  31  32
ATOM     32  O   UNL     1      10.698   6.752  -3.519  0.00  0.00    -0.374 OA
BRANCH  32  34
ATOM     33  C   UNL     1      12.018   5.219  -4.840  0.00  0.00    +0.037 C 
ATOM     34  C   UNL     1      12.006   6.196  -3.663  0.00  0.00    +0.112 C 
ATOM     35  C   UNL     1      13.012   7.319  -3.922  0.00  0.00    +0.037 C 
ENDBRANCH  32  34
ENDBRANCH  31  32
ENDBRANCH  28  31
ENDBRANCH  27  28
ENDBRANCH   1  27
TORSDOF 9
