REMARK  Name = ZINC23535769
REMARK  8 active torsions:
REMARK  status: ('A' for Active; 'I' for Inactive)
REMARK    1  A    between atoms: C_1  and  C_2
REMARK    2  A    between atoms: C_3  and  N_11
REMARK    3  A    between atoms: C_7  and  N_8
REMARK    4  A    between atoms: C_12  and  C_14
REMARK    5  A    between atoms: C_14  and  C_16
REMARK    6  A    between atoms: C_14  and  S_17
REMARK    7  A    between atoms: S_17  and  C_18
REMARK    8  A    between atoms: N_27  and  C_28
REMARK                            x       y       z     vdW  Elec       q    Type
REMARK                         _______ _______ _______ _____ _____    ______ ____
ROOT
ATOM      1  N   UNL     1       4.417   2.635   4.651  0.00  0.00    -0.284 N 
ATOM      2  C   UNL     1       4.095   1.985   3.514  0.00  0.00    +0.230 C 
ATOM      3  O   UNL     1       4.936   1.337   2.928  0.00  0.00    -0.274 OA
ATOM      4  H   UNL     1       3.679   3.291   5.137  0.00  0.00    +0.155 HD
ENDROOT
BRANCH   1   7
ATOM      5  C   UNL     1       5.342   4.618   6.471  0.00  0.00    +0.048 C 
ATOM      6  C   UNL     1       6.179   3.419   6.105  0.00  0.00    +0.001 A 
ATOM      7  C   UNL     1       5.688   2.475   5.212  0.00  0.00    +0.039 A 
ATOM      8  C   UNL     1       6.465   1.375   4.874  0.00  0.00    +0.024 A 
ATOM      9  C   UNL     1       7.720   1.220   5.429  0.00  0.00    +0.004 A 
ATOM     10  C   UNL     1       8.203   2.159   6.322  0.00  0.00    +0.033 A 
ATOM     11  C   UNL     1       7.432   3.255   6.661  0.00  0.00    +0.131 A 
BRANCH  11  12
ATOM     12  N   UNL     1       7.953   4.258   7.618  0.00  0.00    +0.057 N 
ATOM     13  O   UNL     1       9.107   4.192   8.000  0.00  0.00    -0.126 OA
ATOM     14  O   UNL     1       7.227   5.148   8.022  0.00  0.00    -0.126 OA
ENDBRANCH  11  12
ENDBRANCH   1   7
BRANCH   2  15
ATOM     15  C   UNL     1       2.691   2.065   2.973  0.00  0.00    +0.137 C 
ATOM     16  C   UNL     1       1.793   1.092   3.738  0.00  0.00    +0.029 C 
BRANCH  15  17
ATOM     17  S   UNL     1       2.697   1.627   1.216  0.00  0.00    -0.075 S 
BRANCH  17  18
ATOM     18  C   UNL     1       1.010   1.944   0.817  0.00  0.00    +0.173 A 
ATOM     19  N   UNL     1       0.191   2.377   1.753  0.00  0.00    -0.216 NA
ATOM     20  C   UNL     1      -1.085   2.624   1.481  0.00  0.00    +0.116 A 
ATOM     21  C   UNL     1      -1.624   2.438   0.195  0.00  0.00    +0.072 A 
ATOM     22  C   UNL     1      -3.037   2.755   0.070  0.00  0.00    +0.023 A 
ATOM     23  C   UNL     1      -3.708   3.188   1.147  0.00  0.00    +0.048 A 
ATOM     24  S   UNL     1      -2.470   3.201   2.429  0.00  0.00    -0.077 S 
ATOM     25  C   UNL     1      -0.710   1.970  -0.802  0.00  0.00    +0.263 A 
ATOM     26  O   UNL     1      -1.086   1.784  -1.946  0.00  0.00    -0.267 OA
ATOM     27  N   UNL     1       0.569   1.735  -0.458  0.00  0.00    -0.290 N 
ATOM     28  C   UNL     1       1.509   1.252  -1.473  0.00  0.00    +0.154 C 
ENDBRANCH  17  18
ENDBRANCH  15  17
ENDBRANCH   2  15
TORSDOF 5
