REMARK  Name = ZINC63386008
REMARK  9 active torsions:
REMARK  status: ('A' for Active; 'I' for Inactive)
REMARK    1  A    between atoms: C_1  and  C_2
REMARK    2  A    between atoms: C_2  and  O_3
REMARK    3  A    between atoms: O_3  and  C_4
REMARK    4  A    between atoms: C_4  and  C_6
REMARK    5  A    between atoms: C_10  and  N_12
REMARK    6  A    between atoms: C_13  and  C_15
REMARK    7  A    between atoms: N_26  and  C_28
REMARK    8  A    between atoms: C_28  and  C_29
REMARK    9  A    between atoms: C_29  and  C_30
REMARK                            x       y       z     vdW  Elec       q    Type
REMARK                         _______ _______ _______ _____ _____    ______ ____
ROOT
ATOM      1  C   UNL     1       2.847  -7.601  -5.375  0.00  0.00    +0.123 C 
ATOM      2  C   UNL     1       3.759  -8.338  -4.318  0.00  0.00    +0.155 C 
ATOM      3  C   UNL     1       3.267  -9.787  -4.423  0.00  0.00    +0.004 C 
ATOM      4  C   UNL     1       3.724 -10.221  -5.588  0.00  0.00    +0.008 C 
ATOM      5  C   UNL     1       4.537  -9.076  -6.164  0.00  0.00    +0.116 C 
ATOM      6  C   UNL     1       3.554  -7.935  -6.663  0.00  0.00    +0.127 C 
ATOM      7  C   UNL     1       2.979  -8.605  -7.844  0.00  0.00    +0.223 C 
ATOM      8  O   UNL     1       1.842  -8.498  -8.252  0.00  0.00    -0.275 OA
ATOM      9  N   UNL     1       3.977  -9.371  -8.395  0.00  0.00    -0.298 N 
ATOM     10  C   UNL     1       5.143  -9.403  -7.494  0.00  0.00    +0.147 C 
ATOM     11  O   UNL     1       5.067  -8.402  -5.025  0.00  0.00    -0.359 OA
ENDROOT
BRANCH   1  13
ATOM     12  N   UNL     1       2.305  -5.619  -3.998  0.00  0.00    -0.285 N 
ATOM     13  C   UNL     1       2.834  -6.114  -5.134  0.00  0.00    +0.224 C 
ATOM     14  O   UNL     1       3.301  -5.361  -5.963  0.00  0.00    -0.275 OA
ATOM     15  H   UNL     1       2.002  -6.223  -3.301  0.00  0.00    +0.155 HD
BRANCH  12  20
ATOM     16  C   UNL     1       1.837  -2.037  -4.733  0.00  0.00    +0.061 A 
ATOM     17  C   UNL     1       1.974  -1.491  -3.455  0.00  0.00    +0.015 A 
ATOM     18  C   UNL     1       2.217  -2.316  -2.376  0.00  0.00    +0.003 A 
ATOM     19  C   UNL     1       2.327  -3.683  -2.554  0.00  0.00    +0.023 A 
ATOM     20  C   UNL     1       2.192  -4.235  -3.822  0.00  0.00    +0.034 A 
ATOM     21  C   UNL     1       1.942  -3.417  -4.912  0.00  0.00    +0.038 A 
BRANCH  16  22
ATOM     22  C   UNL     1       1.577  -1.157  -5.891  0.00  0.00    +0.339 C 
ATOM     23  O   UNL     1       1.453  -1.634  -7.001  0.00  0.00    -0.245 OA
BRANCH  22  24
ATOM     24  O   UNL     1       1.476   0.175  -5.715  0.00  0.00    -0.461 OA
BRANCH  24  26
ATOM     25  C   UNL     1       1.143   2.442  -6.484  0.00  0.00    +0.048 C 
ATOM     26  C   UNL     1       1.224   0.966  -6.878  0.00  0.00    +0.229 C 
ENDBRANCH  24  26
ENDBRANCH  22  24
ENDBRANCH  16  22
ENDBRANCH  12  20
ENDBRANCH   1  13
BRANCH   9  27
ATOM     27  C   UNL     1       3.886 -10.088  -9.670  0.00  0.00    +0.112 C 
BRANCH  27  28
ATOM     28  C   UNL     1       4.365  -9.177 -10.802  0.00  0.00    +0.052 C 
BRANCH  28  29
ATOM     29  C   UNL     1       4.271  -9.914 -12.114  0.00  0.00    -0.040 C 
ATOM     30  C   UNL     1       3.251  -9.867 -13.001  0.00  0.00    -0.001 A 
ATOM     31  C   UNL     1       1.974  -9.145 -13.010  0.00  0.00    +0.010 A 
ATOM     32  C   UNL     1       1.138  -9.303 -14.062  0.00  0.00    +0.001 A 
ATOM     33  C   UNL     1       1.461 -10.137 -15.141  0.00  0.00    +0.002 A 
ATOM     34  C   UNL     1       2.616 -10.833 -15.204  0.00  0.00    +0.026 A 
ATOM     35  C   UNL     1       3.569 -10.742 -14.152  0.00  0.00    +0.043 A 
ATOM     36  N   UNL     1       4.739 -11.307 -13.983  0.00  0.00    -0.380 N 
ATOM     37  C   UNL     1       5.300 -10.850 -12.707  0.00  0.00    +0.144 C 
ATOM     38  H   UNL     1       5.165 -11.922 -14.600  0.00  0.00    +0.160 HD
ENDBRANCH  28  29
ENDBRANCH  27  28
ENDBRANCH   9  27
TORSDOF 8
