REMARK  Name = ZINC63083774
REMARK  11 active torsions:
REMARK  status: ('A' for Active; 'I' for Inactive)
REMARK    1  A    between atoms: C_1  and  N_2
REMARK    2  A    between atoms: N_2  and  C_3
REMARK    3  A    between atoms: N_2  and  S_23
REMARK    4  A    between atoms: C_3  and  C_4
REMARK    5  A    between atoms: N_6  and  C_7
REMARK    6  A    between atoms: C_7  and  C_9
REMARK    7  A    between atoms: C_7  and  C_19
REMARK    8  A    between atoms: C_9  and  C_10
REMARK    9  A    between atoms: C_19  and  O_21
REMARK   10  A    between atoms: O_21  and  C_22
REMARK   11  A    between atoms: S_23  and  C_26
REMARK                            x       y       z     vdW  Elec       q    Type
REMARK                         _______ _______ _______ _____ _____    ______ ____
ROOT
ATOM      1  C   UNL     1      -1.384  -0.909   1.776  0.00  0.00    +0.229 C 
ATOM      2  O   UNL     1      -2.315  -0.455   1.145  0.00  0.00    -0.274 OA
ATOM      3  N   UNL     1      -1.610  -1.563   2.933  0.00  0.00    -0.301 N 
ATOM      4  H   UNL     1      -0.866  -1.926   3.438  0.00  0.00    +0.150 HD
ENDROOT
BRANCH   1   5
ATOM      5  C   UNL     1       0.024  -0.743   1.267  0.00  0.00    +0.204 C 
BRANCH   5   7
ATOM      6  C   UNL     1      -0.018   1.461   0.010  0.00  0.00    +0.132 C 
ATOM      7  N   UNL     1       0.002  -0.004   0.002  0.00  0.00    -0.171 NA
BRANCH   7   8
ATOM      8  S   UNL     1      -0.000  -0.824  -1.437  0.00  0.00    +0.061 S 
ATOM      9  O   UNL     1      -0.531  -2.115  -1.167  0.00  0.00    -0.153 OA
ATOM     10  O   UNL     1      -0.572   0.049  -2.401  0.00  0.00    -0.153 OA
BRANCH   8  11
ATOM     11  C   UNL     1       1.682  -1.059  -1.905  0.00  0.00    +0.106 A 
ATOM     12  C   UNL     1       2.323  -0.109  -2.677  0.00  0.00    +0.031 A 
ATOM     13  C   UNL     1       3.643  -0.292  -3.045  0.00  0.00    +0.040 A 
ATOM     14  C   UNL     1       4.322  -1.428  -2.640  0.00  0.00    +0.124 A 
ATOM     15  C   UNL     1       3.679  -2.380  -1.867  0.00  0.00    +0.040 A 
ATOM     16  C   UNL     1       2.361  -2.192  -1.496  0.00  0.00    +0.031 A 
ATOM     17  F   UNL     1       5.612  -1.608  -2.999  0.00  0.00    -0.205 F 
ENDBRANCH   8  11
ENDBRANCH   7   8
ENDBRANCH   5   7
ENDBRANCH   1   5
BRANCH   3  18
ATOM     18  C   UNL     1      -2.979  -1.724   3.429  0.00  0.00    +0.186 C 
BRANCH  18  19
ATOM     19  C   UNL     1      -3.378  -0.499   4.210  0.00  0.00    +0.328 C 
ATOM     20  O   UNL     1      -2.599   0.415   4.340  0.00  0.00    -0.249 OA
BRANCH  19  21
ATOM     21  O   UNL     1      -4.599  -0.423   4.762  0.00  0.00    -0.467 OA
ATOM     22  C   UNL     1      -4.910   0.767   5.489  0.00  0.00    +0.280 C 
ENDBRANCH  19  21
ENDBRANCH  18  19
BRANCH  18  23
ATOM     23  C   UNL     1      -3.052  -2.954   4.336  0.00  0.00    +0.067 C 
BRANCH  23  24
ATOM     24  C   UNL     1      -2.773  -4.193   3.525  0.00  0.00    -0.039 C 
ATOM     25  C   UNL     1      -1.583  -4.822   3.384  0.00  0.00    -0.001 A 
ATOM     26  C   UNL     1      -0.245  -4.549   3.921  0.00  0.00    +0.010 A 
ATOM     27  C   UNL     1       0.774  -5.376   3.594  0.00  0.00    +0.001 A 
ATOM     28  C   UNL     1       0.584  -6.484   2.756  0.00  0.00    +0.002 A 
ATOM     29  C   UNL     1      -0.616  -6.799   2.224  0.00  0.00    +0.026 A 
ATOM     30  C   UNL     1      -1.758  -5.998   2.502  0.00  0.00    +0.043 A 
ATOM     31  N   UNL     1      -3.006  -6.093   2.113  0.00  0.00    -0.380 N 
ATOM     32  C   UNL     1      -3.767  -4.989   2.710  0.00  0.00    +0.144 C 
ATOM     33  H   UNL     1      -3.367  -6.780   1.531  0.00  0.00    +0.160 HD
ENDBRANCH  23  24
ENDBRANCH  18  23
ENDBRANCH   3  18
TORSDOF 9
