REMARK  Name = ZINC19631897
REMARK  7 active torsions:
REMARK  status: ('A' for Active; 'I' for Inactive)
REMARK    1  A    between atoms: C_4  and  N_23
REMARK    2  A    between atoms: C_5  and  C_7
REMARK    3  A    between atoms: N_9  and  N_10
REMARK    4  A    between atoms: C_11  and  C_12
REMARK    5  A    between atoms: C_15  and  N_18
REMARK    6  A    between atoms: N_23  and  S_24
REMARK    7  A    between atoms: S_24  and  C_27
REMARK                            x       y       z     vdW  Elec       q    Type
REMARK                         _______ _______ _______ _____ _____    ______ ____
ROOT
ATOM      1  C   UNL     1       1.899  -8.897   0.136  0.00  0.00    +0.265 C 
ATOM      2  O   UNL     1       0.696  -8.789  -0.001  0.00  0.00    -0.268 OA
ATOM      3  N   UNL     1       2.668  -7.793   0.229  0.00  0.00    -0.203 N 
ATOM      4  H   UNL     1       3.757  -7.891   0.352  0.00  0.00    +0.178 HD
ENDROOT
BRANCH   1   9
ATOM      5  C   UNL     1       4.472 -11.614   0.415  0.00  0.00    +0.001 A 
ATOM      6  C   UNL     1       3.682 -12.749   0.321  0.00  0.00    +0.002 A 
ATOM      7  C   UNL     1       2.316 -12.639   0.166  0.00  0.00    +0.027 A 
ATOM      8  C   UNL     1       1.721 -11.385   0.104  0.00  0.00    +0.086 A 
ATOM      9  C   UNL     1       2.518 -10.233   0.200  0.00  0.00    +0.063 A 
ATOM     10  C   UNL     1       3.901 -10.362   0.351  0.00  0.00    +0.015 A 
BRANCH   8  11
ATOM     11  N   UNL     1       0.345 -11.271  -0.052  0.00  0.00    -0.097 NA
BRANCH  11  12
ATOM     12  S   UNL     1      -0.663 -12.368   0.671  0.00  0.00    +0.098 S 
ATOM     13  O   UNL     1      -1.989 -11.912   0.443  0.00  0.00    -0.148 OA
ATOM     14  O   UNL     1      -0.220 -13.656   0.265  0.00  0.00    -0.148 OA
BRANCH  12  15
ATOM     15  C   UNL     1      -0.386 -12.265   2.408  0.00  0.00    +0.148 A 
ATOM     16  C   UNL     1      -0.999 -11.478   3.325  0.00  0.00    +0.037 A 
ATOM     17  C   UNL     1      -0.615 -11.568   4.649  0.00  0.00    +0.010 A 
ATOM     18  C   UNL     1       0.364 -12.440   4.992  0.00  0.00    +0.047 A 
ATOM     19  S   UNL     1       0.771 -13.176   3.418  0.00  0.00    -0.077 S 
ENDBRANCH  12  15
ENDBRANCH  11  12
ENDBRANCH   8  11
ENDBRANCH   1   9
BRANCH   3  20
ATOM     20  N   UNL     1       2.081  -6.523   0.168  0.00  0.00    -0.187 NA
ATOM     21  C   UNL     1       2.821  -5.461   0.257  0.00  0.00    +0.138 C 
BRANCH  21  22
ATOM     22  C   UNL     1       2.203  -4.124   0.193  0.00  0.00    -0.005 A 
ATOM     23  C   UNL     1       2.999  -2.979   0.289  0.00  0.00    +0.011 A 
ATOM     24  C   UNL     1       2.417  -1.731   0.229  0.00  0.00    +0.027 A 
ATOM     25  C   UNL     1       1.041  -1.611   0.072  0.00  0.00    +0.047 A 
ATOM     26  C   UNL     1       0.246  -2.747  -0.019  0.00  0.00    +0.027 A 
ATOM     27  C   UNL     1       0.820  -3.998   0.036  0.00  0.00    +0.011 A 
BRANCH  25  28
ATOM     28  N   UNL     1       0.454  -0.340   0.011  0.00  0.00    -0.306 N 
ATOM     29  C   UNL     1      -0.881  -0.066  -0.140  0.00  0.00    +0.112 A 
ATOM     30  C   UNL     1      -1.005   1.275  -0.147  0.00  0.00    +0.130 A 
ATOM     31  N   UNL     1       0.217   1.809  -0.004  0.00  0.00    -0.244 NA
ATOM     32  C   UNL     1       1.099   0.852   0.091  0.00  0.00    +0.204 A 
ENDBRANCH  25  28
ENDBRANCH  21  22
ENDBRANCH   3  20
TORSDOF 7
