REMARK  Name = ZINC13260184
REMARK  10 active torsions:
REMARK  status: ('A' for Active; 'I' for Inactive)
REMARK    1  A    between atoms: C_1  and  C_2
REMARK    2  A    between atoms: C_2  and  N_3
REMARK    3  A    between atoms: N_3  and  C_4
REMARK    4  A    between atoms: N_3  and  S_6
REMARK    5  A    between atoms: C_4  and  C_5
REMARK    6  A    between atoms: S_6  and  C_9
REMARK    7  A    between atoms: C_12  and  N_15
REMARK    8  A    between atoms: C_17  and  C_22
REMARK    9  A    between atoms: N_24  and  C_25
REMARK   10  A    between atoms: C_30  and  C_31
REMARK                            x       y       z     vdW  Elec       q    Type
REMARK                         _______ _______ _______ _____ _____    ______ ____
ROOT
ATOM      1  N   UNL     1      -1.407   1.510  -1.441  0.00  0.00    -0.271 N 
ATOM      2  C   UNL     1      -1.837   1.259  -0.061  0.00  0.00    +0.127 C 
ATOM      3  C   UNL     1      -0.552   1.354   0.797  0.00  0.00    +0.102 C 
ATOM      4  C   UNL     1       0.540   1.002  -0.239  0.00  0.00    +0.110 C 
ATOM      5  C   UNL     1      -0.076   1.367  -1.571  0.00  0.00    +0.221 C 
ATOM      6  O   UNL     1       0.540   1.510  -2.606  0.00  0.00    -0.275 OA
ENDROOT
BRANCH   1  10
ATOM      7  C   UNL     1      -3.976   2.537  -4.555  0.00  0.00    +0.106 A 
ATOM      8  C   UNL     1      -4.490   2.240  -3.307  0.00  0.00    +0.030 A 
ATOM      9  C   UNL     1      -3.641   1.899  -2.272  0.00  0.00    +0.025 A 
ATOM     10  C   UNL     1      -2.270   1.855  -2.487  0.00  0.00    +0.036 A 
ATOM     11  C   UNL     1      -1.756   2.159  -3.741  0.00  0.00    +0.025 A 
ATOM     12  C   UNL     1      -2.611   2.494  -4.773  0.00  0.00    +0.030 A 
BRANCH   7  13
ATOM     13  S   UNL     1      -5.063   2.973  -5.872  0.00  0.00    +0.061 S 
ATOM     14  O   UNL     1      -4.377   2.674  -7.080  0.00  0.00    -0.153 OA
ATOM     15  O   UNL     1      -6.329   2.410  -5.557  0.00  0.00    -0.153 OA
BRANCH  13  16
ATOM     16  N   UNL     1      -5.251   4.617  -5.828  0.00  0.00    -0.177 NA
BRANCH  16  18
ATOM     17  C   UNL     1      -4.961   5.811  -7.943  0.00  0.00    +0.022 C 
ATOM     18  C   UNL     1      -4.340   5.479  -6.585  0.00  0.00    +0.106 C 
ENDBRANCH  16  18
BRANCH  16  19
ATOM     19  C   UNL     1      -6.329   5.210  -5.033  0.00  0.00    +0.106 C 
ATOM     20  C   UNL     1      -5.790   5.601  -3.655  0.00  0.00    +0.022 C 
ENDBRANCH  16  19
ENDBRANCH  13  16
ENDBRANCH   7  13
ENDBRANCH   1  10
BRANCH   3  21
ATOM     21  C   UNL     1      -0.575   0.349   1.920  0.00  0.00    +0.222 C 
ATOM     22  O   UNL     1      -1.570  -0.315   2.120  0.00  0.00    -0.275 OA
ATOM     23  N   UNL     1       0.511   0.187   2.702  0.00  0.00    -0.284 N 
ATOM     24  H   UNL     1       1.277   0.774   2.596  0.00  0.00    +0.155 HD
BRANCH  23  25
ATOM     25  C   UNL     1       0.534  -0.822   3.662  0.00  0.00    +0.048 A 
ATOM     26  C   UNL     1      -0.606  -1.107   4.401  0.00  0.00    +0.025 A 
ATOM     27  C   UNL     1      -0.582  -2.107   5.352  0.00  0.00    +0.022 A 
ATOM     28  C   UNL     1       0.578  -2.834   5.577  0.00  0.00    +0.042 A 
ATOM     29  C   UNL     1       1.720  -2.564   4.852  0.00  0.00    +0.037 A 
ATOM     30  C   UNL     1       1.708  -1.558   3.883  0.00  0.00    +0.086 A 
ATOM     31 CL   UNL     1       0.592  -4.090   6.776  0.00  0.00    -0.084 Cl
BRANCH  30  32
ATOM     32  C   UNL     1       2.923  -1.269   3.100  0.00  0.00    +0.388 C 
ATOM     33  O   UNL     1       2.888  -0.446   2.206  0.00  0.00    -0.241 OA
ATOM     34  O   UNL     1       4.072  -1.916   3.376  0.00  0.00    -0.241 OA
ENDBRANCH  30  32
ENDBRANCH  23  25
ENDBRANCH   3  21
TORSDOF 8
