REMARK  Name = ZINC09128437
REMARK  11 active torsions:
REMARK  status: ('A' for Active; 'I' for Inactive)
REMARK    1  A    between atoms: C_3  and  S_30
REMARK    2  A    between atoms: C_6  and  C_7
REMARK    3  A    between atoms: C_7  and  C_8
REMARK    4  A    between atoms: C_8  and  N_9
REMARK    5  A    between atoms: C_10  and  C_12
REMARK    6  A    between atoms: C_12  and  O_13
REMARK    7  A    between atoms: O_13  and  C_14
REMARK    8  A    between atoms: C_14  and  C_16
REMARK    9  A    between atoms: C_19  and  C_21
REMARK   10  A    between atoms: C_24  and  N_27
REMARK   11  A    between atoms: S_30  and  N_33
REMARK                            x       y       z     vdW  Elec       q    Type
REMARK                         _______ _______ _______ _____ _____    ______ ____
ROOT
ATOM      1  N   UNL     1      -1.640  -1.854   0.008  0.00  0.00    -0.312 N 
ATOM      2  C   UNL     1      -1.412  -0.526   0.013  0.00  0.00    +0.251 C 
ATOM      3  O   UNL     1      -2.344   0.250   0.026  0.00  0.00    -0.272 OA
ATOM      4  H   UNL     1      -0.894  -2.474  -0.003  0.00  0.00    +0.149 HD
ENDROOT
BRANCH   1   5
ATOM      5  C   UNL     1      -3.014  -2.361   0.018  0.00  0.00    +0.109 C 
BRANCH   5   6
ATOM      6  C   UNL     1      -2.994  -3.891   0.010  0.00  0.00    +0.054 C 
BRANCH   6  12
ATOM      7  C   UNL     1      -5.043  -4.663   1.222  0.00  0.00    +0.005 A 
ATOM      8  C   UNL     1      -6.341  -5.138   1.232  0.00  0.00    +0.029 A 
ATOM      9  C   UNL     1      -7.001  -5.370   0.040  0.00  0.00    +0.105 A 
ATOM     10  C   UNL     1      -6.364  -5.124  -1.162  0.00  0.00    +0.029 A 
ATOM     11  C   UNL     1      -5.067  -4.645  -1.172  0.00  0.00    +0.005 A 
ATOM     12  C   UNL     1      -4.407  -4.412   0.020  0.00  0.00    -0.046 A 
BRANCH   9  13
ATOM     13  S   UNL     1      -8.655  -5.979   0.053  0.00  0.00    +0.056 S 
ATOM     14  O   UNL     1      -9.214  -5.609   1.306  0.00  0.00    -0.153 OA
ATOM     15  O   UNL     1      -9.238  -5.594  -1.185  0.00  0.00    -0.153 OA
BRANCH  13  16
ATOM     16  N   UNL     1      -8.568  -7.632   0.042  0.00  0.00    -0.204 NA
ATOM     17  H   UNL     1      -9.264  -8.157   0.465  0.00  0.00    +0.144 HD
ATOM     18  H   UNL     1      -7.820  -8.076  -0.388  0.00  0.00    +0.144 HD
ENDBRANCH  13  16
ENDBRANCH   9  13
ENDBRANCH   6  12
ENDBRANCH   5   6
ENDBRANCH   1   5
BRANCH   2  19
ATOM     19  C   UNL     1       0.002  -0.004   0.002  0.00  0.00    +0.328 C 
BRANCH  19  20
ATOM     20  O   UNL     1      -0.017   1.425   0.010  0.00  0.00    -0.450 OA
BRANCH  20  21
ATOM     21  C   UNL     1       1.177   2.054   0.002  0.00  0.00    +0.375 C 
ATOM     22  O   UNL     1       2.205   1.405  -0.011  0.00  0.00    -0.241 OA
BRANCH  21  23
ATOM     23  C   UNL     1       1.233   3.516   0.009  0.00  0.00    +0.212 A 
ATOM     24  C   UNL     1       2.380   4.282   0.002  0.00  0.00    +0.057 A 
ATOM     25  C   UNL     1       1.971   5.619   0.013  0.00  0.00    +0.051 A 
ATOM     26  C   UNL     1       0.606   5.622   0.026  0.00  0.00    +0.136 A 
ATOM     27  O   UNL     1       0.172   4.350   0.018  0.00  0.00    -0.448 OA
BRANCH  26  28
ATOM     28  C   UNL     1      -0.252   6.824   0.040  0.00  0.00    +0.017 A 
ATOM     29  C   UNL     1       0.323   8.096   0.047  0.00  0.00    +0.014 A 
ATOM     30  C   UNL     1      -0.484   9.215   0.055  0.00  0.00    +0.033 A 
ATOM     31  C   UNL     1      -1.861   9.078   0.067  0.00  0.00    +0.126 A 
ATOM     32  C   UNL     1      -2.438   7.820   0.066  0.00  0.00    +0.033 A 
ATOM     33  C   UNL     1      -1.643   6.693   0.053  0.00  0.00    +0.014 A 
BRANCH  31  34
ATOM     34  N   UNL     1      -2.721  10.283   0.082  0.00  0.00    +0.056 N 
ATOM     35  O   UNL     1      -3.933  10.165   0.094  0.00  0.00    -0.126 OA
ATOM     36  O   UNL     1      -2.216  11.391   0.083  0.00  0.00    -0.126 OA
ENDBRANCH  31  34
ENDBRANCH  26  28
ENDBRANCH  21  23
ENDBRANCH  20  21
ENDBRANCH  19  20
ENDBRANCH   2  19
TORSDOF 11
