REMARK  Name = ZINC15790893
REMARK  8 active torsions:
REMARK  status: ('A' for Active; 'I' for Inactive)
REMARK    1  A    between atoms: C_1  and  C_2
REMARK    2  A    between atoms: C_3  and  N_11
REMARK    3  A    between atoms: C_7  and  N_8
REMARK    4  A    between atoms: C_12  and  C_14
REMARK    5  A    between atoms: C_17  and  S_20
REMARK    6  A    between atoms: S_20  and  N_23
REMARK    7  A    between atoms: C_25  and  C_32
REMARK    8  A    between atoms: C_28  and  C_31
REMARK                            x       y       z     vdW  Elec       q    Type
REMARK                         _______ _______ _______ _____ _____    ______ ____
ROOT
ATOM      1  C   UNL     1      -7.097   2.709   0.937  0.00  0.00    +0.037 A 
ATOM      2  C   UNL     1      -6.737   3.027   2.247  0.00  0.00    +0.015 A 
ATOM      3  C   UNL     1      -5.708   3.915   2.480  0.00  0.00    +0.029 A 
ATOM      4  C   UNL     1      -5.033   4.490   1.418  0.00  0.00    +0.106 A 
ATOM      5  C   UNL     1      -5.388   4.183   0.116  0.00  0.00    +0.029 A 
ATOM      6  C   UNL     1      -6.412   3.292  -0.130  0.00  0.00    +0.015 A 
ENDROOT
BRANCH   1   8
ATOM      7  N   UNL     1      -8.544   1.452  -0.587  0.00  0.00    -0.281 N 
ATOM      8  C   UNL     1      -8.199   1.757   0.680  0.00  0.00    +0.248 C 
ATOM      9  O   UNL     1      -8.794   1.251   1.611  0.00  0.00    -0.270 OA
ATOM     10  H   UNL     1      -8.121   1.912  -1.329  0.00  0.00    +0.155 HD
BRANCH   7  13
ATOM     11  C   UNL     1      -9.834   1.440  -3.124  0.00  0.00    +0.048 C 
ATOM     12  C   UNL     1     -10.166   0.430  -2.056  0.00  0.00    +0.001 A 
ATOM     13  C   UNL     1      -9.512   0.472  -0.831  0.00  0.00    +0.039 A 
ATOM     14  C   UNL     1      -9.825  -0.457   0.152  0.00  0.00    +0.024 A 
ATOM     15  C   UNL     1     -10.781  -1.423  -0.092  0.00  0.00    +0.004 A 
ATOM     16  C   UNL     1     -11.426  -1.466  -1.315  0.00  0.00    +0.033 A 
ATOM     17  C   UNL     1     -11.116  -0.542  -2.296  0.00  0.00    +0.131 A 
BRANCH  17  18
ATOM     18  N   UNL     1     -11.808  -0.593  -3.604  0.00  0.00    +0.057 N 
ATOM     19  O   UNL     1     -12.743  -1.357  -3.769  0.00  0.00    -0.126 OA
ATOM     20  O   UNL     1     -11.444   0.129  -4.514  0.00  0.00    -0.126 OA
ENDBRANCH  17  18
ENDBRANCH   7  13
ENDBRANCH   1   8
BRANCH   4  21
ATOM     21  S   UNL     1      -3.719   5.624   1.724  0.00  0.00    +0.061 S 
ATOM     22  O   UNL     1      -3.944   6.166   3.018  0.00  0.00    -0.153 OA
ATOM     23  O   UNL     1      -3.608   6.439   0.566  0.00  0.00    -0.153 OA
BRANCH  21  24
ATOM     24  N   UNL     1      -2.321   4.741   1.817  0.00  0.00    -0.176 NA
ATOM     25  C   UNL     1      -1.519   4.480   0.614  0.00  0.00    +0.112 C 
ATOM     26  C   UNL     1      -1.290   2.971   0.491  0.00  0.00    +0.002 C 
ATOM     27  C   UNL     1      -0.667   2.447   1.787  0.00  0.00    +0.009 C 
ATOM     28  C   UNL     1      -1.627   2.696   2.953  0.00  0.00    +0.002 C 
ATOM     29  C   UNL     1      -1.860   4.203   3.104  0.00  0.00    +0.112 C 
ATOM     30  C   UNL     1      -1.018   2.143   4.243  0.00  0.00    +0.009 C 
ATOM     31  C   UNL     1      -2.627   2.269   0.247  0.00  0.00    +0.009 C 
ENDBRANCH  21  24
ENDBRANCH   4  21
TORSDOF 5
