REMARK  Name = ZINC56247570
REMARK  7 active torsions:
REMARK  status: ('A' for Active; 'I' for Inactive)
REMARK    1  A    between atoms: C_1  and  N_2
REMARK    2  A    between atoms: N_2  and  C_3
REMARK    3  A    between atoms: N_2  and  C_4
REMARK    4  A    between atoms: C_7  and  C_10
REMARK    5  A    between atoms: C_11  and  C_12
REMARK    6  A    between atoms: C_17  and  N_20
REMARK    7  A    between atoms: N_23  and  C_24
REMARK                            x       y       z     vdW  Elec       q    Type
REMARK                         _______ _______ _______ _____ _____    ______ ____
ROOT
ATOM      1  C   UNL     1      -0.137  -0.653  -6.047  0.00  0.00    +0.239 C 
ATOM      2  O   UNL     1       0.055  -0.045  -5.010  0.00  0.00    -0.271 OA
ATOM      3  N   UNL     1      -0.354   0.021  -7.193  0.00  0.00    -0.298 N 
ATOM      4  C   UNL     1      -0.474  -0.694  -8.471  0.00  0.00    +0.110 C 
ATOM      5  C   UNL     1       0.518  -0.090  -9.470  0.00  0.00    +0.041 C 
ATOM      6  C   UNL     1       0.280   1.419  -9.569  0.00  0.00    +0.077 C 
ATOM      7  C   UNL     1       0.517   2.065  -8.203  0.00  0.00    +0.041 C 
ATOM      8  C   UNL     1      -0.480   1.485  -7.189  0.00  0.00    +0.110 C 
ENDROOT
BRANCH   6   9
ATOM      9  N   UNL     1       1.206   1.994 -10.548  0.00  0.00    -0.296 N 
ATOM     10  C   UNL     1       0.890   3.143 -11.180  0.00  0.00    +0.300 C 
ATOM     11  O   UNL     1      -0.163   3.701 -10.936  0.00  0.00    -0.253 OA
ATOM     12  N   UNL     1       1.741   3.673 -12.080  0.00  0.00    -0.297 N 
ATOM     13  H   UNL     1       2.045   1.549 -10.743  0.00  0.00    +0.151 HD
ATOM     14  H   UNL     1       2.580   3.228 -12.274  0.00  0.00    +0.151 HD
BRANCH  12  15
ATOM     15  C   UNL     1       1.398   4.921 -12.766  0.00  0.00    +0.074 C 
ATOM     16  C   UNL     1       0.530   4.610 -13.988  0.00  0.00    +0.022 C 
ATOM     17  C   UNL     1       0.172   5.913 -14.704  0.00  0.00    +0.002 C 
ATOM     18  C   UNL     1       1.454   6.617 -15.155  0.00  0.00    +0.000 C 
ATOM     19  C   UNL     1       2.321   6.928 -13.933  0.00  0.00    +0.002 C 
ATOM     20  C   UNL     1       2.679   5.624 -13.217  0.00  0.00    +0.022 C 
ENDBRANCH  12  15
ENDBRANCH   6   9
BRANCH   1  22
ATOM     21  C   UNL     1      -0.046  -2.791  -4.882  0.00  0.00    +0.013 C 
ATOM     22  C   UNL     1      -0.131  -2.115  -6.048  0.00  0.00    +0.068 C 
BRANCH  21  26
ATOM     23  C   UNL     1      -0.444  -0.727  -1.204  0.00  0.00    +0.029 A 
ATOM     24  C   UNL     1       0.555  -1.685  -1.358  0.00  0.00    +0.023 A 
ATOM     25  C   UNL     1       0.687  -2.355  -2.546  0.00  0.00    +0.010 A 
ATOM     26  C   UNL     1      -0.184  -2.075  -3.606  0.00  0.00    -0.025 A 
ATOM     27  C   UNL     1      -1.187  -1.111  -3.447  0.00  0.00    +0.010 A 
ATOM     28  C   UNL     1      -1.316  -0.450  -2.253  0.00  0.00    +0.023 A 
BRANCH  23  30
ATOM     29  C   UNL     1      -1.628   0.955   0.170  0.00  0.00    +0.129 C 
ATOM     30  N   UNL     1      -0.574  -0.049   0.004  0.00  0.00    -0.336 N 
ATOM     31  C   UNL     1       0.342  -0.339   1.109  0.00  0.00    +0.129 C 
ENDBRANCH  23  30
ENDBRANCH  21  26
ENDBRANCH   1  22
TORSDOF 5
