REMARK  Name = ZINC25884087
REMARK  13 active torsions:
REMARK  status: ('A' for Active; 'I' for Inactive)
REMARK    1  A    between atoms: C_1  and  C_2
REMARK    2  A    between atoms: C_2  and  C_3
REMARK    3  A    between atoms: C_3  and  C_4
REMARK    4  A    between atoms: C_4  and  C_5
REMARK    5  A    between atoms: C_5  and  N_6
REMARK    6  A    between atoms: C_9  and  C_17
REMARK    7  A    between atoms: C_10  and  C_12
REMARK    8  A    between atoms: C_12  and  O_14
REMARK    9  A    between atoms: O_14  and  C_15
REMARK   10  A    between atoms: C_15  and  C_16
REMARK   11  A    between atoms: C_18  and  C_20
REMARK   12  A    between atoms: C_20  and  C_21
REMARK   13  A    between atoms: C_21  and  N_22
REMARK                            x       y       z     vdW  Elec       q    Type
REMARK                         _______ _______ _______ _____ _____    ______ ____
ROOT
ATOM      1  N   UNL     1      -0.453   1.393   3.718  0.00  0.00    -0.250 N 
ATOM      2  C   UNL     1       0.216   0.934   4.839  0.00  0.00    +0.168 A 
ATOM      3  N   UNL     1       1.303   0.181   4.904  0.00  0.00    -0.229 NA
ATOM      4  C   UNL     1       1.826  -0.169   6.050  0.00  0.00    +0.062 A 
ATOM      5  C   UNL     1       1.195   0.265   7.208  0.00  0.00    +0.120 A 
ATOM      6  S   UNL     1      -0.163   1.196   6.513  0.00  0.00    -0.045 S 
ATOM      7  C   UNL     1       3.067  -1.021   6.112  0.00  0.00    +0.067 C 
ATOM      8  C   UNL     1       0.000   1.080   2.488  0.00  0.00    +0.223 C 
ATOM      9  O   UNL     1       0.994   0.397   2.363  0.00  0.00    -0.275 OA
ENDROOT
BRANCH   5  10
ATOM     10  C   UNL     1       1.544   0.026   8.607  0.00  0.00    +0.348 C 
ATOM     11  O   UNL     1       2.520  -0.644   8.885  0.00  0.00    -0.244 OA
BRANCH  10  12
ATOM     12  O   UNL     1       0.783   0.550   9.591  0.00  0.00    -0.461 OA
BRANCH  12  13
ATOM     13  C   UNL     1       1.183   0.277  10.936  0.00  0.00    +0.229 C 
ATOM     14  C   UNL     1       0.208   0.948  11.904  0.00  0.00    +0.048 C 
ENDBRANCH  12  13
ENDBRANCH  10  12
ENDBRANCH   5  10
BRANCH   1  15
ATOM     15  C   UNL     1      -1.654   2.218   3.868  0.00  0.00    +0.115 C 
BRANCH  15  16
ATOM     16  C   UNL     1      -2.889   1.316   3.922  0.00  0.00    +0.019 C 
BRANCH  16  17
ATOM     17  C   UNL     1      -4.144   2.178   4.079  0.00  0.00    +0.001 C 
BRANCH  17  19
ATOM     18  C   UNL     1      -6.633   2.138   4.290  0.00  0.00    +0.004 C 
ATOM     19  C   UNL     1      -5.378   1.276   4.133  0.00  0.00    -0.003 C 
ENDBRANCH  17  19
ENDBRANCH  16  17
ENDBRANCH  15  16
ENDBRANCH   1  15
BRANCH   8  20
ATOM     20  C   UNL     1      -0.729   1.579   1.267  0.00  0.00    +0.116 C 
BRANCH  20  21
ATOM     21  C   UNL     1      -0.013   1.086   0.008  0.00  0.00    +0.127 C 
BRANCH  21  22
ATOM     22  N   UNL     1      -0.721   1.571  -1.179  0.00  0.00    -0.224 N 
ATOM     23  C   UNL     1      -0.456   2.742  -1.794  0.00  0.00    +0.247 C 
ATOM     24  O   UNL     1       0.381   3.562  -1.483  0.00  0.00    -0.273 OA
ATOM     25  C   UNL     1      -1.423   2.817  -2.954  0.00  0.00    +0.113 C 
ATOM     26  C   UNL     1      -0.665   2.874  -4.275  0.00  0.00    +0.035 C 
ATOM     27  C   UNL     1      -1.660   2.921  -5.437  0.00  0.00    +0.003 C 
ATOM     28  C   UNL     1      -2.556   4.152  -5.290  0.00  0.00    +0.000 C 
ATOM     29  C   UNL     1      -3.328   4.068  -3.972  0.00  0.00    +0.003 C 
ATOM     30  C   UNL     1      -2.339   4.026  -2.804  0.00  0.00    +0.035 C 
ATOM     31  N   UNL     1      -2.194   1.571  -2.856  0.00  0.00    -0.285 N 
ATOM     32  C   UNL     1      -1.708   0.905  -1.791  0.00  0.00    +0.309 C 
ATOM     33  O   UNL     1      -2.122  -0.178  -1.424  0.00  0.00    -0.252 OA
ATOM     34  H   UNL     1      -2.989   1.357  -3.586  0.00  0.00    +0.151 HD
ENDBRANCH  21  22
ENDBRANCH  20  21
ENDBRANCH   8  20
TORSDOF 10
