REMARK  Name = ZINC06322213
REMARK  8 active torsions:
REMARK  status: ('A' for Active; 'I' for Inactive)
REMARK    1  A    between atoms: C_3  and  N_28
REMARK    2  A    between atoms: C_6  and  N_7
REMARK    3  A    between atoms: C_8  and  C_10
REMARK    4  A    between atoms: C_10  and  O_11
REMARK    5  A    between atoms: O_11  and  C_12
REMARK    6  A    between atoms: C_12  and  C_14
REMARK    7  A    between atoms: C_14  and  N_15
REMARK    8  A    between atoms: C_16  and  C_18
REMARK                            x       y       z     vdW  Elec       q    Type
REMARK                         _______ _______ _______ _____ _____    ______ ____
ROOT
ATOM      1  C   UNL     1       3.986  -6.022  -0.487  0.00  0.00    +0.325 C 
ATOM      2  O   UNL     1       3.037  -6.770  -0.495  0.00  0.00    -0.249 OA
ENDROOT
BRANCH   1   3
ATOM      3  O   UNL     1       3.797  -4.699  -0.370  0.00  0.00    -0.454 OA
BRANCH   3   4
ATOM      4  C   UNL     1       2.425  -4.236  -0.258  0.00  0.00    +0.328 C 
BRANCH   4   6
ATOM      5  N   UNL     1       1.237  -2.079  -0.021  0.00  0.00    -0.283 N 
ATOM      6  C   UNL     1       2.410  -2.734  -0.137  0.00  0.00    +0.255 C 
ATOM      7  O   UNL     1       3.452  -2.114  -0.144  0.00  0.00    -0.272 OA
ATOM      8  H   UNL     1       0.409  -2.578   0.062  0.00  0.00    +0.155 HD
BRANCH   5  14
ATOM      9  C   UNL     1       2.137   0.031  -0.774  0.00  0.00    +0.025 A 
ATOM     10  C   UNL     1       2.111   1.412  -0.771  0.00  0.00    +0.034 A 
ATOM     11  C   UNL     1       1.168   2.086  -0.017  0.00  0.00    +0.126 A 
ATOM     12  C   UNL     1       0.248   1.380   0.736  0.00  0.00    +0.034 A 
ATOM     13  C   UNL     1       0.268  -0.001   0.737  0.00  0.00    +0.025 A 
ATOM     14  C   UNL     1       1.214  -0.680  -0.019  0.00  0.00    +0.034 A 
BRANCH  11  15
ATOM     15  N   UNL     1       1.144   3.566  -0.015  0.00  0.00    +0.056 N 
ATOM     16  O   UNL     1       1.954   4.189  -0.678  0.00  0.00    -0.126 OA
ATOM     17  O   UNL     1       0.314   4.161   0.649  0.00  0.00    -0.126 OA
ENDBRANCH  11  15
ENDBRANCH   5  14
ENDBRANCH   4   6
ENDBRANCH   3   4
ENDBRANCH   1   3
BRANCH   1  18
ATOM     18  C   UNL     1       5.383  -6.576  -0.607  0.00  0.00    +0.224 C 
BRANCH  18  19
ATOM     19  N   UNL     1       5.321  -8.035  -0.721  0.00  0.00    -0.304 N 
ATOM     20  C   UNL     1       6.457  -8.750  -0.840  0.00  0.00    +0.220 C 
ATOM     21  O   UNL     1       7.531  -8.186  -0.854  0.00  0.00    -0.275 OA
ATOM     22  H   UNL     1       4.463  -8.487  -0.710  0.00  0.00    +0.149 HD
BRANCH  20  23
ATOM     23  C   UNL     1       6.394 -10.252  -0.957  0.00  0.00    +0.048 C 
ATOM     24  C   UNL     1       5.721 -10.832   0.288  0.00  0.00    +0.019 C 
ATOM     25  C   UNL     1       5.657 -12.356   0.170  0.00  0.00    -0.009 C 
ATOM     26  C   UNL     1       7.075 -12.918   0.047  0.00  0.00    +0.007 C 
ATOM     27  C   UNL     1       7.748 -12.338  -1.198  0.00  0.00    -0.009 C 
ATOM     28  C   UNL     1       7.812 -10.814  -1.080  0.00  0.00    +0.019 C 
ATOM     29  C   UNL     1       6.939 -12.719  -2.440  0.00  0.00    +0.007 C 
ATOM     30  C   UNL     1       5.521 -12.157  -2.317  0.00  0.00    -0.009 C 
ATOM     31  C   UNL     1       4.848 -12.737  -1.072  0.00  0.00    +0.007 C 
ATOM     32  C   UNL     1       5.585 -10.633  -2.199  0.00  0.00    +0.019 C 
ENDBRANCH  20  23
ENDBRANCH  18  19
ENDBRANCH   1  18
TORSDOF 8
