REMARK  Name = ZINC40125893
REMARK  9 active torsions:
REMARK  status: ('A' for Active; 'I' for Inactive)
REMARK    1  A    between atoms: C_1  and  C_2
REMARK    2  A    between atoms: C_2  and  C_3
REMARK    3  A    between atoms: C_3  and  C_4
REMARK    4  A    between atoms: C_4  and  O_5
REMARK    5  A    between atoms: O_5  and  C_6
REMARK    6  A    between atoms: C_10  and  C_12
REMARK    7  A    between atoms: C_12  and  C_14
REMARK    8  A    between atoms: C_19  and  C_21
REMARK    9  A    between atoms: C_25  and  N_27
REMARK                            x       y       z     vdW  Elec       q    Type
REMARK                         _______ _______ _______ _____ _____    ______ ____
ROOT
ATOM      1  C   UNL     1      -5.873  -7.901  -0.107  0.00  0.00    +0.076 C 
ATOM      2  C   UNL     1      -6.543  -8.719   0.738  0.00  0.00    +0.249 C 
ATOM      3  C   UNL     1      -6.454 -10.109   0.242  0.00  0.00    +0.285 C 
ATOM      4  O   UNL     1      -6.955 -11.075   0.782  0.00  0.00    -0.267 OA
ATOM      5  N   UNL     1      -5.737 -10.145  -0.895  0.00  0.00    -0.298 N 
ATOM      6  C   UNL     1      -5.321  -8.773  -1.211  0.00  0.00    +0.142 C 
ATOM      7  O   UNL     1      -7.191  -8.327   1.859  0.00  0.00    -0.282 OA
ATOM      8  H   UNL     1      -5.534 -10.937  -1.417  0.00  0.00    +0.150 HD
ENDROOT
BRANCH   6   9
ATOM      9  C   UNL     1      -5.890  -8.349  -2.540  0.00  0.00    -0.020 A 
ATOM     10  C   UNL     1      -7.200  -8.652  -2.860  0.00  0.00    +0.006 A 
ATOM     11  C   UNL     1      -7.722  -8.262  -4.079  0.00  0.00    +0.003 A 
ATOM     12  C   UNL     1      -6.934  -7.570  -4.979  0.00  0.00    +0.033 A 
ATOM     13  C   UNL     1      -5.623  -7.267  -4.659  0.00  0.00    +0.127 A 
ATOM     14  C   UNL     1      -5.103  -7.652  -3.438  0.00  0.00    +0.038 A 
BRANCH  13  15
ATOM     15  N   UNL     1      -4.779  -6.526  -5.623  0.00  0.00    +0.056 N 
ATOM     16  O   UNL     1      -5.204  -6.268  -6.725  0.00  0.00    -0.126 OA
ATOM     17  O   UNL     1      -3.664  -6.179  -5.308  0.00  0.00    -0.126 OA
ENDBRANCH  13  15
ENDBRANCH   6   9
BRANCH   1  18
ATOM     18  C   UNL     1      -5.719  -6.449   0.020  0.00  0.00    +0.195 C 
ATOM     19  O   UNL     1      -6.690  -5.723  -0.076  0.00  0.00    -0.287 OA
BRANCH  18  24
ATOM     20  C   UNL     1      -2.965  -3.943   0.539  0.00  0.00    +0.121 A 
ATOM     21  C   UNL     1      -1.872  -4.780   0.722  0.00  0.00    +0.046 A 
ATOM     22  C   UNL     1      -2.031  -6.153   0.677  0.00  0.00    +0.004 A 
ATOM     23  C   UNL     1      -3.277  -6.700   0.449  0.00  0.00    +0.012 A 
ATOM     24  C   UNL     1      -4.382  -5.867   0.264  0.00  0.00    +0.026 A 
ATOM     25  C   UNL     1      -4.220  -4.481   0.316  0.00  0.00    +0.057 A 
BRANCH  20  26
ATOM     26  O   UNL     1      -2.802  -2.594   0.584  0.00  0.00    -0.492 OA
BRANCH  26  27
ATOM     27  C   UNL     1      -1.479  -2.108   0.818  0.00  0.00    +0.229 C 
BRANCH  27  28
ATOM     28  C   UNL     1      -1.493  -0.578   0.835  0.00  0.00    +0.041 C 
BRANCH  28  30
ATOM     29  C   UNL     1      -0.091   1.472   1.103  0.00  0.00    +0.004 C 
ATOM     30  C   UNL     1      -0.076  -0.058   1.086  0.00  0.00    -0.000 C 
ENDBRANCH  28  30
ENDBRANCH  27  28
ENDBRANCH  26  27
ENDBRANCH  20  26
ENDBRANCH  18  24
ENDBRANCH   1  18
TORSDOF 8
