REMARK  Name = ZINC09635572
REMARK  15 active torsions:
REMARK  status: ('A' for Active; 'I' for Inactive)
REMARK    1  A    between atoms: C_1  and  N_2
REMARK    2  A    between atoms: N_2  and  C_3
REMARK    3  A    between atoms: N_2  and  C_4
REMARK    4  A    between atoms: C_8  and  C_10
REMARK    5  A    between atoms: C_10  and  O_12
REMARK    6  A    between atoms: O_12  and  C_13
REMARK    7  A    between atoms: C_13  and  C_14
REMARK    8  A    between atoms: C_14  and  C_16
REMARK    9  A    between atoms: C_17  and  N_36
REMARK   10  A    between atoms: N_18  and  C_29
REMARK   11  A    between atoms: N_21  and  C_24
REMARK   12  A    between atoms: C_24  and  C_25
REMARK   13  A    between atoms: C_25  and  O_27
REMARK   14  A    between atoms: O_27  and  C_28
REMARK   15  A    between atoms: C_29  and  C_30
REMARK                            x       y       z     vdW  Elec       q    Type
REMARK                         _______ _______ _______ _____ _____    ______ ____
ROOT
ATOM      1  C   UNL     1       2.566   9.451   0.039  0.00  0.00    +0.123 A 
ATOM      2  C   UNL     1       3.846  10.025   0.121  0.00  0.00    +0.116 A 
ATOM      3  N   UNL     1       3.963  11.385   0.110  0.00  0.00    -0.277 N 
ATOM      4  C   UNL     1       2.882  12.177   0.021  0.00  0.00    +0.334 A 
ATOM      5  O   UNL     1       3.039  13.383   0.015  0.00  0.00    -0.246 OA
ATOM      6  N   UNL     1       1.635  11.687  -0.060  0.00  0.00    -0.249 N 
ATOM      7  C   UNL     1       1.413  10.356  -0.062  0.00  0.00    +0.270 A 
ATOM      8  O   UNL     1       0.282   9.915  -0.141  0.00  0.00    -0.267 OA
ENDROOT
BRANCH   2   9
ATOM      9  N   UNL     1       4.952   9.237   0.211  0.00  0.00    -0.344 N 
ATOM     10  H   UNL     1       4.869   8.274   0.136  0.00  0.00    +0.144 HD
ATOM     11  H   UNL     1       5.824   9.639   0.350  0.00  0.00    +0.144 HD
ENDBRANCH   2   9
BRANCH   1  12
ATOM     12  C   UNL     1       2.393   8.050   0.048  0.00  0.00    +0.209 C 
ATOM     13  O   UNL     1       3.362   7.319   0.019  0.00  0.00    -0.288 OA
BRANCH  12  14
ATOM     14  C   UNL     1       1.006   7.463   0.093  0.00  0.00    +0.312 C 
BRANCH  14  15
ATOM     15  O   UNL     1       1.095   6.013   0.094  0.00  0.00    -0.453 OA
BRANCH  15  16
ATOM     16  C   UNL     1      -0.066   5.330   0.133  0.00  0.00    +0.340 C 
ATOM     17  O   UNL     1      -1.122   5.928   0.165  0.00  0.00    -0.245 OA
BRANCH  16  22
ATOM     18  C   UNL     1      -1.233   1.756   0.173  0.00  0.00    +0.030 A 
ATOM     19  C   UNL     1      -0.019   1.078   0.141  0.00  0.00    +0.023 A 
ATOM     20  C   UNL     1       1.170   1.782   0.102  0.00  0.00    +0.003 A 
ATOM     21  C   UNL     1       1.161   3.162   0.098  0.00  0.00    +0.015 A 
ATOM     22  C   UNL     1      -0.053   3.852   0.135  0.00  0.00    +0.061 A 
ATOM     23  C   UNL     1      -1.253   3.142   0.176  0.00  0.00    +0.038 A 
BRANCH  18  25
ATOM     24  C   UNL     1      -2.410  -0.425   0.209  0.00  0.00    +0.129 C 
ATOM     25  N   UNL     1      -2.432   1.039   0.207  0.00  0.00    -0.336 N 
ATOM     26  C   UNL     1      -3.711   1.753   0.240  0.00  0.00    +0.129 C 
ENDBRANCH  18  25
ENDBRANCH  16  22
ENDBRANCH  15  16
ENDBRANCH  14  15
ENDBRANCH  12  14
ENDBRANCH   1  12
BRANCH   6  27
ATOM     27  C   UNL     1       0.500  12.609  -0.154  0.00  0.00    +0.250 C 
BRANCH  27  28
ATOM     28  C   UNL     1       0.212  12.904  -1.603  0.00  0.00    +0.327 C 
ATOM     29  O   UNL     1       0.885  12.396  -2.469  0.00  0.00    -0.249 OA
BRANCH  28  30
ATOM     30  O   UNL     1      -0.793  13.731  -1.932  0.00  0.00    -0.467 OA
ATOM     31  C   UNL     1      -1.014  13.969  -3.348  0.00  0.00    +0.280 C 
ENDBRANCH  28  30
ENDBRANCH  27  28
ENDBRANCH   6  27
BRANCH   3  32
ATOM     32  C   UNL     1       5.293  11.993   0.195  0.00  0.00    +0.163 C 
BRANCH  32  33
ATOM     33  C   UNL     1       5.850  12.180  -1.193  0.00  0.00    -0.028 A 
ATOM     34  C   UNL     1       6.604  11.179  -1.776  0.00  0.00    +0.005 A 
ATOM     35  C   UNL     1       7.111  11.349  -3.050  0.00  0.00    +0.000 A 
ATOM     36  C   UNL     1       6.872  12.524  -3.738  0.00  0.00    +0.000 A 
ATOM     37  C   UNL     1       6.123  13.527  -3.153  0.00  0.00    +0.000 A 
ATOM     38  C   UNL     1       5.611  13.355  -1.881  0.00  0.00    +0.005 A 
ENDBRANCH  32  33
ENDBRANCH   3  32
TORSDOF 12
