REMARK  Name = ZINC03233747
REMARK  6 active torsions:
REMARK  status: ('A' for Active; 'I' for Inactive)
REMARK    1  A    between atoms: C_1  and  C_2
REMARK    2  A    between atoms: C_8  and  N_10
REMARK    3  A    between atoms: C_11  and  C_13
REMARK    4  A    between atoms: C_13  and  C_24
REMARK    5  A    between atoms: C_14  and  C_15
REMARK    6  A    between atoms: C_18  and  N_21
REMARK                            x       y       z     vdW  Elec       q    Type
REMARK                         _______ _______ _______ _____ _____    ______ ____
ROOT
ATOM      1  C   UNL     1      -1.166  -0.704   0.113  0.00  0.00    +0.114 C 
ATOM      2  C   UNL     1       0.002  -0.004   0.002  0.00  0.00    +0.032 C 
ENDROOT
BRANCH   2   3
ATOM      3  C   UNL     1      -0.029   1.438  -0.268  0.00  0.00    -0.024 A 
ATOM      4  C   UNL     1      -1.023   1.979  -1.093  0.00  0.00    +0.010 A 
ATOM      5  C   UNL     1      -1.048   3.335  -1.337  0.00  0.00    +0.033 A 
ATOM      6  C   UNL     1      -0.087   4.161  -0.777  0.00  0.00    +0.126 A 
ATOM      7  C   UNL     1       0.902   3.634   0.035  0.00  0.00    +0.033 A 
ATOM      8  C   UNL     1       0.939   2.280   0.294  0.00  0.00    +0.010 A 
BRANCH   6   9
ATOM      9  N   UNL     1      -0.119   5.615  -1.049  0.00  0.00    +0.056 N 
ATOM     10  O   UNL     1       0.724   6.345  -0.558  0.00  0.00    -0.126 OA
ATOM     11  O   UNL     1      -0.987   6.083  -1.763  0.00  0.00    -0.126 OA
ENDBRANCH   6   9
ENDBRANCH   2   3
BRANCH   1  13
ATOM     12  N   UNL     1      -2.290  -2.862   0.324  0.00  0.00    -0.308 N 
ATOM     13  C   UNL     1      -1.138  -2.172   0.215  0.00  0.00    +0.255 C 
ATOM     14  O   UNL     1      -0.074  -2.763   0.202  0.00  0.00    -0.269 OA
ATOM     15  H   UNL     1      -3.138  -2.392   0.335  0.00  0.00    +0.149 HD
BRANCH  12  22
ATOM     16  C   UNL     1      -3.587  -4.201   2.542  0.00  0.00    +0.009 C 
ATOM     17  C   UNL     1      -3.526  -4.809   1.139  0.00  0.00    +0.006 C 
ATOM     18  C   UNL     1      -3.497  -6.335   1.246  0.00  0.00    +0.005 C 
ATOM     19  C   UNL     1      -3.436  -6.944  -0.157  0.00  0.00    +0.000 C 
ATOM     20  C   UNL     1      -2.172  -6.458  -0.869  0.00  0.00    +0.002 C 
ATOM     21  C   UNL     1      -2.201  -4.932  -0.976  0.00  0.00    +0.022 C 
ATOM     22  C   UNL     1      -2.262  -4.324   0.427  0.00  0.00    +0.076 C 
ENDBRANCH  12  22
ENDBRANCH   1  13
BRANCH   1  23
ATOM     23  C   UNL     1      -2.418  -0.009   0.128  0.00  0.00    +0.104 C 
ATOM     24  N   UNL     1      -3.411   0.543   0.141  0.00  0.00    -0.191 NA
ENDBRANCH   1  23
TORSDOF 5
