REMARK  Name = ZINC09596562
REMARK  6 active torsions:
REMARK  status: ('A' for Active; 'I' for Inactive)
REMARK    1  A    between atoms: C_1  and  C_2
REMARK    2  A    between atoms: C_5  and  N_19
REMARK    3  A    between atoms: C_7  and  S_8
REMARK    4  A    between atoms: S_8  and  N_11
REMARK    5  A    between atoms: N_11  and  C_12
REMARK    6  A    between atoms: C_12  and  C_13
REMARK                            x       y       z     vdW  Elec       q    Type
REMARK                         _______ _______ _______ _____ _____    ______ ____
ROOT
ATOM      1  S   UNL     1       0.036  -0.040  -2.702  0.00  0.00    +0.059 S 
ATOM      2  O   UNL     1       1.229   0.732  -2.672  0.00  0.00    -0.153 OA
ATOM      3  O   UNL     1      -0.173  -1.084  -3.643  0.00  0.00    -0.153 OA
ENDROOT
BRANCH   1  10
ATOM      4  C   UNL     1      -2.324  -1.728  -1.846  0.00  0.00    +0.046 C 
ATOM      5  C   UNL     1      -1.255  -1.518  -0.804  0.00  0.00    -0.024 A 
ATOM      6  C   UNL     1      -1.388  -2.089   0.448  0.00  0.00    +0.007 A 
ATOM      7  C   UNL     1      -0.407  -1.897   1.403  0.00  0.00    +0.033 A 
ATOM      8  C   UNL     1       0.707  -1.135   1.105  0.00  0.00    +0.128 A 
ATOM      9  C   UNL     1       0.841  -0.565  -0.147  0.00  0.00    +0.061 A 
ATOM     10  C   UNL     1      -0.138  -0.761  -1.103  0.00  0.00    +0.110 A 
BRANCH   8  11
ATOM     11  N   UNL     1       1.758  -0.930   2.128  0.00  0.00    +0.056 N 
ATOM     12  O   UNL     1       1.641  -1.433   3.231  0.00  0.00    -0.126 OA
ATOM     13  O   UNL     1       2.740  -0.259   1.866  0.00  0.00    -0.126 OA
ENDBRANCH   8  11
ENDBRANCH   1  10
BRANCH   1  14
ATOM     14  N   UNL     1      -1.214   1.029  -2.895  0.00  0.00    -0.190 NA
ATOM     15  H   UNL     1      -2.068   0.748  -3.529  0.00  0.00    +0.148 HD
BRANCH  14  16
ATOM     16  C   UNL     1      -1.284   2.233  -2.064  0.00  0.00    +0.109 C 
BRANCH  16  17
ATOM     17  C   UNL     1      -2.303   3.206  -2.659  0.00  0.00    +0.005 C 
ATOM     18  C   UNL     1      -1.812   3.686  -4.026  0.00  0.00    +0.005 C 
ATOM     19  C   UNL     1      -2.832   4.659  -4.622  0.00  0.00    +0.000 C 
ATOM     20  C   UNL     1      -2.996   5.860  -3.688  0.00  0.00    +0.000 C 
ATOM     21  C   UNL     1      -3.487   5.380  -2.321  0.00  0.00    +0.000 C 
ATOM     22  C   UNL     1      -2.468   4.407  -1.726  0.00  0.00    +0.005 C 
ENDBRANCH  16  17
ENDBRANCH  14  16
ENDBRANCH   1  14
TORSDOF 5
