REMARK  Name = ZINC07875048
REMARK  8 active torsions:
REMARK  status: ('A' for Active; 'I' for Inactive)
REMARK    1  A    between atoms: C_1  and  C_2
REMARK    2  A    between atoms: C_2  and  C_4
REMARK    3  A    between atoms: C_2  and  O_15
REMARK    4  A    between atoms: N_6  and  C_7
REMARK    5  A    between atoms: C_8  and  C_12
REMARK    6  A    between atoms: O_15  and  C_16
REMARK    7  A    between atoms: C_16  and  C_18
REMARK    8  A    between atoms: C_21  and  C_23
REMARK                            x       y       z     vdW  Elec       q    Type
REMARK                         _______ _______ _______ _____ _____    ______ ____
ROOT
ATOM      1  C   UNL     1      -2.615   0.075  -1.292  0.00  0.00    +0.062 C 
ATOM      2  C   UNL     1      -2.482   0.853   0.018  0.00  0.00    +0.259 C 
ENDROOT
BRANCH   2   3
ATOM      3  C   UNL     1      -1.187   1.624   0.017  0.00  0.00    +0.258 C 
ATOM      4  O   UNL     1      -1.204   2.836   0.023  0.00  0.00    -0.271 OA
ATOM      5  N   UNL     1      -0.011   0.966   0.007  0.00  0.00    -0.276 N 
ATOM      6  H   UNL     1       0.002  -0.004   0.002  0.00  0.00    +0.155 HD
BRANCH   5   7
ATOM      7  C   UNL     1       1.180   1.675  -0.000  0.00  0.00    +0.084 A 
ATOM      8  C   UNL     1       2.479   1.181  -0.010  0.00  0.00    +0.065 A 
ATOM      9  C   UNL     1       3.544   2.156  -0.021  0.00  0.00    +0.022 A 
ATOM     10  C   UNL     1       3.190   3.453  -0.010  0.00  0.00    +0.048 A 
ATOM     11  S   UNL     1       1.410   3.392   0.007  0.00  0.00    -0.081 S 
BRANCH   8  12
ATOM     12  C   UNL     1       2.755  -0.259  -0.012  0.00  0.00    +0.244 C 
ATOM     13  O   UNL     1       1.833  -1.054  -0.006  0.00  0.00    -0.270 OA
ATOM     14  N   UNL     1       4.027  -0.702  -0.022  0.00  0.00    -0.325 N 
ATOM     15  H   UNL     1       4.761  -0.068  -0.026  0.00  0.00    +0.145 HD
ATOM     16  H   UNL     1       4.210  -1.654  -0.023  0.00  0.00    +0.145 HD
ENDBRANCH   8  12
ENDBRANCH   5   7
ENDBRANCH   2   3
BRANCH   2  17
ATOM     17  O   UNL     1      -3.578   1.761   0.146  0.00  0.00    -0.447 OA
BRANCH  17  18
ATOM     18  C   UNL     1      -4.684   1.303   0.768  0.00  0.00    +0.376 C 
ATOM     19  O   UNL     1      -4.717   0.163   1.190  0.00  0.00    -0.241 OA
BRANCH  18  20
ATOM     20  C   UNL     1      -5.845   2.178   0.934  0.00  0.00    +0.212 A 
ATOM     21  C   UNL     1      -7.035   1.838   1.542  0.00  0.00    +0.057 A 
ATOM     22  C   UNL     1      -7.855   2.968   1.483  0.00  0.00    +0.051 A 
ATOM     23  C   UNL     1      -7.148   3.945   0.840  0.00  0.00    +0.136 A 
ATOM     24  O   UNL     1      -5.939   3.458   0.514  0.00  0.00    -0.448 OA
BRANCH  23  25
ATOM     25  C   UNL     1      -7.633   5.309   0.551  0.00  0.00    +0.017 A 
ATOM     26  C   UNL     1      -8.919   5.693   0.939  0.00  0.00    +0.014 A 
ATOM     27  C   UNL     1      -9.365   6.970   0.670  0.00  0.00    +0.039 A 
ATOM     28  C   UNL     1      -8.543   7.869   0.008  0.00  0.00    +0.123 A 
ATOM     29  C   UNL     1      -7.268   7.492  -0.384  0.00  0.00    +0.039 A 
ATOM     30  C   UNL     1      -6.810   6.219  -0.116  0.00  0.00    +0.014 A 
ATOM     31  F   UNL     1      -8.987   9.117  -0.257  0.00  0.00    -0.205 F 
ENDBRANCH  23  25
ENDBRANCH  18  20
ENDBRANCH  17  18
ENDBRANCH   2  17
TORSDOF 7
