REMARK  Name = ZINC19258921
REMARK  7 active torsions:
REMARK  status: ('A' for Active; 'I' for Inactive)
REMARK    1  A    between atoms: C_3  and  C_6
REMARK    2  A    between atoms: C_8  and  C_11
REMARK    3  A    between atoms: C_11  and  O_13
REMARK    4  A    between atoms: O_13  and  C_14
REMARK    5  A    between atoms: C_14  and  C_15
REMARK    6  A    between atoms: N_17  and  C_18
REMARK    7  A    between atoms: C_21  and  N_25
REMARK                            x       y       z     vdW  Elec       q    Type
REMARK                         _______ _______ _______ _____ _____    ______ ____
ROOT
ATOM      1  C   UNL     1      -3.702   2.128  -0.184  0.00  0.00    +0.328 C 
ENDROOT
BRANCH   1   2
ATOM      2  C   UNL     1      -2.395   1.385  -0.081  0.00  0.00    +0.255 C 
ATOM      3  O   UNL     1      -2.384   0.173  -0.088  0.00  0.00    -0.272 OA
ATOM      4  N   UNL     1      -1.238   2.069   0.019  0.00  0.00    -0.281 N 
ATOM      5  H   UNL     1      -1.253   3.165   0.117  0.00  0.00    +0.155 HD
BRANCH   4   6
ATOM      6  C   UNL     1      -0.016   1.385  -0.001  0.00  0.00    +0.052 A 
ATOM      7  C   UNL     1       0.076   0.144  -0.617  0.00  0.00    +0.027 A 
ATOM      8  C   UNL     1       1.283  -0.526  -0.640  0.00  0.00    +0.034 A 
ATOM      9  C   UNL     1       2.401   0.038  -0.052  0.00  0.00    +0.128 A 
ATOM     10  C   UNL     1       2.313   1.274   0.561  0.00  0.00    +0.054 A 
ATOM     11  C   UNL     1       1.108   1.950   0.589  0.00  0.00    +0.064 A 
ATOM     12 CL   UNL     1       0.999   3.502   1.359  0.00  0.00    -0.082 Cl
BRANCH   9  13
ATOM     13  N   UNL     1       3.693  -0.683  -0.080  0.00  0.00    +0.056 N 
ATOM     14  O   UNL     1       3.771  -1.772  -0.620  0.00  0.00    -0.126 OA
ATOM     15  O   UNL     1       4.678  -0.188   0.438  0.00  0.00    -0.126 OA
ENDBRANCH   9  13
ENDBRANCH   4   6
ENDBRANCH   1   2
BRANCH   1  16
ATOM     16  O   UNL     1      -4.793   1.175  -0.280  0.00  0.00    -0.451 OA
BRANCH  16  17
ATOM     17  C   UNL     1      -6.039   1.680  -0.380  0.00  0.00    +0.359 C 
ATOM     18  O   UNL     1      -6.209   2.883  -0.387  0.00  0.00    -0.243 OA
BRANCH  17  21
ATOM     19  C   UNL     1      -8.066  -1.344  -0.568  0.00  0.00    +0.116 A 
ATOM     20  N   UNL     1      -7.019  -0.541  -0.481  0.00  0.00    -0.232 NA
ATOM     21  C   UNL     1      -7.194   0.774  -0.481  0.00  0.00    +0.155 A 
ATOM     22  C   UNL     1      -8.467   1.278  -0.583  0.00  0.00    +0.082 A 
ATOM     23  S   UNL     1      -9.412  -0.176  -0.671  0.00  0.00    -0.074 S 
BRANCH  19  26
ATOM     24  C   UNL     1      -8.989  -5.008  -0.668  0.00  0.00    +0.008 A 
ATOM     25  C   UNL     1      -9.196  -3.647  -0.672  0.00  0.00    +0.018 A 
ATOM     26  C   UNL     1      -8.109  -2.815  -0.581  0.00  0.00    +0.044 A 
ATOM     27  S   UNL     1      -6.761  -3.982  -0.476  0.00  0.00    -0.095 S 
ATOM     28  C   UNL     1      -7.721  -5.484  -0.566  0.00  0.00    +0.046 A 
ENDBRANCH  19  26
ENDBRANCH  17  21
ENDBRANCH  16  17
ENDBRANCH   1  16
TORSDOF 7
