REMARK  Name = ZINC35702052
REMARK  11 active torsions:
REMARK  status: ('A' for Active; 'I' for Inactive)
REMARK    1  A    between atoms: C_1  and  C_2
REMARK    2  A    between atoms: C_7  and  C_8
REMARK    3  A    between atoms: C_10  and  C_29
REMARK    4  A    between atoms: C_11  and  C_28
REMARK    5  A    between atoms: C_15  and  C_18
REMARK    6  A    between atoms: C_19  and  N_21
REMARK    7  A    between atoms: N_21  and  N_22
REMARK    8  A    between atoms: C_29  and  O_31
REMARK    9  A    between atoms: O_31  and  C_32
REMARK   10  A    between atoms: C_32  and  C_33
REMARK   11  A    between atoms: C_32  and  C_34
REMARK                            x       y       z     vdW  Elec       q    Type
REMARK                         _______ _______ _______ _____ _____    ______ ____
ROOT
ATOM      1  C   UNL     1      -0.161  -0.299   1.669  0.00  0.00    +0.150 C 
ATOM      2  C   UNL     1       1.271   0.187   1.701  0.00  0.00    +0.083 C 
ATOM      3  C   UNL     1       2.094  -0.299   2.700  0.00  0.00    +0.053 C 
ATOM      4  N   UNL     1       1.630  -1.160   3.591  0.00  0.00    -0.230 NA
ATOM      5  C   UNL     1       0.397  -1.622   3.618  0.00  0.00    +0.166 C 
ATOM      6  N   UNL     1      -0.570  -1.267   2.721  0.00  0.00    -0.267 N 
ATOM      7  C   UNL     1      -1.816  -1.840   2.883  0.00  0.00    +0.048 C 
ATOM      8  C   UNL     1      -1.980  -2.702   3.911  0.00  0.00    +0.072 C 
ATOM      9  S   UNL     1      -0.362  -2.702   4.654  0.00  0.00    -0.060 S 
ATOM     10  C   UNL     1       3.529   0.156   2.774  0.00  0.00    +0.066 C 
ENDROOT
BRANCH   1  17
ATOM     11  C   UNL     1      -1.766   1.055  -0.316  0.00  0.00    +0.044 C 
ATOM     12  C   UNL     1      -1.170  -0.295  -0.622  0.00  0.00    -0.045 A 
ATOM     13  C   UNL     1      -1.386  -0.882  -1.855  0.00  0.00    +0.004 A 
ATOM     14  C   UNL     1      -0.840  -2.120  -2.135  0.00  0.00    +0.000 A 
ATOM     15  C   UNL     1      -0.076  -2.771  -1.184  0.00  0.00    +0.000 A 
ATOM     16  C   UNL     1       0.141  -2.183   0.048  0.00  0.00    +0.006 A 
ATOM     17  C   UNL     1      -0.402  -0.943   0.327  0.00  0.00    -0.019 A 
ENDBRANCH   1  17
BRANCH   7  18
ATOM     18  C   UNL     1      -2.924  -1.524   1.971  0.00  0.00    +0.092 C 
ATOM     19  C   UNL     1      -4.167  -1.968   2.242  0.00  0.00    +0.252 C 
ATOM     20  O   UNL     1      -4.432  -2.555   3.434  0.00  0.00    -0.269 OA
BRANCH  19  21
ATOM     21  N   UNL     1      -5.173  -1.824   1.302  0.00  0.00    -0.245 N 
ATOM     22  H   UNL     1      -6.079  -2.098   1.515  0.00  0.00    +0.170 HD
BRANCH  21  23
ATOM     23  N   UNL     1      -4.890  -1.297   0.073  0.00  0.00    -0.222 NA
ATOM     24  C   UNL     1      -5.603  -0.028  -0.132  0.00  0.00    +0.133 C 
ATOM     25  C   UNL     1      -5.212   0.556  -1.492  0.00  0.00    +0.177 C 
ATOM     26  O   UNL     1      -5.502  -0.399  -2.516  0.00  0.00    -0.377 OA
ATOM     27  C   UNL     1      -4.824  -1.647  -2.348  0.00  0.00    +0.177 C 
ATOM     28  C   UNL     1      -5.210  -2.253  -0.996  0.00  0.00    +0.133 C 
ENDBRANCH  21  23
ENDBRANCH  19  21
ENDBRANCH   7  18
BRANCH   2  29
ATOM     29  C   UNL     1       1.748   1.098   0.750  0.00  0.00    +0.339 C 
ATOM     30  O   UNL     1       2.922   1.425   0.755  0.00  0.00    -0.245 OA
BRANCH  29  31
ATOM     31  O   UNL     1       0.906   1.615  -0.172  0.00  0.00    -0.459 OA
BRANCH  31  32
ATOM     32  C   UNL     1       1.480   2.447  -1.181  0.00  0.00    +0.171 C 
ATOM     33  C   UNL     1       1.785   1.607  -2.423  0.00  0.00    +0.052 C 
ATOM     34  C   UNL     1       0.495   3.559  -1.546  0.00  0.00    +0.052 C 
ENDBRANCH  31  32
ENDBRANCH  29  31
ENDBRANCH   2  29
TORSDOF 7
