REMARK  Name = ZINC27520937
REMARK  6 active torsions:
REMARK  status: ('A' for Active; 'I' for Inactive)
REMARK    1  A    between atoms: C_1  and  O_2
REMARK    2  A    between atoms: O_2  and  C_3
REMARK    3  A    between atoms: C_10  and  C_25
REMARK    4  A    between atoms: N_12  and  C_13
REMARK    5  A    between atoms: C_17  and  C_19
REMARK    6  A    between atoms: C_20  and  C_21
REMARK                            x       y       z     vdW  Elec       q    Type
REMARK                         _______ _______ _______ _____ _____    ______ ____
ROOT
ATOM      1  C   UNL     1       4.788   1.036   0.270  0.00  0.00    +0.121 A 
ATOM      2  C   UNL     1       4.669  -0.324   0.001  0.00  0.00    +0.049 A 
ATOM      3  C   UNL     1       3.436  -0.882  -0.267  0.00  0.00    +0.050 A 
ATOM      4  C   UNL     1       2.300  -0.087  -0.270  0.00  0.00    +0.138 A 
ATOM      5  C   UNL     1       2.413   1.289   0.004  0.00  0.00    +0.022 A 
ATOM      6  C   UNL     1       3.669   1.846   0.273  0.00  0.00    +0.057 A 
ATOM      7  C   UNL     1       1.209   2.123   0.006  0.00  0.00    +0.030 A 
ATOM      8  C   UNL     1      -0.018   1.472   0.008  0.00  0.00    +0.097 A 
ATOM      9  C   UNL     1       0.005  -0.004   0.006  0.00  0.00    +0.212 A 
ATOM     10  N   UNL     1      -0.991  -0.698   0.514  0.00  0.00    -0.325 N 
ATOM     11  O   UNL     1       1.084  -0.624  -0.536  0.00  0.00    -0.439 OA
ATOM     12  H   UNL     1      -1.816  -0.182   1.027  0.00  0.00    +0.169 HD
ENDROOT
BRANCH  10  13
ATOM     13  C   UNL     1      -1.000  -2.062   0.405  0.00  0.00    +0.042 A 
ATOM     14  C   UNL     1      -1.518  -2.669  -0.743  0.00  0.00    +0.026 A 
ATOM     15  C   UNL     1      -1.523  -4.045  -0.859  0.00  0.00    +0.003 A 
ATOM     16  C   UNL     1      -1.028  -4.832   0.162  0.00  0.00    +0.008 A 
ATOM     17  C   UNL     1      -0.512  -4.240   1.320  0.00  0.00    -0.023 A 
ATOM     18  C   UNL     1      -0.499  -2.849   1.440  0.00  0.00    +0.033 A 
BRANCH  17  19
ATOM     19  C   UNL     1       0.014  -5.080   2.407  0.00  0.00    +0.015 C 
ATOM     20  C   UNL     1       0.000  -6.424   2.288  0.00  0.00    +0.096 C 
BRANCH  20  21
ATOM     21  C   UNL     1       0.523  -7.259   3.369  0.00  0.00    +0.380 C 
ATOM     22  O   UNL     1       0.971  -6.742   4.375  0.00  0.00    -0.241 OA
ATOM     23  O   UNL     1       0.509  -8.603   3.250  0.00  0.00    -0.241 OA
ENDBRANCH  20  21
ENDBRANCH  17  19
ENDBRANCH  10  13
BRANCH   8  24
ATOM     24  C   UNL     1      -1.286   2.221   0.006  0.00  0.00    +0.247 C 
ATOM     25  O   UNL     1      -2.345   1.624   0.003  0.00  0.00    -0.270 OA
ATOM     26  N   UNL     1      -1.272   3.569   0.008  0.00  0.00    -0.325 N 
ATOM     27  H   UNL     1      -2.219   4.128   0.006  0.00  0.00    +0.145 HD
ATOM     28  H   UNL     1      -0.314   4.109   0.011  0.00  0.00    +0.145 HD
ENDBRANCH   8  24
BRANCH   1  30
ATOM     29  C   UNL     1       7.126   0.678   0.511  0.00  0.00    +0.277 C 
ATOM     30  O   UNL     1       6.011   1.571   0.530  0.00  0.00    -0.495 OA
ENDBRANCH   1  30
TORSDOF 5
