REMARK  Name = ZINC04683642
REMARK  6 active torsions:
REMARK  status: ('A' for Active; 'I' for Inactive)
REMARK    1  A    between atoms: C_3  and  N_23
REMARK    2  A    between atoms: C_4  and  N_20
REMARK    3  A    between atoms: C_6  and  N_7
REMARK    4  A    between atoms: N_23  and  C_24
REMARK    5  A    between atoms: C_24  and  C_25
REMARK    6  A    between atoms: C_25  and  C_26
REMARK                            x       y       z     vdW  Elec       q    Type
REMARK                         _______ _______ _______ _____ _____    ______ ____
ROOT
ATOM      1  C   UNL     1      -0.001   1.379  -0.216  0.00  0.00    +0.026 A 
ATOM      2  C   UNL     1       1.197   2.064  -0.277  0.00  0.00    +0.027 A 
ATOM      3  C   UNL     1       2.393   1.390  -0.066  0.00  0.00    +0.058 A 
ATOM      4  C   UNL     1       2.384   0.028   0.205  0.00  0.00    +0.149 A 
ATOM      5  C   UNL     1       1.186  -0.656   0.265  0.00  0.00    +0.058 A 
ATOM      6  C   UNL     1      -0.009   0.018   0.055  0.00  0.00    +0.046 A 
ENDROOT
BRANCH   6   7
ATOM      7  N   UNL     1      -1.227  -0.677   0.117  0.00  0.00    -0.210 N 
ATOM      8  C   UNL     1      -1.314  -2.009   0.383  0.00  0.00    +0.230 C 
ATOM      9  O   UNL     1      -0.434  -2.727   0.806  0.00  0.00    -0.275 OA
ATOM     10  C   UNL     1      -2.717  -2.405   0.049  0.00  0.00    +0.088 C 
ATOM     11  C   UNL     1      -3.394  -3.493   0.854  0.00  0.00    +0.013 C 
ATOM     12  C   UNL     1      -4.821  -3.623   0.285  0.00  0.00    +0.001 C 
ATOM     13  C   UNL     1      -5.583  -2.304   0.353  0.00  0.00    +0.001 C 
ATOM     14  C   UNL     1      -4.801  -1.150  -0.302  0.00  0.00    +0.013 C 
ATOM     15  C   UNL     1      -3.460  -1.075   0.374  0.00  0.00    +0.088 C 
ATOM     16  C   UNL     1      -2.436  -0.084  -0.077  0.00  0.00    +0.230 C 
ATOM     17  O   UNL     1      -2.643   1.022  -0.528  0.00  0.00    -0.275 OA
ENDBRANCH   6   7
BRANCH   4  18
ATOM     18  N   UNL     1       3.658  -0.691   0.428  0.00  0.00    +0.058 N 
ATOM     19  O   UNL     1       3.799  -1.817   0.011  0.00  0.00    -0.126 OA
ATOM     20  O   UNL     1       4.559  -0.152   1.029  0.00  0.00    -0.126 OA
ENDBRANCH   4  18
BRANCH   3  21
ATOM     21  N   UNL     1       3.606   2.083  -0.128  0.00  0.00    -0.342 N 
ATOM     22  H   UNL     1       4.444   1.599  -0.067  0.00  0.00    +0.146 HD
BRANCH  21  23
ATOM     23  C   UNL     1       3.611   3.539  -0.286  0.00  0.00    +0.106 C 
BRANCH  23  24
ATOM     24  C   UNL     1       5.055   4.043  -0.325  0.00  0.00    +0.049 C 
BRANCH  24  25
ATOM     25  C   UNL     1       5.060   5.542  -0.487  0.00  0.00    -0.072 C 
ATOM     26  C   UNL     1       5.154   6.268   0.580  0.00  0.00    -0.028 C 
ATOM     27  C   UNL     1       5.161   7.768   0.579  0.00  0.00    +0.027 C 
ATOM     28  C   UNL     1       5.469   8.292  -0.826  0.00  0.00    +0.004 C 
ATOM     29  C   UNL     1       4.552   7.574  -1.823  0.00  0.00    +0.005 C 
ATOM     30  C   UNL     1       4.961   6.099  -1.877  0.00  0.00    +0.030 C 
ENDBRANCH  24  25
ENDBRANCH  23  24
ENDBRANCH  21  23
ENDBRANCH   3  21
TORSDOF 6
