REMARK  Name = ZINC58993165
REMARK  10 active torsions:
REMARK  status: ('A' for Active; 'I' for Inactive)
REMARK    1  A    between atoms: C_1  and  C_2
REMARK    2  A    between atoms: C_2  and  C_3
REMARK    3  A    between atoms: C_3  and  S_4
REMARK    4  A    between atoms: S_4  and  C_5
REMARK    5  A    between atoms: C_11  and  C_13
REMARK    6  A    between atoms: C_13  and  S_14
REMARK    7  A    between atoms: S_14  and  C_15
REMARK    8  A    between atoms: N_20  and  N_21
REMARK    9  A    between atoms: C_22  and  C_23
REMARK   10  A    between atoms: C_27  and  N_29
REMARK                            x       y       z     vdW  Elec       q    Type
REMARK                         _______ _______ _______ _____ _____    ______ ____
ROOT
ATOM      1  C   UNL     1       6.019  -4.243 -10.567  0.00  0.00    +0.211 A 
ATOM      2  N   UNL     1       6.643  -3.794 -11.661  0.00  0.00    -0.186 NA
ATOM      3  C   UNL     1       7.055  -4.814 -12.385  0.00  0.00    +0.232 A 
ATOM      4  N   UNL     1       6.693  -5.949 -11.750  0.00  0.00    -0.245 N 
ATOM      5  N   UNL     1       6.030  -5.554 -10.577  0.00  0.00    -0.144 NA
ATOM      6  N   UNL     1       7.739  -4.736 -13.584  0.00  0.00    -0.205 N 
ATOM      7  H   UNL     1       8.002  -5.547 -14.046  0.00  0.00    +0.177 HD
ATOM      8  H   UNL     1       6.860  -6.858 -12.045  0.00  0.00    +0.192 HD
ENDROOT
BRANCH   6   9
ATOM      9  N   UNL     1       8.052  -3.485 -14.132  0.00  0.00    -0.188 NA
ATOM     10  C   UNL     1       8.694  -3.412 -15.258  0.00  0.00    +0.138 C 
BRANCH  10  11
ATOM     11  C   UNL     1       9.023  -2.095 -15.835  0.00  0.00    -0.003 A 
ATOM     12  C   UNL     1       8.651  -0.924 -15.169  0.00  0.00    +0.009 A 
ATOM     13  C   UNL     1       8.963   0.303 -15.714  0.00  0.00    +0.003 A 
ATOM     14  C   UNL     1       9.642   0.378 -16.918  0.00  0.00    +0.033 A 
ATOM     15  C   UNL     1      10.014  -0.777 -17.582  0.00  0.00    +0.127 A 
ATOM     16  C   UNL     1       9.714  -2.013 -17.046  0.00  0.00    +0.042 A 
BRANCH  15  17
ATOM     17  N   UNL     1      10.740  -0.688 -18.869  0.00  0.00    +0.056 N 
ATOM     18  O   UNL     1      11.008   0.394 -19.338  0.00  0.00    -0.126 OA
ATOM     19  O   UNL     1      11.066  -1.696 -19.451  0.00  0.00    -0.126 OA
ENDBRANCH  15  17
ENDBRANCH  10  11
ENDBRANCH   6   9
BRANCH   1  20
ATOM     20  S   UNL     1       5.303  -3.235  -9.311  0.00  0.00    -0.075 S 
BRANCH  20  21
ATOM     21  C   UNL     1       4.633  -4.427  -8.120  0.00  0.00    +0.173 C 
BRANCH  21  28
ATOM     22  C   UNL     1       1.589  -2.718  -2.758  0.00  0.00    +0.160 A 
ATOM     23  N   UNL     1       2.111  -1.927  -3.684  0.00  0.00    -0.133 NA
ATOM     24  N   UNL     1       2.691  -2.388  -4.705  0.00  0.00    -0.125 NA
ATOM     25  C   UNL     1       2.814  -3.688  -4.914  0.00  0.00    +0.189 A 
ATOM     26  S   UNL     1       1.997  -4.318  -3.450  0.00  0.00    -0.024 S 
ATOM     27  N   UNL     1       3.414  -4.373  -5.968  0.00  0.00    -0.263 N 
ATOM     28  C   UNL     1       3.984  -3.687  -6.979  0.00  0.00    +0.229 C 
ATOM     29  O   UNL     1       3.975  -2.474  -6.970  0.00  0.00    -0.275 OA
ATOM     30  H   UNL     1       3.422  -5.343  -5.975  0.00  0.00    +0.157 HD
BRANCH  22  31
ATOM     31  S   UNL     1       0.743  -2.311  -1.267  0.00  0.00    -0.097 S 
BRANCH  31  32
ATOM     32  C   UNL     1       0.718  -0.497  -1.257  0.00  0.00    +0.076 C 
BRANCH  32  34
ATOM     33  C   UNL     1      -0.019   1.526   0.010  0.00  0.00    +0.004 C 
ATOM     34  C   UNL     1       0.002  -0.004   0.002  0.00  0.00    +0.008 C 
ENDBRANCH  32  34
ENDBRANCH  31  32
ENDBRANCH  22  31
ENDBRANCH  21  28
ENDBRANCH  20  21
ENDBRANCH   1  20
TORSDOF 9
