REMARK  Name = ZINC04182484
REMARK  5 active torsions:
REMARK  status: ('A' for Active; 'I' for Inactive)
REMARK    1  A    between atoms: C_1  and  C_2
REMARK    2  A    between atoms: C_2  and  O_3
REMARK    3  A    between atoms: O_3  and  C_4
REMARK    4  A    between atoms: C_8  and  N_10
REMARK    5  A    between atoms: C_14  and  C_23
REMARK                            x       y       z     vdW  Elec       q    Type
REMARK                         _______ _______ _______ _____ _____    ______ ____
ROOT
ATOM      1  C   UNL     1      -2.798  -1.973  -1.284  0.00  0.00    +0.123 A 
ATOM      2  C   UNL     1      -1.501  -1.597  -0.970  0.00  0.00    +0.051 A 
ATOM      3  C   UNL     1      -1.262  -0.448  -0.247  0.00  0.00    -0.014 A 
ATOM      4  C   UNL     1      -2.322   0.362   0.168  0.00  0.00    +0.062 A 
ATOM      5  C   UNL     1      -3.623  -0.031  -0.148  0.00  0.00    +0.151 A 
ATOM      6  C   UNL     1      -3.859  -1.184  -0.865  0.00  0.00    +0.080 A 
ATOM      7  N   UNL     1      -2.163   1.563   0.863  0.00  0.00    -0.335 N 
ATOM      8  C   UNL     1      -0.777   1.921   1.270  0.00  0.00    +0.108 C 
ATOM      9  C   UNL     1       0.119   1.530   0.113  0.00  0.00    +0.029 C 
ATOM     10  C   UNL     1       0.109  -0.030   0.117  0.00  0.00    +0.049 C 
ATOM     11  C   UNL     1       1.285  -0.375  -0.719  0.00  0.00    -0.023 C 
ATOM     12  C   UNL     1       2.176   0.605  -0.620  0.00  0.00    -0.030 C 
ATOM     13  C   UNL     1       1.631   1.716   0.281  0.00  0.00    +0.033 C 
ATOM     14  H   UNL     1      -2.610   2.325   0.375  0.00  0.00    +0.147 HD
ENDROOT
BRANCH   8  15
ATOM     15  C   UNL     1      -0.682   3.405   1.515  0.00  0.00    +0.008 A 
ATOM     16  C   UNL     1      -0.156   4.234   0.542  0.00  0.00    +0.008 A 
ATOM     17  C   UNL     1      -0.069   5.595   0.767  0.00  0.00    +0.000 A 
ATOM     18  C   UNL     1      -0.508   6.129   1.964  0.00  0.00    +0.003 A 
ATOM     19  C   UNL     1      -1.034   5.302   2.938  0.00  0.00    +0.039 A 
ATOM     20  C   UNL     1      -1.126   3.939   2.712  0.00  0.00    +0.128 A 
ATOM     21  F   UNL     1      -1.646   3.131   3.662  0.00  0.00    -0.205 F 
ENDBRANCH   8  15
BRANCH   5  22
ATOM     22  N   UNL     1      -4.766   0.800   0.292  0.00  0.00    +0.058 N 
ATOM     23  O   UNL     1      -5.904   0.464   0.021  0.00  0.00    -0.126 OA
ATOM     24  O   UNL     1      -4.567   1.821   0.926  0.00  0.00    -0.126 OA
ENDBRANCH   5  22
BRANCH   1  25
ATOM     25  O   UNL     1      -3.029  -3.108  -1.998  0.00  0.00    -0.492 OA
BRANCH  25  27
ATOM     26  C   UNL     1      -4.452  -4.729  -3.088  0.00  0.00    +0.048 C 
ATOM     27  C   UNL     1      -4.392  -3.429  -2.283  0.00  0.00    +0.225 C 
ENDBRANCH  25  27
ENDBRANCH   1  25
TORSDOF 4
