REMARK  Name = ZINC59639293
REMARK  9 active torsions:
REMARK  status: ('A' for Active; 'I' for Inactive)
REMARK    1  A    between atoms: C_1  and  C_2
REMARK    2  A    between atoms: C_2  and  C_4
REMARK    3  A    between atoms: C_2  and  S_23
REMARK    4  A    between atoms: N_6  and  N_7
REMARK    5  A    between atoms: C_8  and  C_9
REMARK    6  A    between atoms: C_12  and  C_14
REMARK    7  A    between atoms: C_19  and  C_20
REMARK    8  A    between atoms: S_23  and  C_24
REMARK    9  A    between atoms: N_28  and  C_29
REMARK                            x       y       z     vdW  Elec       q    Type
REMARK                         _______ _______ _______ _____ _____    ______ ____
ROOT
ATOM      1  C   UNL     1       0.731  -0.503   1.223  0.00  0.00    +0.245 C 
ATOM      2  O   UNL     1       0.105  -0.891   2.187  0.00  0.00    -0.273 OA
ATOM      3  N   UNL     1       2.079  -0.519   1.244  0.00  0.00    -0.206 N 
ATOM      4  H   UNL     1       2.579  -0.208   0.473  0.00  0.00    +0.177 HD
ENDROOT
BRANCH   1   6
ATOM      5  C   UNL     1      -0.019   1.526   0.010  0.00  0.00    +0.029 C 
ATOM      6  C   UNL     1       0.002  -0.004   0.002  0.00  0.00    +0.139 C 
BRANCH   6   7
ATOM      7  S   UNL     1      -1.700  -0.632   0.015  0.00  0.00    -0.072 S 
BRANCH   7   8
ATOM      8  C   UNL     1      -2.365  -0.093  -1.525  0.00  0.00    +0.215 A 
ATOM      9  N   UNL     1      -1.734   0.599  -2.450  0.00  0.00    -0.101 NA
ATOM     10  N   UNL     1      -2.509   0.824  -3.449  0.00  0.00    -0.022 NA
ATOM     11  N   UNL     1      -3.670   0.304  -3.244  0.00  0.00    -0.038 NA
ATOM     12  N   UNL     1      -3.621  -0.319  -1.985  0.00  0.00    -0.187 N 
BRANCH  12  13
ATOM     13  C   UNL     1      -4.650  -1.021  -1.341  0.00  0.00    +0.070 A 
ATOM     14  C   UNL     1      -4.351  -2.121  -0.549  0.00  0.00    +0.028 A 
ATOM     15  C   UNL     1      -5.367  -2.811   0.084  0.00  0.00    +0.002 A 
ATOM     16  C   UNL     1      -6.680  -2.406  -0.071  0.00  0.00    +0.000 A 
ATOM     17  C   UNL     1      -6.981  -1.311  -0.860  0.00  0.00    +0.002 A 
ATOM     18  C   UNL     1      -5.969  -0.614  -1.491  0.00  0.00    +0.028 A 
ENDBRANCH  12  13
ENDBRANCH   7   8
ENDBRANCH   6   7
ENDBRANCH   1   6
BRANCH   3  19
ATOM     19  N   UNL     1       2.756  -0.983   2.379  0.00  0.00    -0.185 NA
ATOM     20  C   UNL     1       4.058  -0.998   2.399  0.00  0.00    +0.176 C 
BRANCH  20  21
ATOM     21  C   UNL     1       4.766  -1.483   3.586  0.00  0.00    +0.148 A 
ATOM     22  C   UNL     1       6.134  -1.547   3.741  0.00  0.00    +0.051 A 
ATOM     23  C   UNL     1       6.372  -2.068   5.018  0.00  0.00    +0.050 A 
ATOM     24  C   UNL     1       5.154  -2.301   5.589  0.00  0.00    +0.137 A 
ATOM     25  O   UNL     1       4.193  -1.939   4.717  0.00  0.00    -0.454 OA
BRANCH  24  26
ATOM     26  C   UNL     1       4.928  -2.851   6.936  0.00  0.00    +0.031 A 
ATOM     27  C   UNL     1       5.591  -4.011   7.342  0.00  0.00    +0.012 A 
ATOM     28  C   UNL     1       5.375  -4.522   8.604  0.00  0.00    +0.001 A 
ATOM     29  C   UNL     1       4.503  -3.892   9.480  0.00  0.00    +0.001 A 
ATOM     30  C   UNL     1       3.838  -2.746   9.101  0.00  0.00    +0.016 A 
ATOM     31  C   UNL     1       4.045  -2.206   7.829  0.00  0.00    +0.074 A 
BRANCH  31  32
ATOM     32  C   UNL     1       3.344  -0.979   7.421  0.00  0.00    +0.387 C 
ATOM     33  O   UNL     1       2.580  -0.424   8.199  0.00  0.00    -0.241 OA
ATOM     34  O   UNL     1       3.525  -0.514   6.304  0.00  0.00    -0.241 OA
ENDBRANCH  31  32
ENDBRANCH  24  26
ENDBRANCH  20  21
ENDBRANCH   3  19
TORSDOF 8
