REMARK  Name = ZINC32986899
REMARK  7 active torsions:
REMARK  status: ('A' for Active; 'I' for Inactive)
REMARK    1  A    between atoms: C_5  and  C_7
REMARK    2  A    between atoms: C_7  and  N_8
REMARK    3  A    between atoms: C_9  and  C_11
REMARK    4  A    between atoms: C_11  and  O_12
REMARK    5  A    between atoms: O_12  and  C_13
REMARK    6  A    between atoms: C_13  and  C_15
REMARK    7  A    between atoms: C_18  and  C_21
REMARK                            x       y       z     vdW  Elec       q    Type
REMARK                         _______ _______ _______ _____ _____    ______ ____
ROOT
ATOM      1  C   UNL     1      -0.979  -2.247  -4.658  0.00  0.00    +0.059 A 
ATOM      2  C   UNL     1      -1.501  -1.105  -4.047  0.00  0.00    +0.015 A 
ATOM      3  C   UNL     1      -1.622  -1.056  -2.673  0.00  0.00    +0.007 A 
ATOM      4  C   UNL     1      -1.227  -2.135  -1.902  0.00  0.00    -0.011 A 
ATOM      5  C   UNL     1      -0.704  -3.267  -2.501  0.00  0.00    +0.007 A 
ATOM      6  C   UNL     1      -0.582  -3.332  -3.873  0.00  0.00    +0.015 A 
ENDROOT
BRANCH   4   7
ATOM      7  C   UNL     1      -1.362  -2.074  -0.402  0.00  0.00    +0.191 C 
ATOM      8  N   UNL     1      -1.207  -0.692   0.048  0.00  0.00    -0.322 N 
ATOM      9  C   UNL     1       0.002  -0.004   0.002  0.00  0.00    +0.055 A 
ATOM     10  C   UNL     1      -0.017   1.390   0.010  0.00  0.00    +0.025 A 
ATOM     11  C   UNL     1       1.165   2.100   0.002  0.00  0.00    +0.002 A 
ATOM     12  C   UNL     1       2.378   1.435  -0.014  0.00  0.00    +0.002 A 
ATOM     13  C   UNL     1       2.405   0.052  -0.029  0.00  0.00    +0.030 A 
ATOM     14  C   UNL     1       1.225  -0.661  -0.028  0.00  0.00    +0.126 A 
ATOM     15  S   UNL     1       1.263  -2.427  -0.085  0.00  0.00    +0.062 S 
ATOM     16  O   UNL     1       1.550  -2.794  -1.427  0.00  0.00    -0.153 OA
ATOM     17  O   UNL     1       2.050  -2.861   1.016  0.00  0.00    -0.153 OA
ATOM     18  N   UNL     1      -0.307  -2.897   0.224  0.00  0.00    -0.166 NA
ATOM     19  H   UNL     1      -2.073  -0.144   0.447  0.00  0.00    +0.148 HD
ATOM     20  H   UNL     1      -0.575  -3.653   0.977  0.00  0.00    +0.150 HD
ENDBRANCH   4   7
BRANCH   1  21
ATOM     21  C   UNL     1      -0.845  -2.306  -6.128  0.00  0.00    +0.340 C 
ATOM     22  O   UNL     1      -1.190  -1.361  -6.808  0.00  0.00    -0.245 OA
BRANCH  21  23
ATOM     23  O   UNL     1      -0.341  -3.409  -6.714  0.00  0.00    -0.452 OA
BRANCH  23  24
ATOM     24  C   UNL     1      -0.239  -3.397  -8.163  0.00  0.00    +0.328 C 
BRANCH  24  26
ATOM     25  N   UNL     1       0.530  -4.921  -9.953  0.00  0.00    -0.308 N 
ATOM     26  C   UNL     1       0.343  -4.705  -8.636  0.00  0.00    +0.251 C 
ATOM     27  O   UNL     1       0.642  -5.562  -7.832  0.00  0.00    -0.272 OA
ATOM     28  H   UNL     1       0.259  -4.144 -10.682  0.00  0.00    +0.149 HD
BRANCH  25  29
ATOM     29  C   UNL     1       1.096  -6.192 -10.413  0.00  0.00    +0.141 C 
BRANCH  29  34
ATOM     30  C   UNL     1       0.343  -6.810 -14.060  0.00  0.00    +0.000 A 
ATOM     31  C   UNL     1       1.396  -6.159 -14.675  0.00  0.00    +0.001 A 
ATOM     32  C   UNL     1       2.353  -5.518 -13.910  0.00  0.00    +0.020 A 
ATOM     33  C   UNL     1       2.256  -5.529 -12.530  0.00  0.00    +0.046 A 
ATOM     34  C   UNL     1       1.202  -6.180 -11.916  0.00  0.00    -0.012 A 
ATOM     35  C   UNL     1       0.248  -6.825 -12.681  0.00  0.00    +0.006 A 
ATOM     36 CL   UNL     1       3.458  -4.725 -11.569  0.00  0.00    -0.083 Cl
ENDBRANCH  29  34
ENDBRANCH  25  29
ENDBRANCH  24  26
ENDBRANCH  23  24
ENDBRANCH  21  23
ENDBRANCH   1  21
TORSDOF 7
