REMARK  Name = ZINC41089805
REMARK  11 active torsions:
REMARK  status: ('A' for Active; 'I' for Inactive)
REMARK    1  A    between atoms: C_1  and  C_2
REMARK    2  A    between atoms: C_5  and  O_19
REMARK    3  A    between atoms: C_6  and  N_8
REMARK    4  A    between atoms: C_9  and  C_11
REMARK    5  A    between atoms: C_11  and  O_12
REMARK    6  A    between atoms: O_12  and  C_13
REMARK    7  A    between atoms: O_19  and  C_20
REMARK    8  A    between atoms: C_20  and  C_21
REMARK    9  A    between atoms: N_30  and  C_31
REMARK   10  A    between atoms: C_31  and  C_32
REMARK   11  A    between atoms: C_31  and  C_33
REMARK                            x       y       z     vdW  Elec       q    Type
REMARK                         _______ _______ _______ _____ _____    ______ ____
ROOT
ATOM      1  C   UNL     1       0.016   1.511   0.025  0.00  0.00    +0.044 C 
ATOM      2  C   UNL     1       0.029   0.004   0.011  0.00  0.00    -0.048 A 
ATOM      3  C   UNL     1       0.036  -0.675  -1.193  0.00  0.00    +0.007 A 
ATOM      4  C   UNL     1       0.048  -2.057  -1.212  0.00  0.00    +0.048 A 
ATOM      5  C   UNL     1       0.052  -2.766  -0.021  0.00  0.00    +0.142 A 
ATOM      6  C   UNL     1       0.046  -2.083   1.192  0.00  0.00    +0.076 A 
ATOM      7  C   UNL     1       0.040  -0.696   1.203  0.00  0.00    +0.030 A 
ENDROOT
BRANCH   6   8
ATOM      8  N   UNL     1       0.050  -2.795   2.399  0.00  0.00    -0.280 N 
ATOM      9  C   UNL     1      -0.440  -2.226   3.519  0.00  0.00    +0.255 C 
ATOM     10  O   UNL     1      -0.977  -1.140   3.462  0.00  0.00    -0.272 OA
ATOM     11  H   UNL     1       0.407  -3.696   2.429  0.00  0.00    +0.155 HD
BRANCH   9  12
ATOM     12  C   UNL     1      -0.323  -2.941   4.840  0.00  0.00    +0.324 C 
BRANCH  12  13
ATOM     13  O   UNL     1      -0.912  -2.142   5.868  0.00  0.00    -0.483 OA
BRANCH  13  14
ATOM     14  C   UNL     1      -0.890  -2.645   7.130  0.00  0.00    +0.121 A 
ATOM     15  C   UNL     1      -0.307  -3.880   7.375  0.00  0.00    +0.045 A 
ATOM     16  C   UNL     1      -0.285  -4.389   8.659  0.00  0.00    +0.004 A 
ATOM     17  C   UNL     1      -0.844  -3.670   9.699  0.00  0.00    +0.000 A 
ATOM     18  C   UNL     1      -1.426  -2.439   9.457  0.00  0.00    +0.004 A 
ATOM     19  C   UNL     1      -1.445  -1.923   8.176  0.00  0.00    +0.045 A 
ENDBRANCH  13  14
ENDBRANCH  12  13
ENDBRANCH   9  12
ENDBRANCH   6   8
BRANCH   5  20
ATOM     20  O   UNL     1       0.063  -4.126  -0.038  0.00  0.00    -0.484 OA
BRANCH  20  21
ATOM     21  C   UNL     1       0.069  -4.759  -1.319  0.00  0.00    +0.284 C 
BRANCH  21  22
ATOM     22  C   UNL     1       0.081  -6.255  -1.140  0.00  0.00    +0.088 A 
ATOM     23  C   UNL     1      -0.985  -6.997  -1.562  0.00  0.00    +0.099 A 
ATOM     24  C   UNL     1      -0.952  -8.393  -1.385  0.00  0.00    +0.275 A 
ATOM     25  O   UNL     1      -1.885  -9.089  -1.751  0.00  0.00    -0.266 OA
ATOM     26  N   UNL     1       0.130  -8.944  -0.805  0.00  0.00    -0.180 N 
ATOM     27  C   UNL     1       1.172  -8.156  -0.399  0.00  0.00    +0.255 A 
ATOM     28  N   UNL     1       1.130  -6.845  -0.577  0.00  0.00    -0.212 NA
ATOM     29  N   UNL     1       2.107  -8.963   0.140  0.00  0.00    -0.200 NA
ATOM     30  C   UNL     1       1.709 -10.207   0.094  0.00  0.00    +0.220 A 
ATOM     31  N   UNL     1       0.481 -10.263  -0.485  0.00  0.00    -0.261 N 
BRANCH  31  32
ATOM     32  C   UNL     1      -0.319 -11.466  -0.728  0.00  0.00    +0.101 C 
ATOM     33  C   UNL     1      -1.652 -11.350   0.014  0.00  0.00    +0.032 C 
ATOM     34  C   UNL     1      -0.582 -11.610  -2.228  0.00  0.00    +0.032 C 
ENDBRANCH  31  32
ENDBRANCH  21  22
ENDBRANCH  20  21
ENDBRANCH   5  20
TORSDOF 8
