REMARK  Name = ZINC65776365
REMARK  5 active torsions:
REMARK  status: ('A' for Active; 'I' for Inactive)
REMARK    1  A    between atoms: C_1  and  N_2
REMARK    2  A    between atoms: C_6  and  C_7
REMARK    3  A    between atoms: C_7  and  C_8
REMARK    4  A    between atoms: C_7  and  N_15
REMARK    5  A    between atoms: N_18  and  C_19
REMARK                            x       y       z     vdW  Elec       q    Type
REMARK                         _______ _______ _______ _____ _____    ______ ____
ROOT
ATOM      1  N   UNL     1       1.023  -1.120   3.278  0.00  0.00    -0.285 N 
ATOM      2  C   UNL     1       2.315  -0.735   3.277  0.00  0.00    +0.305 C 
ATOM      3  O   UNL     1       2.655   0.250   2.650  0.00  0.00    -0.252 OA
ATOM      4  N   UNL     1       3.229  -1.441   3.970  0.00  0.00    -0.269 N 
ATOM      5  H   UNL     1       0.752  -1.906   3.778  0.00  0.00    +0.151 HD
ATOM      6  H   UNL     1       2.949  -2.186   4.524  0.00  0.00    +0.156 HD
ENDROOT
BRANCH   4   7
ATOM      7  C   UNL     1       4.586  -1.098   3.892  0.00  0.00    +0.036 A 
ATOM      8  C   UNL     1       4.959   0.240   3.779  0.00  0.00    +0.027 A 
ATOM      9  C   UNL     1       6.288   0.593   3.700  0.00  0.00    +0.049 A 
ATOM     10  C   UNL     1       7.272  -0.387   3.733  0.00  0.00    +0.139 A 
ATOM     11  C   UNL     1       6.901  -1.738   3.847  0.00  0.00    +0.019 A 
ATOM     12  C   UNL     1       5.550  -2.088   3.932  0.00  0.00    +0.035 A 
ATOM     13  C   UNL     1       7.949  -2.764   3.880  0.00  0.00    +0.018 A 
ATOM     14  C   UNL     1       9.242  -2.361   3.799  0.00  0.00    +0.092 A 
ATOM     15  C   UNL     1       9.543  -0.987   3.686  0.00  0.00    +0.337 A 
ATOM     16  O   UNL     1      10.708  -0.638   3.613  0.00  0.00    -0.245 OA
ATOM     17  O   UNL     1       8.579  -0.054   3.655  0.00  0.00    -0.422 OA
ENDBRANCH   4   7
BRANCH   1  18
ATOM     18  C   UNL     1       0.029  -0.353   2.524  0.00  0.00    +0.171 C 
BRANCH  18  19
ATOM     19  C   UNL     1      -1.334  -0.562   3.132  0.00  0.00    -0.020 A 
ATOM     20  C   UNL     1      -1.704  -1.815   3.584  0.00  0.00    +0.009 A 
ATOM     21  C   UNL     1      -2.953  -2.008   4.142  0.00  0.00    +0.038 A 
ATOM     22  C   UNL     1      -3.834  -0.946   4.249  0.00  0.00    +0.123 A 
ATOM     23  C   UNL     1      -3.463   0.309   3.796  0.00  0.00    +0.038 A 
ATOM     24  C   UNL     1      -2.211   0.501   3.243  0.00  0.00    +0.009 A 
ATOM     25  F   UNL     1      -5.056  -1.133   4.794  0.00  0.00    -0.205 F 
ENDBRANCH  18  19
BRANCH  18  31
ATOM     26  C   UNL     1      -0.020   1.447   0.002  0.00  0.00    +0.150 C 
ATOM     27  N   UNL     1      -0.005  -0.018   0.003  0.00  0.00    -0.336 N 
ATOM     28  C   UNL     1      -0.005  -0.831  -1.098  0.00  0.00    +0.106 A 
ATOM     29  C   UNL     1       0.012  -2.099  -0.646  0.00  0.00    +0.130 A 
ATOM     30  N   UNL     1       0.022  -2.062   0.695  0.00  0.00    -0.238 NA
ATOM     31  C   UNL     1       0.017  -0.818   1.091  0.00  0.00    +0.134 A 
ENDBRANCH  18  31
ENDBRANCH   1  18
TORSDOF 4
