REMARK  Name = ZINC11966286
REMARK  11 active torsions:
REMARK  status: ('A' for Active; 'I' for Inactive)
REMARK    1  A    between atoms: C_1  and  C_2
REMARK    2  A    between atoms: C_2  and  C_3
REMARK    3  A    between atoms: C_3  and  C_4
REMARK    4  A    between atoms: C_4  and  C_19
REMARK    5  A    between atoms: N_7  and  C_11
REMARK    6  A    between atoms: C_11  and  C_12
REMARK    7  A    between atoms: C_12  and  C_13
REMARK    8  A    between atoms: C_18  and  N_72
REMARK    9  A    between atoms: C_25  and  C_27
REMARK   10  A    between atoms: C_27  and  O_28
REMARK   11  A    between atoms: O_28  and  C_29
REMARK                            x       y       z     vdW  Elec       q    Type
REMARK                         _______ _______ _______ _____ _____    ______ ____
ROOT
ATOM      1  C   UNL     1       2.217   0.798  -0.126  0.00  0.00    +0.115 C 
ATOM      2  C   UNL     1       1.431  -0.497  -0.154  0.00  0.00    +0.247 C 
ATOM      3  O   UNL     1       1.875  -1.621  -0.252  0.00  0.00    -0.273 OA
ATOM      4  N   UNL     1       0.136  -0.140  -0.049  0.00  0.00    -0.224 N 
ATOM      5  C   UNL     1      -0.004   1.187   0.042  0.00  0.00    +0.309 C 
ATOM      6  O   UNL     1      -1.078   1.748   0.141  0.00  0.00    -0.252 OA
ATOM      7  N   UNL     1       1.175   1.832   0.005  0.00  0.00    -0.285 N 
ATOM      8  H   UNL     1       1.313   2.791   0.055  0.00  0.00    +0.151 HD
ENDROOT
BRANCH   1   9
ATOM      9  C   UNL     1       3.160   0.829   1.079  0.00  0.00    +0.024 C 
ATOM     10  C   UNL     1       4.228  -0.255   0.917  0.00  0.00    +0.025 C 
ATOM     11  C   UNL     1       5.191  -0.198   2.107  0.00  0.00    +0.108 C 
ATOM     12  N   UNL     1       4.414  -0.298   3.350  0.00  0.00    -0.299 N 
ATOM     13  C   UNL     1       3.303   0.639   3.565  0.00  0.00    +0.108 C 
ATOM     14  C   UNL     1       2.361   0.574   2.359  0.00  0.00    +0.025 C 
ATOM     15  C   UNL     1       4.714  -1.231   4.275  0.00  0.00    +0.253 C 
ATOM     16  O   UNL     1       4.065  -1.303   5.297  0.00  0.00    -0.272 OA
BRANCH  15  17
ATOM     17  C   UNL     1       5.856  -2.185   4.039  0.00  0.00    +0.324 C 
BRANCH  17  18
ATOM     18  O   UNL     1       5.974  -3.072   5.154  0.00  0.00    -0.483 OA
BRANCH  18  19
ATOM     19  C   UNL     1       6.963  -4.002   5.100  0.00  0.00    +0.121 A 
ATOM     20  C   UNL     1       7.800  -4.064   3.995  0.00  0.00    +0.045 A 
ATOM     21  C   UNL     1       8.808  -5.008   3.946  0.00  0.00    +0.004 A 
ATOM     22  C   UNL     1       8.977  -5.896   4.992  0.00  0.00    +0.000 A 
ATOM     23  C   UNL     1       8.141  -5.840   6.092  0.00  0.00    +0.004 A 
ATOM     24  C   UNL     1       7.135  -4.895   6.148  0.00  0.00    +0.045 A 
ENDBRANCH  18  19
ENDBRANCH  17  18
ENDBRANCH  15  17
ENDBRANCH   1   9
BRANCH   1  25
ATOM     25  C   UNL     1       2.998   0.983  -1.428  0.00  0.00    +0.035 C 
BRANCH  25  27
ATOM     26  C   UNL     1       2.800   1.313  -3.897  0.00  0.00    +0.004 C 
ATOM     27  C   UNL     1       2.018   1.129  -2.594  0.00  0.00    -0.001 C 
ENDBRANCH  25  27
ENDBRANCH   1  25
BRANCH   4  28
ATOM     28  C   UNL     1      -0.981  -1.089  -0.036  0.00  0.00    +0.116 C 
BRANCH  28  29
ATOM     29  C   UNL     1      -1.462  -1.330  -1.468  0.00  0.00    +0.004 C 
BRANCH  29  30
ATOM     30  C   UNL     1      -2.707  -2.219  -1.445  0.00  0.00    -0.068 C 
ATOM     31  C   UNL     1      -2.339  -3.624  -0.923  0.00  0.00    -0.017 C 
ATOM     32  C   UNL     1      -3.202  -4.562  -1.807  0.00  0.00    -0.020 C 
ATOM     33  C   UNL     1      -3.180  -3.819  -3.166  0.00  0.00    -0.079 C 
ATOM     34  C   UNL     1      -2.463  -1.579  -3.772  0.00  0.00    -0.096 C 
ATOM     35  N   UNL     1      -3.247  -2.389  -2.804  0.00  0.00    +0.380 N 
ATOM     36  H   UNL     1      -4.225  -2.079  -2.822  0.00  0.00    -0.082 HD
ENDBRANCH  29  30
ENDBRANCH  28  29
ENDBRANCH   4  28
TORSDOF 9
