REMARK  Name = ZINC59678984
REMARK  11 active torsions:
REMARK  status: ('A' for Active; 'I' for Inactive)
REMARK    1  A    between atoms: C_1  and  C_2
REMARK    2  A    between atoms: C_2  and  O_3
REMARK    3  A    between atoms: O_3  and  C_4
REMARK    4  A    between atoms: C_8  and  N_10
REMARK    5  A    between atoms: C_14  and  C_15
REMARK    6  A    between atoms: C_17  and  C_25
REMARK    7  A    between atoms: C_18  and  O_24
REMARK    8  A    between atoms: C_19  and  O_21
REMARK    9  A    between atoms: O_21  and  C_22
REMARK   10  A    between atoms: C_22  and  C_23
REMARK   11  A    between atoms: C_25  and  C_26
REMARK                            x       y       z     vdW  Elec       q    Type
REMARK                         _______ _______ _______ _____ _____    ______ ____
ROOT
ATOM      1  N   UNL     1       2.856  -4.234  -3.312  0.00  0.00    -0.188 N 
ATOM      2  C   UNL     1       2.875  -5.567  -3.526  0.00  0.00    +0.264 C 
ATOM      3  O   UNL     1       2.585  -6.350  -2.640  0.00  0.00    -0.269 OA
ATOM      4  C   UNL     1       3.259  -6.043  -4.869  0.00  0.00    +0.102 C 
ATOM      5  C   UNL     1       3.304  -7.395  -5.174  0.00  0.00    +0.026 C 
ATOM      6  C   UNL     1       3.591  -5.018  -5.871  0.00  0.00    +0.276 C 
ATOM      7  O   UNL     1       3.952  -5.368  -7.123  0.00  0.00    -0.268 OA
ATOM      8  N   UNL     1       3.528  -3.746  -5.515  0.00  0.00    -0.123 NA
ATOM      9  C   UNL     1       3.170  -3.372  -4.290  0.00  0.00    +0.340 C 
ATOM     10  O   UNL     1       3.131  -2.180  -4.040  0.00  0.00    -0.250 OA
ENDROOT
BRANCH   1  15
ATOM     11  C   UNL     1       0.957  -2.562  -0.638  0.00  0.00    +0.122 A 
ATOM     12  C   UNL     1       1.794  -2.775   0.449  0.00  0.00    +0.046 A 
ATOM     13  C   UNL     1       2.977  -3.470   0.286  0.00  0.00    +0.005 A 
ATOM     14  C   UNL     1       3.330  -3.954  -0.959  0.00  0.00    +0.024 A 
ATOM     15  C   UNL     1       2.497  -3.744  -2.050  0.00  0.00    +0.049 A 
ATOM     16  C   UNL     1       1.306  -3.051  -1.887  0.00  0.00    +0.069 A 
BRANCH  11  17
ATOM     17  O   UNL     1      -0.207  -1.878  -0.476  0.00  0.00    -0.492 OA
BRANCH  17  19
ATOM     18  C   UNL     1      -1.842  -0.663   0.824  0.00  0.00    +0.048 C 
ATOM     19  C   UNL     1      -0.502  -1.403   0.839  0.00  0.00    +0.225 C 
ENDBRANCH  17  19
ENDBRANCH  11  17
ENDBRANCH   1  15
BRANCH   5  20
ATOM     20  C   UNL     1       2.752  -8.373  -4.239  0.00  0.00    -0.020 A 
ATOM     21  C   UNL     1       1.497  -8.153  -3.648  0.00  0.00    +0.015 A 
ATOM     22  C   UNL     1       0.983  -9.068  -2.775  0.00  0.00    +0.002 A 
ATOM     23  C   UNL     1       1.696 -10.221  -2.465  0.00  0.00    +0.162 A 
ATOM     24  C   UNL     1       2.945 -10.453  -3.044  0.00  0.00    +0.162 A 
ATOM     25  C   UNL     1       3.472  -9.539  -3.932  0.00  0.00    +0.057 A 
BRANCH  23  26
ATOM     26  O   UNL     1       1.176 -11.123  -1.595  0.00  0.00    -0.503 OA
ATOM     27  H   UNL     1       0.635 -11.807  -2.014  0.00  0.00    +0.292 HD
ENDBRANCH  23  26
BRANCH  24  28
ATOM     28  O   UNL     1       3.639 -11.581  -2.736  0.00  0.00    -0.489 OA
BRANCH  28  29
ATOM     29  C   UNL     1       4.849 -11.816  -3.459  0.00  0.00    +0.226 C 
ATOM     30  C   UNL     1       5.424 -13.177  -3.063  0.00  0.00    +0.048 C 
ENDBRANCH  28  29
ENDBRANCH  24  28
BRANCH  22  31
ATOM     31  C   UNL     1      -0.364  -8.827  -2.144  0.00  0.00    +0.065 C 
BRANCH  31  32
ATOM     32  C   UNL     1      -0.179  -8.178  -0.797  0.00  0.00    -0.030 C 
ATOM     33  C   UNL     1      -0.781  -7.046  -0.527  0.00  0.00    +0.004 C 
ENDBRANCH  31  32
ENDBRANCH  22  31
ENDBRANCH   5  20
TORSDOF 9
