REMARK  Name = ZINC14185798
REMARK  10 active torsions:
REMARK  status: ('A' for Active; 'I' for Inactive)
REMARK    1  A    between atoms: C_1  and  C_2
REMARK    2  A    between atoms: C_2  and  C_4
REMARK    3  A    between atoms: C_2  and  N_14
REMARK    4  A    between atoms: C_7  and  S_10
REMARK    5  A    between atoms: S_10  and  N_13
REMARK    6  A    between atoms: C_15  and  C_17
REMARK    7  A    between atoms: C_17  and  S_18
REMARK    8  A    between atoms: S_18  and  C_19
REMARK    9  A    between atoms: C_22  and  C_27
REMARK   10  A    between atoms: N_23  and  C_24
REMARK                            x       y       z     vdW  Elec       q    Type
REMARK                         _______ _______ _______ _____ _____    ______ ____
ROOT
ATOM      1  N   UNL     1       5.578   4.598  -1.442  0.00  0.00    -0.308 N 
ATOM      2  C   UNL     1       4.886   3.501  -1.075  0.00  0.00    +0.224 C 
ATOM      3  O   UNL     1       5.458   2.439  -0.945  0.00  0.00    -0.275 OA
ATOM      4  H   UNL     1       5.121   5.447  -1.546  0.00  0.00    +0.149 HD
ENDROOT
BRANCH   1   6
ATOM      5  C   UNL     1       7.267   4.050  -3.124  0.00  0.00    +0.033 C 
ATOM      6  C   UNL     1       7.020   4.508  -1.685  0.00  0.00    +0.100 C 
BRANCH   6   7
ATOM      7  C   UNL     1       7.650   5.860  -1.473  0.00  0.00    -0.027 A 
ATOM      8  C   UNL     1       7.006   7.000  -1.916  0.00  0.00    +0.007 A 
ATOM      9  C   UNL     1       7.582   8.241  -1.717  0.00  0.00    +0.029 A 
ATOM     10  C   UNL     1       8.807   8.341  -1.085  0.00  0.00    +0.105 A 
ATOM     11  C   UNL     1       9.454   7.200  -0.646  0.00  0.00    +0.029 A 
ATOM     12  C   UNL     1       8.875   5.960  -0.841  0.00  0.00    +0.007 A 
BRANCH  10  13
ATOM     13  S   UNL     1       9.545   9.922  -0.838  0.00  0.00    +0.056 S 
ATOM     14  O   UNL     1       8.487  10.870  -0.851  0.00  0.00    -0.153 OA
ATOM     15  O   UNL     1      10.435   9.787   0.263  0.00  0.00    -0.153 OA
BRANCH  13  16
ATOM     16  N   UNL     1      10.481  10.238  -2.167  0.00  0.00    -0.204 NA
ATOM     17  H   UNL     1      10.534   9.592  -2.888  0.00  0.00    +0.144 HD
ATOM     18  H   UNL     1      10.976  11.070  -2.224  0.00  0.00    +0.144 HD
ENDBRANCH  13  16
ENDBRANCH  10  13
ENDBRANCH   6   7
ENDBRANCH   1   6
BRANCH   2  19
ATOM     19  C   UNL     1       3.403   3.594  -0.826  0.00  0.00    +0.173 C 
BRANCH  19  20
ATOM     20  S   UNL     1       2.768   1.967  -0.352  0.00  0.00    -0.077 S 
BRANCH  20  21
ATOM     21  C   UNL     1       1.064   2.356  -0.127  0.00  0.00    +0.193 A 
ATOM     22  N   UNL     1       0.507   3.536  -0.285  0.00  0.00    -0.122 NA
ATOM     23  N   UNL     1      -0.752   3.466  -0.041  0.00  0.00    -0.128 NA
ATOM     24  C   UNL     1      -1.078   2.236   0.284  0.00  0.00    +0.168 A 
ATOM     25  N   UNL     1       0.077   1.489   0.243  0.00  0.00    -0.299 N 
BRANCH  24  26
ATOM     26  C   UNL     1      -2.429   1.747   0.630  0.00  0.00    +0.054 A 
ATOM     27  C   UNL     1      -2.969   0.646  -0.037  0.00  0.00    +0.014 A 
ATOM     28  C   UNL     1      -4.230   0.195   0.290  0.00  0.00    +0.001 A 
ATOM     29  C   UNL     1      -4.962   0.829   1.279  0.00  0.00    +0.003 A 
ATOM     30  C   UNL     1      -4.435   1.921   1.945  0.00  0.00    +0.039 A 
ATOM     31  C   UNL     1      -3.170   2.381   1.631  0.00  0.00    +0.134 A 
ATOM     32  F   UNL     1      -2.654   3.444   2.285  0.00  0.00    -0.205 F 
ENDBRANCH  24  26
BRANCH  25  33
ATOM     33  C   UNL     1       0.216   0.059   0.532  0.00  0.00    +0.091 C 
ATOM     34  C   UNL     1       1.625  -0.472   0.803  0.00  0.00    +0.027 C 
ATOM     35  C   UNL     1       0.921  -0.807  -0.514  0.00  0.00    +0.027 C 
ENDBRANCH  25  33
ENDBRANCH  20  21
ENDBRANCH  19  20
ENDBRANCH   2  19
TORSDOF 9
