REMARK  Name = ZINC33010167
REMARK  5 active torsions:
REMARK  status: ('A' for Active; 'I' for Inactive)
REMARK    1  A    between atoms: C_1  and  C_2
REMARK    2  A    between atoms: C_5  and  C_8
REMARK    3  A    between atoms: C_20  and  C_23
REMARK    4  A    between atoms: N_25  and  C_26
REMARK    5  A    between atoms: C_26  and  C_27
REMARK                            x       y       z     vdW  Elec       q    Type
REMARK                         _______ _______ _______ _____ _____    ______ ____
ROOT
ATOM      1  C   UNL     1      -2.691   0.954   4.049  0.00  0.00    +0.185 A 
ATOM      2  N   UNL     1      -3.204   1.904   4.810  0.00  0.00    -0.127 NA
ATOM      3  N   UNL     1      -2.901   3.061   4.335  0.00  0.00    -0.128 NA
ATOM      4  C   UNL     1      -2.172   2.915   3.238  0.00  0.00    +0.178 A 
ATOM      5  N   UNL     1      -2.022   1.566   3.031  0.00  0.00    -0.191 N 
ATOM      6  N   UNL     1      -1.296   1.102   1.933  0.00  0.00    -0.148 NA
ATOM      7  C   UNL     1      -0.742   1.947   1.095  0.00  0.00    +0.142 A 
ATOM      8  C   UNL     1      -0.878   3.337   1.278  0.00  0.00    +0.049 A 
ATOM      9  C   UNL     1      -1.583   3.820   2.336  0.00  0.00    +0.053 A 
ATOM     10  N   UNL     1      -0.018   1.464   0.010  0.00  0.00    -0.314 N 
ATOM     11  C   UNL     1       1.344   2.014   0.000  0.00  0.00    +0.107 C 
ATOM     12  C   UNL     1       2.062   1.579  -1.280  0.00  0.00    +0.031 C 
ATOM     13  C   UNL     1       2.108   0.049  -1.338  0.00  0.00    +0.078 C 
ATOM     14  C   UNL     1       0.680  -0.499  -1.278  0.00  0.00    +0.031 C 
ATOM     15  C   UNL     1       0.002  -0.004   0.002  0.00  0.00    +0.107 C 
ENDROOT
BRANCH   1  20
ATOM     16  C   UNL     1      -3.188  -4.719   4.877  0.00  0.00    +0.044 C 
ATOM     17  C   UNL     1      -3.058  -3.233   4.661  0.00  0.00    -0.050 A 
ATOM     18  C   UNL     1      -3.890  -2.362   5.342  0.00  0.00    +0.004 A 
ATOM     19  C   UNL     1      -3.776  -1.001   5.148  0.00  0.00    +0.012 A 
ATOM     20  C   UNL     1      -2.819  -0.503   4.262  0.00  0.00    +0.021 A 
ATOM     21  C   UNL     1      -1.986  -1.388   3.574  0.00  0.00    +0.012 A 
ATOM     22  C   UNL     1      -2.107  -2.746   3.781  0.00  0.00    +0.004 A 
ENDBRANCH   1  20
BRANCH  13  23
ATOM     23  C   UNL     1       2.760  -0.386  -2.625  0.00  0.00    +0.217 C 
ATOM     24  O   UNL     1       2.145  -1.068  -3.417  0.00  0.00    -0.276 OA
ATOM     25  N   UNL     1       4.028  -0.017  -2.897  0.00  0.00    -0.308 N 
ATOM     26  H   UNL     1       4.586   0.602  -2.178  0.00  0.00    +0.149 HD
BRANCH  25  27
ATOM     27  C   UNL     1       4.662  -0.440  -4.147  0.00  0.00    +0.178 C 
BRANCH  27  28
ATOM     28  C   UNL     1       6.068   0.101  -4.206  0.00  0.00    +0.122 A 
ATOM     29  C   UNL     1       7.169  -0.519  -3.745  0.00  0.00    +0.046 A 
ATOM     30  C   UNL     1       8.261   0.340  -4.004  0.00  0.00    +0.041 A 
ATOM     31  C   UNL     1       7.762   1.434  -4.607  0.00  0.00    +0.195 A 
ATOM     32  O   UNL     1       6.434   1.281  -4.732  0.00  0.00    -0.466 OA
ENDBRANCH  27  28
ENDBRANCH  25  27
ENDBRANCH  13  23
TORSDOF 4
