REMARK  Name = ZINC66928034
REMARK  8 active torsions:
REMARK  status: ('A' for Active; 'I' for Inactive)
REMARK    1  A    between atoms: C_1  and  C_2
REMARK    2  A    between atoms: C_4  and  C_29
REMARK    3  A    between atoms: C_6  and  C_8
REMARK    4  A    between atoms: C_10  and  N_14
REMARK    5  A    between atoms: C_15  and  C_17
REMARK    6  A    between atoms: C_17  and  C_19
REMARK    7  A    between atoms: C_17  and  N_20
REMARK    8  A    between atoms: C_21  and  C_23
REMARK                            x       y       z     vdW  Elec       q    Type
REMARK                         _______ _______ _______ _____ _____    ______ ____
ROOT
ATOM      1  N   UNL     1       0.066  -3.175   6.041  0.00  0.00    -0.269 N 
ATOM      2  C   UNL     1       0.046  -1.951   6.606  0.00  0.00    +0.238 C 
ATOM      3  O   UNL     1       0.027  -0.961   5.906  0.00  0.00    -0.273 OA
ATOM      4  H   UNL     1       0.080  -3.967   6.601  0.00  0.00    +0.156 HD
ENDROOT
BRANCH   1   7
ATOM      5  C   UNL     1       0.053  -2.845   2.464  0.00  0.00    +0.094 A 
ATOM      6  C   UNL     1       0.045  -2.283   3.754  0.00  0.00    +0.073 A 
ATOM      7  C   UNL     1       0.065  -3.302   4.652  0.00  0.00    +0.121 A 
ATOM      8  N   UNL     1       0.084  -4.468   3.954  0.00  0.00    -0.263 N 
ATOM      9  H   UNL     1       0.100  -5.360   4.334  0.00  0.00    +0.190 HD
ATOM     10  N   UNL     1       0.071  -4.156   2.588  0.00  0.00    -0.172 NA
BRANCH   5  16
ATOM     11  C   UNL     1      -0.018   1.503   0.010  0.00  0.00    +0.044 C 
ATOM     12  C   UNL     1       0.002  -0.004   0.002  0.00  0.00    -0.050 A 
ATOM     13  C   UNL     1       0.006  -0.688  -1.200  0.00  0.00    +0.006 A 
ATOM     14  C   UNL     1       0.025  -2.071  -1.215  0.00  0.00    -0.050 A 
ATOM     15  C   UNL     1       0.040  -2.776  -0.029  0.00  0.00    +0.013 A 
ATOM     16  C   UNL     1       0.036  -2.092   1.185  0.00  0.00    +0.003 A 
ATOM     17  C   UNL     1       0.023  -0.699   1.194  0.00  0.00    +0.013 A 
ATOM     18  C   UNL     1       0.029  -2.809  -2.529  0.00  0.00    +0.044 C 
ENDBRANCH   5  16
ENDBRANCH   1   7
BRANCH   2  19
ATOM     19  C   UNL     1       0.047  -1.814   8.106  0.00  0.00    +0.156 C 
ATOM     20  C   UNL     1      -1.190  -2.507   8.683  0.00  0.00    +0.038 C 
BRANCH  19  21
ATOM     21  N   UNL     1       0.023  -0.394   8.467  0.00  0.00    -0.304 N 
ATOM     22  C   UNL     1       0.512   0.007   9.657  0.00  0.00    +0.217 C 
ATOM     23  O   UNL     1       0.972  -0.807  10.429  0.00  0.00    -0.275 OA
ATOM     24  H   UNL     1      -0.344   0.257   7.849  0.00  0.00    +0.149 HD
BRANCH  22  25
ATOM     25  C   UNL     1       0.488   1.467  10.028  0.00  0.00    +0.079 C 
ATOM     26  C   UNL     1       1.310   2.268   9.012  0.00  0.00    +0.041 C 
ATOM     27  C   UNL     1       1.345   3.737   9.440  0.00  0.00    +0.160 C 
ATOM     28  O   UNL     1       1.894   3.835  10.756  0.00  0.00    -0.380 OA
ATOM     29  C   UNL     1       1.142   3.146  11.756  0.00  0.00    +0.160 C 
ATOM     30  C   UNL     1       1.098   1.653  11.421  0.00  0.00    +0.041 C 
ENDBRANCH  22  25
ENDBRANCH  19  21
ENDBRANCH   2  19
TORSDOF 5
