REMARK  Name = ZINC04461327
REMARK  8 active torsions:
REMARK  status: ('A' for Active; 'I' for Inactive)
REMARK    1  A    between atoms: C_1  and  C_2
REMARK    2  A    between atoms: C_2  and  C_3
REMARK    3  A    between atoms: C_3  and  C_5
REMARK    4  A    between atoms: C_3  and  N_6
REMARK    5  A    between atoms: C_7  and  C_9
REMARK    6  A    between atoms: C_19  and  C_21
REMARK    7  A    between atoms: C_24  and  C_30
REMARK    8  A    between atoms: C_25  and  N_27
REMARK                            x       y       z     vdW  Elec       q    Type
REMARK                         _______ _______ _______ _____ _____    ______ ____
ROOT
ATOM      1  C   UNL     1       3.147  -8.854   0.611  0.00  0.00    +0.028 C 
ATOM      2  C   UNL     1       2.856  -9.089   2.123  0.00  0.00    +0.061 C 
ATOM      3  S   UNL     1       3.471  -7.471   2.775  0.00  0.00    -0.174 S 
ATOM      4  C   UNL     1       3.074  -6.461   1.292  0.00  0.00    -0.016 C 
ATOM      5  C   UNL     1       4.251  -5.556   0.960  0.00  0.00    +0.017 C 
ATOM      6  C   UNL     1       3.924  -4.730  -0.289  0.00  0.00    +0.107 C 
ATOM      7  N   UNL     1       2.645  -4.040  -0.077  0.00  0.00    -0.298 N 
ATOM      8  C   UNL     1       1.467  -4.831   0.307  0.00  0.00    +0.107 C 
ATOM      9  C   UNL     1       1.807  -5.657   1.547  0.00  0.00    +0.017 C 
ATOM     10  C   UNL     1       2.554  -2.703  -0.225  0.00  0.00    +0.247 C 
ATOM     11  O   UNL     1       3.552  -2.047  -0.453  0.00  0.00    -0.270 OA
ATOM     12  N   UNL     1       2.847  -7.454   0.195  0.00  0.00    +0.397 N 
ATOM     13  H   UNL     1       1.864  -7.402  -0.096  0.00  0.00    -0.083 HD
ATOM     14  H   UNL     1       3.452  -7.211  -0.598  0.00  0.00    -0.083 HD
ENDROOT
BRANCH  10  15
ATOM     15  C   UNL     1       1.240  -2.034  -0.111  0.00  0.00    +0.039 A 
ATOM     16  C   UNL     1       0.084  -2.679  -0.555  0.00  0.00    +0.013 A 
ATOM     17  C   UNL     1      -1.138  -2.049  -0.446  0.00  0.00    +0.006 A 
ATOM     18  C   UNL     1      -1.220  -0.782   0.104  0.00  0.00    -0.020 A 
ATOM     19  C   UNL     1      -0.079  -0.138   0.546  0.00  0.00    +0.130 A 
ATOM     20  C   UNL     1       1.151  -0.754   0.437  0.00  0.00    +0.046 A 
ATOM     21  C   UNL     1      -2.559  -0.100   0.220  0.00  0.00    +0.046 C 
BRANCH  19  22
ATOM     22  N   UNL     1      -0.176   1.218   1.133  0.00  0.00    +0.057 N 
ATOM     23  O   UNL     1       0.808   1.741   1.625  0.00  0.00    -0.126 OA
ATOM     24  O   UNL     1      -1.239   1.813   1.118  0.00  0.00    -0.126 OA
ENDBRANCH  19  22
ENDBRANCH  10  15
BRANCH   1  26
ATOM     25  N   UNL     1       2.371 -11.111  -0.038  0.00  0.00    -0.314 N 
ATOM     26  C   UNL     1       2.284  -9.777  -0.209  0.00  0.00    +0.200 C 
ATOM     27  O   UNL     1       1.510  -9.320  -1.024  0.00  0.00    -0.278 OA
ATOM     28  H   UNL     1       2.990 -11.477   0.613  0.00  0.00    +0.149 HD
BRANCH  25  29
ATOM     29  C   UNL     1       1.532 -12.008  -0.836  0.00  0.00    +0.070 C 
ATOM     30  C   UNL     1       2.212 -12.284  -2.179  0.00  0.00    +0.028 C 
BRANCH  29  32
ATOM     31  C   UNL     1       0.546 -13.068   1.200  0.00  0.00    +0.005 C 
ATOM     32  C   UNL     1       1.337 -13.326  -0.084  0.00  0.00    +0.018 C 
ENDBRANCH  29  32
ENDBRANCH  25  29
ENDBRANCH   1  26
TORSDOF 5
