REMARK  Name = ZINC63667244
REMARK  6 active torsions:
REMARK  status: ('A' for Active; 'I' for Inactive)
REMARK    1  A    between atoms: C_1  and  C_2
REMARK    2  A    between atoms: C_16  and  C_19
REMARK    3  A    between atoms: N_17  and  C_18
REMARK    4  A    between atoms: N_21  and  C_22
REMARK    5  A    between atoms: C_22  and  C_23
REMARK    6  A    between atoms: C_23  and  C_24
REMARK                            x       y       z     vdW  Elec       q    Type
REMARK                         _______ _______ _______ _____ _____    ______ ____
ROOT
ATOM      1  C   UNL     1      -0.018   1.503   0.010  0.00  0.00    +0.047 C 
ATOM      2  C   UNL     1       0.002  -0.004   0.002  0.00  0.00    -0.010 C 
ATOM      3  C   UNL     1       0.006  -0.688  -1.172  0.00  0.00    +0.008 C 
ATOM      4  C   UNL     1       0.023  -2.096  -1.163  0.00  0.00    +0.016 C 
ATOM      5  C   UNL     1       0.144  -2.771  -0.002  0.00  0.00    +0.085 C 
ATOM      6  N   UNL     1       0.249  -2.093   1.183  0.00  0.00    -0.231 N 
ATOM      7  C   UNL     1       0.024  -0.730   1.218  0.00  0.00    +0.132 C 
ATOM      8  N   UNL     1      -0.214  -0.085   2.356  0.00  0.00    -0.245 NA
ATOM      9  C   UNL     1      -0.286  -0.890   3.545  0.00  0.00    +0.209 C 
ATOM     10  C   UNL     1       0.902  -1.899   3.486  0.00  0.00    +0.143 C 
ATOM     11  C   UNL     1       0.619  -2.769   2.310  0.00  0.00    +0.235 C 
ATOM     12  O   UNL     1       0.723  -3.977   2.347  0.00  0.00    -0.274 OA
ATOM     13  C   UNL     1       0.842  -2.460   4.869  0.00  0.00    +0.018 C 
ATOM     14  C   UNL     1       0.288  -1.495   5.642  0.00  0.00    +0.090 C 
ATOM     15  N   UNL     1      -0.033  -0.349   4.871  0.00  0.00    -0.307 N 
ATOM     16  C   UNL     1      -0.100   1.046   5.311  0.00  0.00    +0.131 C 
ENDROOT
BRANCH  14  17
ATOM     17  C   UNL     1       0.061  -1.619   7.095  0.00  0.00    +0.258 C 
ATOM     18  O   UNL     1      -0.443  -0.701   7.713  0.00  0.00    -0.269 OA
ATOM     19  N   UNL     1       0.413  -2.750   7.738  0.00  0.00    -0.310 N 
ATOM     20  H   UNL     1       0.816  -3.483   7.246  0.00  0.00    +0.149 HD
BRANCH  19  21
ATOM     21  C   UNL     1       0.188  -2.874   9.180  0.00  0.00    +0.109 C 
BRANCH  21  22
ATOM     22  C   UNL     1       0.672  -4.245   9.657  0.00  0.00    +0.052 C 
BRANCH  22  23
ATOM     23  C   UNL     1       0.441  -4.371  11.140  0.00  0.00    -0.040 C 
ATOM     24  C   UNL     1      -0.622  -4.942  11.752  0.00  0.00    -0.001 A 
ATOM     25  C   UNL     1      -1.835  -5.590  11.238  0.00  0.00    +0.010 A 
ATOM     26  C   UNL     1      -2.741  -6.076  12.116  0.00  0.00    +0.001 A 
ATOM     27  C   UNL     1      -2.552  -5.977  13.501  0.00  0.00    +0.002 A 
ATOM     28  C   UNL     1      -1.464  -5.396  14.049  0.00  0.00    +0.026 A 
ATOM     29  C   UNL     1      -0.446  -4.851  13.219  0.00  0.00    +0.043 A 
ATOM     30  N   UNL     1       0.683  -4.247  13.503  0.00  0.00    -0.380 N 
ATOM     31  C   UNL     1       1.353  -3.892  12.247  0.00  0.00    +0.144 C 
ATOM     32  H   UNL     1       1.020  -4.069  14.395  0.00  0.00    +0.160 HD
ENDBRANCH  22  23
ENDBRANCH  21  22
ENDBRANCH  19  21
ENDBRANCH  14  17
TORSDOF 4
