REMARK  Name = ZINC10529768
REMARK  7 active torsions:
REMARK  status: ('A' for Active; 'I' for Inactive)
REMARK    1  A    between atoms: C_3  and  C_8
REMARK    2  A    between atoms: C_5  and  O_7
REMARK    3  A    between atoms: C_8  and  O_10
REMARK    4  A    between atoms: O_10  and  C_11
REMARK    5  A    between atoms: C_11  and  C_12
REMARK    6  A    between atoms: C_15  and  C_27
REMARK    7  A    between atoms: C_18  and  C_20
REMARK                            x       y       z     vdW  Elec       q    Type
REMARK                         _______ _______ _______ _____ _____    ______ ____
ROOT
ATOM      1  C   UNL     1       4.681   5.673  -0.014  0.00  0.00    +0.273 C 
ATOM      2  O   UNL     1       3.553   6.120  -0.001  0.00  0.00    -0.270 OA
ATOM      3  N   UNL     1       5.737   6.510  -0.020  0.00  0.00    -0.179 N 
ATOM      4  C   UNL     1       5.666   7.979  -0.006  0.00  0.00    +0.173 C 
ATOM      5  C   UNL     1       7.145   8.413  -0.020  0.00  0.00    +0.090 C 
ATOM      6  C   UNL     1       7.907   7.108  -0.041  0.00  0.00    +0.069 C 
ATOM      7  N   UNL     1       7.076   6.124  -0.035  0.00  0.00    -0.181 NA
ENDROOT
BRANCH   6   8
ATOM      8  C   UNL     1       9.377   6.981  -0.060  0.00  0.00    -0.002 A 
ATOM      9  C   UNL     1      10.180   8.123  -0.054  0.00  0.00    +0.011 A 
ATOM     10  C   UNL     1      11.553   7.997  -0.071  0.00  0.00    +0.020 A 
ATOM     11  C   UNL     1      12.136   6.741  -0.095  0.00  0.00    +0.041 A 
ATOM     12  C   UNL     1      11.345   5.604  -0.102  0.00  0.00    +0.020 A 
ATOM     13  C   UNL     1       9.971   5.716  -0.079  0.00  0.00    +0.011 A 
ATOM     14 CL   UNL     1      13.865   6.592  -0.118  0.00  0.00    -0.084 Cl
ENDBRANCH   6   8
BRANCH   4  15
ATOM     15  C   UNL     1       4.979   8.465   1.244  0.00  0.00    +0.128 A 
ATOM     16  C   UNL     1       4.119   9.496   1.319  0.00  0.00    +0.046 A 
ATOM     17  C   UNL     1       3.721   9.600   2.672  0.00  0.00    +0.041 A 
ATOM     18  C   UNL     1       4.362   8.626   3.342  0.00  0.00    +0.195 A 
ATOM     19  O   UNL     1       5.118   7.938   2.472  0.00  0.00    -0.466 OA
ENDBRANCH   4  15
BRANCH   1  20
ATOM     20  C   UNL     1       4.899   4.182  -0.024  0.00  0.00    +0.330 C 
BRANCH  20  21
ATOM     21  O   UNL     1       3.636   3.515  -0.015  0.00  0.00    -0.452 OA
BRANCH  21  22
ATOM     22  C   UNL     1       3.655   2.168  -0.022  0.00  0.00    +0.340 C 
ATOM     23  O   UNL     1       4.716   1.576  -0.035  0.00  0.00    -0.245 OA
BRANCH  22  26
ATOM     24  C   UNL     1      -0.017   1.378   0.010  0.00  0.00    +0.004 A 
ATOM     25  C   UNL     1       1.166   2.089   0.002  0.00  0.00    +0.015 A 
ATOM     26  C   UNL     1       2.387   1.411  -0.013  0.00  0.00    +0.062 A 
ATOM     27  C   UNL     1       2.404   0.015  -0.021  0.00  0.00    +0.060 A 
ATOM     28  C   UNL     1       1.211  -0.687  -0.013  0.00  0.00    +0.118 A 
ATOM     29  C   UNL     1       0.002  -0.004   0.002  0.00  0.00    +0.045 A 
BRANCH  28  30
ATOM     30  O   UNL     1       1.223  -2.046  -0.021  0.00  0.00    -0.507 OA
ATOM     31  H   UNL     1       1.235  -2.444   0.861  0.00  0.00    +0.292 HD
ENDBRANCH  28  30
ENDBRANCH  22  26
ENDBRANCH  21  22
ENDBRANCH  20  21
ENDBRANCH   1  20
TORSDOF 7
