REMARK  Name = ZINC20706401
REMARK  4 active torsions:
REMARK  status: ('A' for Active; 'I' for Inactive)
REMARK    1  A    between atoms: C_1  and  C_2
REMARK    2  A    between atoms: C_8  and  C_10
REMARK    3  A    between atoms: C_23  and  C_26
REMARK    4  A    between atoms: C_28  and  N_33
REMARK                            x       y       z     vdW  Elec       q    Type
REMARK                         _______ _______ _______ _____ _____    ______ ____
ROOT
ATOM      1  C   UNL     1       0.288   5.285   0.473  0.00  0.00    +0.037 A 
ATOM      2  C   UNL     1      -0.376   4.156  -0.016  0.00  0.00    +0.015 A 
ATOM      3  C   UNL     1       0.311   2.973  -0.156  0.00  0.00    +0.024 A 
ATOM      4  C   UNL     1       1.662   2.903   0.177  0.00  0.00    +0.031 A 
ATOM      5  C   UNL     1       2.333   4.020   0.658  0.00  0.00    -0.019 A 
ATOM      6  C   UNL     1       1.641   5.209   0.804  0.00  0.00    +0.019 A 
ATOM      7  C   UNL     1       3.774   3.989   1.005  0.00  0.00    +0.049 C 
ATOM      8  C   UNL     1       3.972   3.974   2.524  0.00  0.00    -0.023 C 
ATOM      9  C   UNL     1       4.995   3.221   2.846  0.00  0.00    -0.030 C 
ATOM     10  C   UNL     1       5.633   2.632   1.602  0.00  0.00    +0.033 C 
ATOM     11  C   UNL     1       4.495   2.708   0.543  0.00  0.00    +0.029 C 
ATOM     12  C   UNL     1       3.588   1.493   0.761  0.00  0.00    +0.106 C 
ATOM     13  N   UNL     1       2.337   1.694   0.022  0.00  0.00    -0.336 N 
ATOM     14  H   UNL     1       1.953   0.900  -0.635  0.00  0.00    +0.147 HD
ENDROOT
BRANCH   1  22
ATOM     15  C   UNL     1      -4.925   6.728   3.726  0.00  0.00    +0.007 C 
ATOM     16  C   UNL     1      -4.139   6.631   2.417  0.00  0.00    -0.011 C 
ATOM     17  C   UNL     1      -3.287   7.890   2.239  0.00  0.00    +0.022 C 
ATOM     18  C   UNL     1      -2.528   7.805   0.911  0.00  0.00    +0.108 C 
ATOM     19  N   UNL     1      -1.764   6.550   0.882  0.00  0.00    -0.298 N 
ATOM     20  C   UNL     1      -2.473   5.286   1.126  0.00  0.00    +0.108 C 
ATOM     21  C   UNL     1      -3.231   5.400   2.457  0.00  0.00    +0.022 C 
ATOM     22  C   UNL     1      -0.440   6.558   0.632  0.00  0.00    +0.247 C 
ATOM     23  O   UNL     1       0.154   7.615   0.537  0.00  0.00    -0.270 OA
ENDBRANCH   1  22
BRANCH  12  24
ATOM     24  C   UNL     1       3.288   1.345   2.230  0.00  0.00    -0.007 A 
ATOM     25  C   UNL     1       2.243   2.050   2.797  0.00  0.00    +0.039 A 
ATOM     26  C   UNL     1       1.967   1.914   4.144  0.00  0.00    +0.127 A 
ATOM     27  C   UNL     1       2.736   1.072   4.926  0.00  0.00    +0.034 A 
ATOM     28  C   UNL     1       3.780   0.366   4.361  0.00  0.00    +0.022 A 
ATOM     29  C   UNL     1       4.054   0.498   3.011  0.00  0.00    +0.046 A 
ATOM     30 CL   UNL     1       5.362  -0.394   2.299  0.00  0.00    -0.083 Cl
BRANCH  26  31
ATOM     31  N   UNL     1       0.848   2.671   4.750  0.00  0.00    +0.056 N 
ATOM     32  O   UNL     1       0.171   3.413   4.062  0.00  0.00    -0.126 OA
ATOM     33  O   UNL     1       0.605   2.551   5.938  0.00  0.00    -0.126 OA
ENDBRANCH  26  31
ENDBRANCH  12  24
TORSDOF 3
