REMARK  Name = ZINC03004581
REMARK  12 active torsions:
REMARK  status: ('A' for Active; 'I' for Inactive)
REMARK    1  A    between atoms: C_1  and  C_2
REMARK    2  A    between atoms: C_2  and  O_3
REMARK    3  A    between atoms: O_3  and  C_4
REMARK    4  A    between atoms: C_6  and  N_32
REMARK    5  A    between atoms: C_8  and  C_10
REMARK    6  A    between atoms: C_14  and  C_27
REMARK    7  A    between atoms: C_15  and  N_17
REMARK    8  A    between atoms: C_18  and  C_20
REMARK    9  A    between atoms: C_23  and  C_26
REMARK   10  A    between atoms: C_27  and  O_29
REMARK   11  A    between atoms: O_29  and  C_30
REMARK   12  A    between atoms: C_30  and  C_31
REMARK                            x       y       z     vdW  Elec       q    Type
REMARK                         _______ _______ _______ _____ _____    ______ ____
ROOT
ATOM      1  C   UNL     1      -1.094   2.611   0.022  0.00  0.00    +0.030 C 
ATOM      2  C   UNL     1      -0.058   1.799   0.358  0.00  0.00    +0.062 C 
ATOM      3  C   UNL     1       1.337   2.164   0.657  0.00  0.00    +0.209 C 
ATOM      4  O   UNL     1       1.740   3.315   0.637  0.00  0.00    -0.286 OA
ATOM      5  C   UNL     1       2.186   1.041   0.975  0.00  0.00    +0.134 C 
ATOM      6  C   UNL     1       1.609  -0.228   0.966  0.00  0.00    +0.090 C 
ATOM      7  S   UNL     1      -0.047   0.028   0.541  0.00  0.00    -0.069 S 
ENDROOT
BRANCH   1  12
ATOM      8  C   UNL     1      -4.726   2.236  -0.877  0.00  0.00    +0.170 A 
ATOM      9  C   UNL     1      -5.018   1.019  -0.283  0.00  0.00    +0.082 A 
ATOM     10  C   UNL     1      -4.038   0.323   0.408  0.00  0.00    +0.130 A 
ATOM     11  C   UNL     1      -2.762   0.831   0.506  0.00  0.00    +0.044 A 
ATOM     12  C   UNL     1      -2.451   2.062  -0.085  0.00  0.00    +0.029 A 
ATOM     13  C   UNL     1      -3.444   2.766  -0.784  0.00  0.00    +0.227 A 
ATOM     14  O   UNL     1      -3.154   3.959  -1.366  0.00  0.00    -0.283 OA
BRANCH  10  15
ATOM     15  N   UNL     1      -4.365  -0.975   1.038  0.00  0.00    +0.057 N 
ATOM     16  O   UNL     1      -5.492  -1.429   0.950  0.00  0.00    -0.126 OA
ATOM     17  O   UNL     1      -3.507  -1.590   1.646  0.00  0.00    -0.126 OA
ENDBRANCH  10  15
BRANCH   8  18
ATOM     18  O   UNL     1      -5.693   2.912  -1.553  0.00  0.00    -0.488 OA
BRANCH  18  20
ATOM     19  C   UNL     1      -7.935   3.208  -2.405  0.00  0.00    +0.048 C 
ATOM     20  C   UNL     1      -6.987   2.309  -1.609  0.00  0.00    +0.226 C 
ENDBRANCH  18  20
ENDBRANCH   8  18
ENDBRANCH   1  12
BRANCH   6  21
ATOM     21  N   UNL     1       2.226  -1.426   1.235  0.00  0.00    -0.275 N 
ATOM     22  C   UNL     1       1.521  -2.573   1.182  0.00  0.00    +0.249 C 
ATOM     23  O   UNL     1       0.340  -2.548   0.896  0.00  0.00    -0.270 OA
ATOM     24  H   UNL     1       3.168  -1.446   1.464  0.00  0.00    +0.156 HD
BRANCH  22  25
ATOM     25  C   UNL     1       2.184  -3.862   1.472  0.00  0.00    +0.037 A 
ATOM     26  C   UNL     1       3.541  -3.894   1.796  0.00  0.00    +0.013 A 
ATOM     27  C   UNL     1       4.153  -5.100   2.071  0.00  0.00    +0.004 A 
ATOM     28  C   UNL     1       3.426  -6.276   2.015  0.00  0.00    -0.050 A 
ATOM     29  C   UNL     1       2.082  -6.252   1.690  0.00  0.00    +0.004 A 
ATOM     30  C   UNL     1       1.456  -5.052   1.418  0.00  0.00    +0.013 A 
ATOM     31  C   UNL     1       4.102  -7.590   2.311  0.00  0.00    +0.044 C 
ENDBRANCH  22  25
ENDBRANCH   6  21
BRANCH   5  32
ATOM     32  C   UNL     1       3.600   1.228   1.297  0.00  0.00    +0.345 C 
ATOM     33  O   UNL     1       4.296   0.266   1.563  0.00  0.00    -0.245 OA
BRANCH  32  34
ATOM     34  O   UNL     1       4.133   2.467   1.299  0.00  0.00    -0.461 OA
BRANCH  34  35
ATOM     35  C   UNL     1       5.543   2.578   1.628  0.00  0.00    +0.229 C 
ATOM     36  C   UNL     1       5.964   4.048   1.580  0.00  0.00    +0.048 C 
ENDBRANCH  34  35
ENDBRANCH  32  34
ENDBRANCH   5  32
TORSDOF 9
