REMARK  Name = ZINC09416759
REMARK  8 active torsions:
REMARK  status: ('A' for Active; 'I' for Inactive)
REMARK    1  A    between atoms: C_1  and  C_2
REMARK    2  A    between atoms: C_2  and  C_4
REMARK    3  A    between atoms: C_2  and  N_12
REMARK    4  A    between atoms: C_4  and  C_5
REMARK    5  A    between atoms: C_5  and  C_6
REMARK    6  A    between atoms: N_18  and  S_21
REMARK    7  A    between atoms: S_21  and  C_24
REMARK    8  A    between atoms: C_28  and  N_30
REMARK                            x       y       z     vdW  Elec       q    Type
REMARK                         _______ _______ _______ _____ _____    ______ ____
ROOT
ATOM      1  N   UNL     1      -1.234   6.111   1.137  0.00  0.00    -0.297 N 
ATOM      2  C   UNL     1      -0.061   5.452   1.225  0.00  0.00    +0.302 C 
ATOM      3  O   UNL     1       0.981   6.074   1.312  0.00  0.00    -0.253 OA
ATOM      4  N   UNL     1      -0.043   4.104   1.216  0.00  0.00    -0.283 N 
ATOM      5  C   UNL     1       1.233   3.374   1.199  0.00  0.00    +0.126 C 
ATOM      6  C   UNL     1       1.234   2.418  -0.001  0.00  0.00    +0.128 C 
ATOM      7  N   UNL     1      -0.021   1.653   0.007  0.00  0.00    -0.174 NA
ATOM      8  C   UNL     1      -1.296   2.384   0.019  0.00  0.00    +0.128 C 
ATOM      9  C   UNL     1      -1.297   3.339   1.224  0.00  0.00    +0.126 C 
ATOM     10  H   UNL     1      -2.068   5.617   1.142  0.00  0.00    +0.151 HD
ENDROOT
BRANCH   7  11
ATOM     11  S   UNL     1       0.002  -0.003  -0.004  0.00  0.00    +0.061 S 
ATOM     12  O   UNL     1      -1.243  -0.422  -0.544  0.00  0.00    -0.153 OA
ATOM     13  O   UNL     1       1.247  -0.388  -0.570  0.00  0.00    -0.153 OA
BRANCH  11  14
ATOM     14  C   UNL     1       0.026  -0.534   1.676  0.00  0.00    +0.108 A 
ATOM     15  C   UNL     1       1.233  -0.732   2.321  0.00  0.00    +0.028 A 
ATOM     16  C   UNL     1       1.252  -1.145   3.640  0.00  0.00    +0.004 A 
ATOM     17  C   UNL     1       0.064  -1.369   4.311  0.00  0.00    +0.033 A 
ATOM     18  C   UNL     1      -1.142  -1.177   3.665  0.00  0.00    +0.128 A 
ATOM     19  C   UNL     1      -1.161  -0.759   2.347  0.00  0.00    +0.061 A 
BRANCH  18  20
ATOM     20  N   UNL     1      -2.414  -1.417   4.383  0.00  0.00    +0.056 N 
ATOM     21  O   UNL     1      -3.477  -1.247   3.814  0.00  0.00    -0.126 OA
ATOM     22  O   UNL     1      -2.397  -1.784   5.545  0.00  0.00    -0.126 OA
ENDBRANCH  18  20
ENDBRANCH  11  14
ENDBRANCH   7  11
BRANCH   1  24
ATOM     23  C   UNL     1      -1.075   7.982  -0.429  0.00  0.00    +0.028 C 
ATOM     24  C   UNL     1      -1.247   7.572   1.035  0.00  0.00    +0.072 C 
BRANCH  24  25
ATOM     25  C   UNL     1      -2.580   8.108   1.562  0.00  0.00    +0.026 C 
BRANCH  25  26
ATOM     26  C   UNL     1      -2.696   7.806   3.057  0.00  0.00    +0.037 C 
BRANCH  26  27
ATOM     27  C   UNL     1      -4.008   8.333   3.576  0.00  0.00    -0.047 A 
ATOM     28  C   UNL     1      -4.088   9.621   4.072  0.00  0.00    +0.003 A 
ATOM     29  C   UNL     1      -5.293  10.107   4.543  0.00  0.00    +0.000 A 
ATOM     30  C   UNL     1      -6.416   9.302   4.529  0.00  0.00    +0.000 A 
ATOM     31  C   UNL     1      -6.335   8.011   4.039  0.00  0.00    +0.000 A 
ATOM     32  C   UNL     1      -5.131   7.527   3.562  0.00  0.00    +0.003 A 
ENDBRANCH  26  27
ENDBRANCH  25  26
ENDBRANCH  24  25
ENDBRANCH   1  24
TORSDOF 7
