REMARK  Name = ZINC00579814
REMARK  6 active torsions:
REMARK  status: ('A' for Active; 'I' for Inactive)
REMARK    1  A    between atoms: C_1  and  C_2
REMARK    2  A    between atoms: C_5  and  N_8
REMARK    3  A    between atoms: C_9  and  C_11
REMARK    4  A    between atoms: C_11  and  C_13
REMARK    5  A    between atoms: C_11  and  C_14
REMARK    6  A    between atoms: C_17  and  N_20
REMARK                            x       y       z     vdW  Elec       q    Type
REMARK                         _______ _______ _______ _____ _____    ______ ____
ROOT
ATOM      1  N   UNL     1      -1.237   2.069   0.019  0.00  0.00    -0.285 N 
ATOM      2  C   UNL     1      -1.255   3.412   0.128  0.00  0.00    +0.224 C 
ATOM      3  O   UNL     1      -0.215   4.035   0.127  0.00  0.00    -0.275 OA
ATOM      4  H   UNL     1      -2.070   1.577  -0.057  0.00  0.00    +0.155 HD
ENDROOT
BRANCH   1   9
ATOM      5  C   UNL     1       3.704  -0.719   0.018  0.00  0.00    +0.044 C 
ATOM      6  C   UNL     1       2.392   0.023   0.017  0.00  0.00    -0.050 A 
ATOM      7  C   UNL     1       2.252   1.180   0.762  0.00  0.00    +0.005 A 
ATOM      8  C   UNL     1       1.051   1.861   0.763  0.00  0.00    +0.023 A 
ATOM      9  C   UNL     1      -0.017   1.384   0.015  0.00  0.00    +0.033 A 
ATOM     10  C   UNL     1       0.126   0.222  -0.732  0.00  0.00    +0.023 A 
ATOM     11  C   UNL     1       1.330  -0.455  -0.729  0.00  0.00    +0.005 A 
ENDBRANCH   1   9
BRANCH   2  12
ATOM     12  C   UNL     1      -2.569   4.140   0.252  0.00  0.00    +0.102 C 
ATOM     13  C   UNL     1      -3.427   3.858  -0.983  0.00  0.00    +0.022 C 
BRANCH  12  14
ATOM     14  C   UNL     1      -2.314   5.622   0.359  0.00  0.00    -0.036 A 
ATOM     15  C   UNL     1      -1.654   6.285  -0.659  0.00  0.00    +0.006 A 
ATOM     16  C   UNL     1      -1.425   7.644  -0.563  0.00  0.00    +0.033 A 
ATOM     17  C   UNL     1      -1.846   8.340   0.555  0.00  0.00    +0.126 A 
ATOM     18  C   UNL     1      -2.501   7.676   1.575  0.00  0.00    +0.033 A 
ATOM     19  C   UNL     1      -2.735   6.317   1.477  0.00  0.00    +0.006 A 
BRANCH  17  20
ATOM     20  N   UNL     1      -1.596   9.795   0.659  0.00  0.00    +0.056 N 
ATOM     21  O   UNL     1      -1.967  10.407   1.645  0.00  0.00    -0.126 OA
ATOM     22  O   UNL     1      -1.019  10.380  -0.240  0.00  0.00    -0.126 OA
ENDBRANCH  17  20
ENDBRANCH  12  14
ENDBRANCH   2  12
TORSDOF 4
