REMARK  Name = ZINC51736123
REMARK  11 active torsions:
REMARK  status: ('A' for Active; 'I' for Inactive)
REMARK    1  A    between atoms: C_1  and  C_2
REMARK    2  A    between atoms: C_2  and  C_4
REMARK    3  A    between atoms: C_2  and  N_14
REMARK    4  A    between atoms: C_7  and  S_10
REMARK    5  A    between atoms: S_10  and  N_13
REMARK    6  A    between atoms: N_14  and  C_15
REMARK    7  A    between atoms: N_14  and  C_16
REMARK    8  A    between atoms: C_16  and  C_17
REMARK    9  A    between atoms: N_19  and  C_20
REMARK   10  A    between atoms: C_20  and  C_21
REMARK   11  A    between atoms: C_21  and  C_22
REMARK                            x       y       z     vdW  Elec       q    Type
REMARK                         _______ _______ _______ _____ _____    ______ ____
ROOT
ATOM      1  N   UNL     1       0.713  -0.491   1.192  0.00  0.00    +0.388 N 
ATOM      2  C   UNL     1       0.733  -1.960   1.184  0.00  0.00    -0.095 C 
ATOM      3  H   UNL     1       1.659  -0.141   1.185  0.00  0.00    -0.081 HD
ENDROOT
BRANCH   1   5
ATOM      4  C   UNL     1      -0.019   1.526   0.010  0.00  0.00    -0.008 C 
ATOM      5  C   UNL     1       0.002  -0.004   0.002  0.00  0.00    -0.041 C 
BRANCH   5   6
ATOM      6  C   UNL     1       0.707  -0.490  -1.238  0.00  0.00    -0.061 A 
ATOM      7  C   UNL     1       2.089  -0.511  -1.284  0.00  0.00    +0.004 A 
ATOM      8  C   UNL     1       2.736  -0.957  -2.421  0.00  0.00    +0.029 A 
ATOM      9  C   UNL     1       2.002  -1.382  -3.512  0.00  0.00    +0.105 A 
ATOM     10  C   UNL     1       0.620  -1.362  -3.466  0.00  0.00    +0.029 A 
ATOM     11  C   UNL     1      -0.027  -0.920  -2.327  0.00  0.00    +0.004 A 
BRANCH   9  12
ATOM     12  S   UNL     1       2.826  -1.949  -4.962  0.00  0.00    +0.056 S 
ATOM     13  O   UNL     1       1.916  -1.778  -6.040  0.00  0.00    -0.153 OA
ATOM     14  O   UNL     1       4.117  -1.356  -4.954  0.00  0.00    -0.153 OA
BRANCH  12  15
ATOM     15  N   UNL     1       3.054  -3.580  -4.790  0.00  0.00    -0.204 NA
ATOM     16  H   UNL     1       2.745  -4.031  -3.989  0.00  0.00    +0.144 HD
ATOM     17  H   UNL     1       3.497  -4.085  -5.490  0.00  0.00    +0.144 HD
ENDBRANCH  12  15
ENDBRANCH   9  12
ENDBRANCH   5   6
ENDBRANCH   1   5
BRANCH   1  18
ATOM     18  C   UNL     1       0.025  -0.017   2.401  0.00  0.00    +0.019 C 
BRANCH  18  19
ATOM     19  C   UNL     1       0.820  -0.412   3.618  0.00  0.00    +0.196 C 
ATOM     20  O   UNL     1       1.858  -1.027   3.492  0.00  0.00    -0.278 OA
ATOM     21  N   UNL     1       0.379  -0.081   4.848  0.00  0.00    -0.317 N 
ATOM     22  H   UNL     1      -0.451   0.411   4.949  0.00  0.00    +0.149 HD
BRANCH  21  23
ATOM     23  C   UNL     1       1.152  -0.464   6.032  0.00  0.00    +0.109 C 
BRANCH  23  24
ATOM     24  C   UNL     1       0.436   0.029   7.291  0.00  0.00    +0.054 C 
BRANCH  24  25
ATOM     25  C   UNL     1       1.231  -0.366   8.508  0.00  0.00    -0.039 A 
ATOM     26  C   UNL     1       1.003  -1.578   9.132  0.00  0.00    +0.011 A 
ATOM     27  C   UNL     1       1.736  -1.902  10.226  0.00  0.00    +0.045 A 
ATOM     28  S   UNL     1       2.788  -0.471  10.403  0.00  0.00    -0.105 S 
ATOM     29  C   UNL     1       2.184   0.461   9.005  0.00  0.00    +0.048 A 
ENDBRANCH  24  25
ENDBRANCH  23  24
ENDBRANCH  21  23
ENDBRANCH  18  19
ENDBRANCH   1  18
TORSDOF 9
