REMARK  Name = ZINC05970883
REMARK  6 active torsions:
REMARK  status: ('A' for Active; 'I' for Inactive)
REMARK    1  A    between atoms: C_4  and  N_7
REMARK    2  A    between atoms: C_13  and  C_16
REMARK    3  A    between atoms: C_16  and  O_18
REMARK    4  A    between atoms: O_18  and  C_19
REMARK    5  A    between atoms: C_19  and  C_20
REMARK    6  A    between atoms: C_20  and  N_21
REMARK                            x       y       z     vdW  Elec       q    Type
REMARK                         _______ _______ _______ _____ _____    ______ ____
ROOT
ATOM      1  N   UNL     1      -8.879   1.809   1.668  0.00  0.00    -0.269 N 
ATOM      2  C   UNL     1      -8.510   1.010   2.688  0.00  0.00    +0.306 C 
ATOM      3  O   UNL     1      -9.271   0.819   3.617  0.00  0.00    -0.252 OA
ATOM      4  N   UNL     1      -7.297   0.421   2.679  0.00  0.00    -0.285 N 
ATOM      5  C   UNL     1      -6.837  -0.363   3.832  0.00  0.00    +0.110 C 
ATOM      6  C   UNL     1      -5.472   0.170   4.278  0.00  0.00    +0.034 C 
ATOM      7  C   UNL     1      -4.511   0.160   3.087  0.00  0.00    +0.101 C 
ATOM      8  C   UNL     1      -5.051   1.075   1.986  0.00  0.00    +0.034 C 
ATOM      9  C   UNL     1      -6.411   0.552   1.514  0.00  0.00    +0.110 C 
ATOM     10  H   UNL     1      -8.306   1.899   0.891  0.00  0.00    +0.156 HD
ENDROOT
BRANCH   1  14
ATOM     11  C   UNL     1     -12.482   3.893   1.854  0.00  0.00    +0.000 A 
ATOM     12  C   UNL     1     -12.009   3.439   0.636  0.00  0.00    +0.002 A 
ATOM     13  C   UNL     1     -10.815   2.748   0.571  0.00  0.00    +0.023 A 
ATOM     14  C   UNL     1     -10.089   2.510   1.730  0.00  0.00    +0.035 A 
ATOM     15  C   UNL     1     -10.569   2.962   2.953  0.00  0.00    +0.023 A 
ATOM     16  C   UNL     1     -11.761   3.657   3.010  0.00  0.00    +0.002 A 
ENDBRANCH   1  14
BRANCH   7  17
ATOM     17  C   UNL     1      -3.157   0.652   3.530  0.00  0.00    +0.310 C 
ATOM     18  O   UNL     1      -2.979   0.978   4.680  0.00  0.00    -0.251 OA
BRANCH  17  19
ATOM     19  O   UNL     1      -2.149   0.729   2.647  0.00  0.00    -0.463 OA
BRANCH  19  20
ATOM     20  C   UNL     1      -0.873   1.212   3.144  0.00  0.00    +0.251 C 
BRANCH  20  21
ATOM     21  C   UNL     1       0.145   1.230   2.002  0.00  0.00    +0.158 C 
BRANCH  21  22
ATOM     22  N   UNL     1      -0.271   2.205   0.991  0.00  0.00    -0.231 N 
ATOM     23  C   UNL     1      -1.058   1.921  -0.062  0.00  0.00    +0.254 C 
ATOM     24  O   UNL     1      -1.529   0.832  -0.322  0.00  0.00    -0.270 OA
ATOM     25  C   UNL     1      -1.257   3.156  -0.849  0.00  0.00    +0.049 A 
ATOM     26  C   UNL     1      -1.955   3.466  -2.005  0.00  0.00    +0.014 A 
ATOM     27  C   UNL     1      -1.930   4.762  -2.497  0.00  0.00    +0.001 A 
ATOM     28  C   UNL     1      -1.214   5.746  -1.842  0.00  0.00    +0.001 A 
ATOM     29  C   UNL     1      -0.511   5.451  -0.684  0.00  0.00    +0.014 A 
ATOM     30  C   UNL     1      -0.526   4.160  -0.181  0.00  0.00    +0.049 A 
ATOM     31  C   UNL     1       0.087   3.502   0.992  0.00  0.00    +0.254 C 
ATOM     32  O   UNL     1       0.796   4.041   1.817  0.00  0.00    -0.270 OA
ENDBRANCH  21  22
ENDBRANCH  20  21
ENDBRANCH  19  20
ENDBRANCH  17  19
ENDBRANCH   7  17
TORSDOF 6
