REMARK  Name = ZINC47355834
REMARK  7 active torsions:
REMARK  status: ('A' for Active; 'I' for Inactive)
REMARK    1  A    between atoms: C_1  and  C_2
REMARK    2  A    between atoms: C_2  and  C_21
REMARK    3  A    between atoms: N_5  and  C_9
REMARK    4  A    between atoms: C_9  and  C_10
REMARK    5  A    between atoms: C_10  and  O_11
REMARK    6  A    between atoms: O_11  and  C_12
REMARK    7  A    between atoms: C_17  and  N_18
REMARK                            x       y       z     vdW  Elec       q    Type
REMARK                         _______ _______ _______ _____ _____    ______ ____
ROOT
ATOM      1  C   UNL     1      -0.023   1.523  -0.086  0.00  0.00    +0.047 C 
ATOM      2  C   UNL     1       0.002  -0.004   0.002  0.00  0.00    +0.140 C 
ATOM      3  C   UNL     1       0.741  -0.594  -1.183  0.00  0.00    +0.251 C 
ATOM      4  O   UNL     1       0.447  -0.491  -2.354  0.00  0.00    -0.272 OA
ATOM      5  N   UNL     1       1.793  -1.256  -0.662  0.00  0.00    -0.221 N 
ATOM      6  C   UNL     1       1.822  -1.168   0.672  0.00  0.00    +0.310 C 
ATOM      7  O   UNL     1       2.676  -1.684   1.366  0.00  0.00    -0.252 OA
ATOM      8  N   UNL     1       0.798  -0.444   1.161  0.00  0.00    -0.281 N 
ATOM      9  H   UNL     1       0.620  -0.249   2.094  0.00  0.00    +0.152 HD
ENDROOT
BRANCH   2  10
ATOM     10  C   UNL     1      -1.399  -0.552   0.083  0.00  0.00    +0.055 A 
ATOM     11  C   UNL     1      -1.678  -1.816  -0.408  0.00  0.00    +0.132 A 
ATOM     12  C   UNL     1      -2.966  -2.318  -0.333  0.00  0.00    +0.039 A 
ATOM     13  C   UNL     1      -3.973  -1.559   0.232  0.00  0.00    +0.006 A 
ATOM     14  C   UNL     1      -3.696  -0.297   0.723  0.00  0.00    +0.039 A 
ATOM     15  C   UNL     1      -2.407   0.205   0.654  0.00  0.00    +0.132 A 
ATOM     16  F   UNL     1      -2.135   1.436   1.139  0.00  0.00    -0.205 F 
ATOM     17  F   UNL     1      -0.695  -2.558  -0.961  0.00  0.00    -0.205 F 
ENDBRANCH   2  10
BRANCH   5  18
ATOM     18  C   UNL     1       2.784  -1.984  -1.460  0.00  0.00    +0.159 C 
BRANCH  18  19
ATOM     19  C   UNL     1       3.929  -1.041  -1.835  0.00  0.00    +0.248 C 
BRANCH  19  20
ATOM     20  O   UNL     1       4.620  -0.637  -0.651  0.00  0.00    -0.488 OA
BRANCH  20  21
ATOM     21  C   UNL     1       5.673   0.207  -0.809  0.00  0.00    +0.151 A 
ATOM     22  C   UNL     1       6.030   0.643  -2.077  0.00  0.00    +0.048 A 
ATOM     23  C   UNL     1       7.100   1.502  -2.235  0.00  0.00    +0.004 A 
ATOM     24  C   UNL     1       7.816   1.928  -1.131  0.00  0.00    +0.002 A 
ATOM     25  C   UNL     1       7.462   1.495   0.133  0.00  0.00    +0.036 A 
ATOM     26  C   UNL     1       6.389   0.640   0.297  0.00  0.00    +0.168 A 
BRANCH  26  27
ATOM     27  N   UNL     1       6.007   0.182   1.652  0.00  0.00    +0.060 N 
ATOM     28  O   UNL     1       6.631   0.559   2.616  0.00  0.00    -0.126 OA
ATOM     29  O   UNL     1       5.071  -0.570   1.794  0.00  0.00    -0.126 OA
ENDBRANCH  26  27
ENDBRANCH  20  21
ENDBRANCH  19  20
ENDBRANCH  18  19
ENDBRANCH   5  18
TORSDOF 6
