REMARK  Name = ZINC63870005
REMARK  6 active torsions:
REMARK  status: ('A' for Active; 'I' for Inactive)
REMARK    1  A    between atoms: C_1  and  C_2
REMARK    2  A    between atoms: C_4  and  C_27
REMARK    3  A    between atoms: C_7  and  C_10
REMARK    4  A    between atoms: C_10  and  C_11
REMARK    5  A    between atoms: C_13  and  C_15
REMARK    6  A    between atoms: C_27  and  C_28
REMARK                            x       y       z     vdW  Elec       q    Type
REMARK                         _______ _______ _______ _____ _____    ______ ____
ROOT
ATOM      1  C   UNL     1       1.767   1.691   0.805  0.00  0.00    +0.039 C 
ATOM      2  C   UNL     1       1.290   0.278   0.585  0.00  0.00    -0.073 C 
ATOM      3  C   UNL     1       1.274  -0.168  -0.630  0.00  0.00    -0.005 C 
ATOM      4  C   UNL     1       0.807  -1.547  -1.005  0.00  0.00    +0.103 C 
ATOM      5  N   UNL     1       0.643  -2.349   0.216  0.00  0.00    -0.287 N 
ATOM      6  C   UNL     1      -0.003  -1.698   1.369  0.00  0.00    +0.085 C 
ATOM      7  C   UNL     1       0.874  -0.513   1.788  0.00  0.00    +0.053 C 
ATOM      8  C   UNL     1       1.065  -3.627   0.278  0.00  0.00    +0.247 C 
ATOM      9  O   UNL     1       0.896  -4.275   1.292  0.00  0.00    -0.270 OA
ENDROOT
BRANCH   8  10
ATOM     10  C   UNL     1       1.735  -4.243  -0.890  0.00  0.00    +0.039 A 
ATOM     11  C   UNL     1       1.464  -3.728  -2.230  0.00  0.00    +0.015 A 
ATOM     12  C   UNL     1       2.048  -4.253  -3.327  0.00  0.00    +0.026 A 
ATOM     13  C   UNL     1       2.955  -5.335  -3.211  0.00  0.00    +0.055 A 
ATOM     14  N   UNL     1       3.526  -5.848  -4.284  0.00  0.00    -0.276 N 
ATOM     15  C   UNL     1       4.387  -6.876  -4.162  0.00  0.00    +0.304 C 
ATOM     16  O   UNL     1       4.915  -7.352  -5.147  0.00  0.00    -0.265 OA
ATOM     17  C   UNL     1       4.688  -7.429  -2.805  0.00  0.00    +0.304 C 
ATOM     18  O   UNL     1       5.462  -8.355  -2.679  0.00  0.00    -0.265 OA
ATOM     19  N   UNL     1       4.091  -6.887  -1.720  0.00  0.00    -0.276 N 
ATOM     20  C   UNL     1       3.255  -5.884  -1.865  0.00  0.00    +0.056 A 
ATOM     21  C   UNL     1       2.602  -5.280  -0.699  0.00  0.00    +0.038 A 
ATOM     22  H   UNL     1       4.280  -7.239  -0.835  0.00  0.00    +0.155 HD
ATOM     23  H   UNL     1       3.326  -5.485  -5.161  0.00  0.00    +0.155 HD
ENDBRANCH   8  10
BRANCH   6  24
ATOM     24  C   UNL     1      -0.118  -2.691   2.527  0.00  0.00    +0.049 C 
BRANCH  24  25
ATOM     25  C   UNL     1      -1.151  -3.736   2.192  0.00  0.00    -0.033 C 
ATOM     26  C   UNL     1      -0.933  -4.993   2.491  0.00  0.00    +0.004 C 
ENDBRANCH  24  25
ENDBRANCH   6  24
BRANCH   4  27
ATOM     27  C   UNL     1      -0.531  -1.452  -1.740  0.00  0.00    +0.053 C 
BRANCH  27  28
ATOM     28  C   UNL     1      -0.938  -2.821  -2.222  0.00  0.00    -0.032 C 
ATOM     29  C   UNL     1      -2.106  -3.312  -1.890  0.00  0.00    +0.004 C 
ENDBRANCH  27  28
ENDBRANCH   4  27
TORSDOF 5
