REMARK  Name = ZINC33762257
REMARK  11 active torsions:
REMARK  status: ('A' for Active; 'I' for Inactive)
REMARK    1  A    between atoms: C_1  and  C_2
REMARK    2  A    between atoms: C_2  and  C_32
REMARK    3  A    between atoms: C_3  and  N_21
REMARK    4  A    between atoms: N_5  and  C_15
REMARK    5  A    between atoms: N_8  and  C_9
REMARK    6  A    between atoms: C_9  and  C_10
REMARK    7  A    between atoms: C_10  and  C_11
REMARK    8  A    between atoms: C_11  and  O_13
REMARK    9  A    between atoms: O_13  and  C_14
REMARK   10  A    between atoms: N_21  and  O_31
REMARK   11  A    between atoms: N_24  and  C_25
REMARK                            x       y       z     vdW  Elec       q    Type
REMARK                         _______ _______ _______ _____ _____    ______ ____
ROOT
ATOM      1  C   UNL     1      -0.725  -1.187   0.850  0.00  0.00    +0.035 C 
ATOM      2  C   UNL     1      -0.032  -0.368  -0.241  0.00  0.00    +0.070 C 
ATOM      3  C   UNL     1       1.446  -0.786  -0.374  0.00  0.00    +0.220 C 
ATOM      4  N   UNL     1       2.189   0.441  -0.052  0.00  0.00    -0.260 N 
ATOM      5  C   UNL     1       1.320   1.422   0.225  0.00  0.00    +0.307 C 
ATOM      6  O   UNL     1       1.665   2.549   0.524  0.00  0.00    -0.252 OA
ATOM      7  N   UNL     1       0.036   1.050   0.141  0.00  0.00    -0.276 N 
ATOM      8  C   UNL     1      -0.757  -0.530  -1.579  0.00  0.00    +0.035 C 
ENDROOT
BRANCH   4   9
ATOM      9  C   UNL     1       3.648   0.571  -0.037  0.00  0.00    +0.080 C 
ATOM     10  C   UNL     1       4.109   0.983   1.363  0.00  0.00    +0.022 C 
ATOM     11  C   UNL     1       5.633   1.118   1.379  0.00  0.00    +0.002 C 
ATOM     12  C   UNL     1       6.061   2.183   0.366  0.00  0.00    +0.000 C 
ATOM     13  C   UNL     1       5.601   1.770  -1.033  0.00  0.00    +0.002 C 
ATOM     14  C   UNL     1       4.077   1.635  -1.049  0.00  0.00    +0.022 C 
ENDBRANCH   4   9
BRANCH   3  15
ATOM     15  N   UNL     1       1.768  -1.848   0.582  0.00  0.00    -0.144 N 
ATOM     16  C   UNL     1       2.453  -2.935   0.176  0.00  0.00    +0.327 C 
ATOM     17  O   UNL     1       2.724  -3.079  -1.000  0.00  0.00    -0.250 OA
ATOM     18  N   UNL     1       2.838  -3.864   1.075  0.00  0.00    -0.295 N 
ATOM     19  H   UNL     1       2.523  -3.776   2.125  0.00  0.00    +0.151 HD
BRANCH  18  20
ATOM     20  C   UNL     1       3.676  -4.989   0.652  0.00  0.00    +0.074 C 
ATOM     21  C   UNL     1       2.789  -6.105   0.098  0.00  0.00    +0.022 C 
ATOM     22  C   UNL     1       3.664  -7.280  -0.343  0.00  0.00    +0.002 C 
ATOM     23  C   UNL     1       4.455  -7.805   0.856  0.00  0.00    +0.000 C 
ATOM     24  C   UNL     1       5.342  -6.689   1.411  0.00  0.00    +0.002 C 
ATOM     25  C   UNL     1       4.467  -5.514   1.852  0.00  0.00    +0.022 C 
ENDBRANCH  18  20
BRANCH  15  26
ATOM     26  O   UNL     1       1.360  -1.732   1.933  0.00  0.00    -0.289 OA
ATOM     27  H   UNL     1       1.602  -2.529   2.651  0.00  0.00    +0.242 HD
ENDBRANCH  15  26
ENDBRANCH   3  15
BRANCH   7  28
ATOM     28  C   UNL     1      -1.117   1.919   0.386  0.00  0.00    +0.121 C 
BRANCH  28  29
ATOM     29  C   UNL     1      -1.507   1.845   1.864  0.00  0.00    +0.139 C 
BRANCH  29  30
ATOM     30  C   UNL     1      -2.694   2.739   2.115  0.00  0.00    +0.308 C 
ATOM     31  O   UNL     1      -3.178   3.371   1.206  0.00  0.00    -0.251 OA
BRANCH  30  32
ATOM     32  O   UNL     1      -3.212   2.834   3.350  0.00  0.00    -0.468 OA
ATOM     33  C   UNL     1      -4.355   3.715   3.519  0.00  0.00    +0.280 C 
ENDBRANCH  30  32
ENDBRANCH  29  30
ENDBRANCH  28  29
ENDBRANCH   7  28
TORSDOF 8
