REMARK  Name = ZINC63807673
REMARK  6 active torsions:
REMARK  status: ('A' for Active; 'I' for Inactive)
REMARK    1  A    between atoms: C_1  and  C_2
REMARK    2  A    between atoms: C_2  and  C_3
REMARK    3  A    between atoms: C_2  and  C_4
REMARK    4  A    between atoms: C_2  and  C_5
REMARK    5  A    between atoms: C_7  and  C_11
REMARK    6  A    between atoms: C_15  and  C_20
REMARK                            x       y       z     vdW  Elec       q    Type
REMARK                         _______ _______ _______ _____ _____    ______ ____
ROOT
ATOM      1  C   UNL     1       3.328  -0.470  -3.312  0.00  0.00    +0.182 C 
ATOM      2  N   UNL     1       3.917  -1.403  -4.309  0.00  0.00    -0.265 N 
ATOM      3  N   UNL     1       5.151  -1.886  -3.987  0.00  0.00    -0.220 N 
ATOM      4  C   UNL     1       6.232  -2.456  -4.653  0.00  0.00    +0.182 A 
ATOM      5  N   UNL     1       7.136  -2.762  -3.757  0.00  0.00    -0.127 NA
ATOM      6  N   UNL     1       6.728  -2.421  -2.586  0.00  0.00    -0.120 NA
ATOM      7  C   UNL     1       5.553  -1.875  -2.675  0.00  0.00    +0.211 A 
ATOM      8  S   UNL     1       4.212  -1.080  -1.811  0.00  0.00    -0.058 S 
ATOM      9  H   UNL     1       3.279  -2.155  -4.522  0.00  0.00    +0.168 HD
ENDROOT
BRANCH   4  10
ATOM     10  C   UNL     1       6.339  -2.676  -6.111  0.00  0.00    +0.023 A 
ATOM     11  C   UNL     1       5.203  -2.594  -6.918  0.00  0.00    +0.012 A 
ATOM     12  C   UNL     1       5.309  -2.800  -8.278  0.00  0.00    +0.003 A 
ATOM     13  C   UNL     1       6.537  -3.089  -8.844  0.00  0.00    +0.038 A 
ATOM     14  C   UNL     1       7.670  -3.173  -8.050  0.00  0.00    +0.124 A 
ATOM     15  C   UNL     1       7.577  -2.962  -6.687  0.00  0.00    +0.050 A 
ATOM     16  F   UNL     1       8.867  -3.455  -8.609  0.00  0.00    -0.205 F 
ENDBRANCH   4  10
BRANCH   1  19
ATOM     17  C   UNL     1       0.707  -0.490  -1.238  0.00  0.00    +0.067 C 
ATOM     18  C   UNL     1       1.233   0.306  -2.172  0.00  0.00    +0.029 C 
ATOM     19  C   UNL     1       1.815  -0.660  -3.189  0.00  0.00    +0.185 C 
ATOM     20  N   UNL     1       1.496  -1.978  -2.615  0.00  0.00    -0.177 NA
ATOM     21  N   UNL     1       0.899  -1.790  -1.552  0.00  0.00    -0.158 NA
BRANCH  17  23
ATOM     22  C   UNL     1      -0.019   1.526   0.010  0.00  0.00    +0.017 C 
ATOM     23  C   UNL     1       0.002  -0.004   0.002  0.00  0.00    +0.006 C 
ATOM     24  C   UNL     1       0.742  -0.511   1.242  0.00  0.00    +0.017 C 
ATOM     25  C   UNL     1      -1.433  -0.534   0.013  0.00  0.00    +0.017 C 
ENDBRANCH  17  23
ENDBRANCH   1  19
TORSDOF 3
