REMARK  Name = ZINC13181607
REMARK  10 active torsions:
REMARK  status: ('A' for Active; 'I' for Inactive)
REMARK    1  A    between atoms: C_3  and  O_30
REMARK    2  A    between atoms: C_6  and  C_7
REMARK    3  A    between atoms: C_7  and  C_8
REMARK    4  A    between atoms: C_8  and  N_9
REMARK    5  A    between atoms: N_9  and  C_10
REMARK    6  A    between atoms: C_13  and  S_19
REMARK    7  A    between atoms: C_15  and  N_16
REMARK    8  A    between atoms: S_19  and  N_22
REMARK    9  A    between atoms: C_25  and  C_28
REMARK   10  A    between atoms: O_30  and  C_31
REMARK                            x       y       z     vdW  Elec       q    Type
REMARK                         _______ _______ _______ _____ _____    ______ ____
ROOT
ATOM      1  C   UNL     1       0.874   6.293   2.680  0.00  0.00    +0.058 A 
ATOM      2  C   UNL     1       0.792   5.595   3.879  0.00  0.00    +0.027 A 
ATOM      3  C   UNL     1       1.048   6.242   5.072  0.00  0.00    +0.030 A 
ATOM      4  C   UNL     1       1.387   7.583   5.074  0.00  0.00    +0.108 A 
ATOM      5  C   UNL     1       1.470   8.281   3.883  0.00  0.00    +0.063 A 
ATOM      6  C   UNL     1       1.220   7.638   2.686  0.00  0.00    +0.149 A 
ENDROOT
BRANCH   6   7
ATOM      7  N   UNL     1       1.314   8.384   1.411  0.00  0.00    +0.058 N 
ATOM      8  O   UNL     1       1.767   7.841   0.420  0.00  0.00    -0.126 OA
ATOM      9  O   UNL     1       0.939   9.542   1.354  0.00  0.00    -0.126 OA
ENDBRANCH   6   7
BRANCH   4  10
ATOM     10  S   UNL     1       1.713   8.405   6.598  0.00  0.00    +0.061 S 
ATOM     11  O   UNL     1       1.475   9.787   6.374  0.00  0.00    -0.153 OA
ATOM     12  O   UNL     1       1.037   7.669   7.609  0.00  0.00    -0.153 OA
BRANCH  10  13
ATOM     13  N   UNL     1       3.333   8.247   6.903  0.00  0.00    -0.177 NA
ATOM     14  C   UNL     1       3.843   7.104   7.672  0.00  0.00    +0.110 C 
ATOM     15  C   UNL     1       4.688   7.623   8.834  0.00  0.00    +0.032 C 
ATOM     16  C   UNL     1       5.777   8.553   8.293  0.00  0.00    +0.105 C 
ATOM     17  C   UNL     1       5.128   9.749   7.593  0.00  0.00    +0.032 C 
ATOM     18  C   UNL     1       4.288   9.251   6.413  0.00  0.00    +0.110 C 
BRANCH  16  19
ATOM     19  C   UNL     1       6.632   9.041   9.434  0.00  0.00    +0.359 C 
ATOM     20  O   UNL     1       6.713  10.225   9.664  0.00  0.00    -0.246 OA
ATOM     21  O   UNL     1       7.303   8.162  10.195  0.00  0.00    -0.246 OA
ENDBRANCH  16  19
ENDBRANCH  10  13
ENDBRANCH   4  10
BRANCH   1  22
ATOM     22  N   UNL     1       0.615   5.642   1.472  0.00  0.00    -0.342 N 
ATOM     23  H   UNL     1       0.588   6.148   0.645  0.00  0.00    +0.146 HD
BRANCH  22  24
ATOM     24  C   UNL     1       0.382   4.196   1.455  0.00  0.00    +0.106 C 
BRANCH  24  25
ATOM     25  C   UNL     1       0.124   3.738   0.018  0.00  0.00    +0.054 C 
BRANCH  25  31
ATOM     26  C   UNL     1      -1.397   1.756   0.142  0.00  0.00    +0.007 A 
ATOM     27  C   UNL     1      -1.619   0.392   0.126  0.00  0.00    +0.046 A 
ATOM     28  C   UNL     1      -0.553  -0.481  -0.035  0.00  0.00    +0.127 A 
ATOM     29  C   UNL     1       0.734   0.018  -0.178  0.00  0.00    +0.046 A 
ATOM     30  C   UNL     1       0.950   1.382  -0.161  0.00  0.00    +0.007 A 
ATOM     31  C   UNL     1      -0.114   2.250  -0.001  0.00  0.00    -0.046 A 
BRANCH  28  32
ATOM     32  O   UNL     1      -0.768  -1.823  -0.051  0.00  0.00    -0.434 OA
BRANCH  32  33
ATOM     33  C   UNL     1       0.376  -2.661  -0.220  0.00  0.00    +0.541 C 
ATOM     34  F   UNL     1       0.996  -2.365  -1.439  0.00  0.00    -0.166 F 
ATOM     35  F   UNL     1       1.277  -2.438   0.827  0.00  0.00    -0.166 F 
ENDBRANCH  32  33
ENDBRANCH  28  32
ENDBRANCH  25  31
ENDBRANCH  24  25
ENDBRANCH  22  24
ENDBRANCH   1  22
TORSDOF 10
