REMARK  Name = ZINC24173718
REMARK  8 active torsions:
REMARK  status: ('A' for Active; 'I' for Inactive)
REMARK    1  A    between atoms: C_1  and  C_2
REMARK    2  A    between atoms: C_2  and  C_3
REMARK    3  A    between atoms: C_3  and  C_27
REMARK    4  A    between atoms: N_6  and  N_10
REMARK    5  A    between atoms: C_11  and  C_13
REMARK    6  A    between atoms: C_13  and  S_14
REMARK    7  A    between atoms: S_14  and  C_15
REMARK    8  A    between atoms: C_18  and  C_20
REMARK                            x       y       z     vdW  Elec       q    Type
REMARK                         _______ _______ _______ _____ _____    ______ ____
ROOT
ATOM      1  N   UNL     1      -3.772   1.695  -2.663  0.00  0.00    -0.223 N 
ATOM      2  C   UNL     1      -3.811   0.587  -3.429  0.00  0.00    +0.240 C 
ATOM      3  O   UNL     1      -3.166  -0.391  -3.114  0.00  0.00    -0.273 OA
ATOM      4  H   UNL     1      -4.357   2.582  -2.949  0.00  0.00    +0.174 HD
ENDROOT
BRANCH   1   8
ATOM      5  C   UNL     1      -1.332   2.114   0.020  0.00  0.00    +0.139 C 
ATOM      6  C   UNL     1      -1.812   2.367  -1.395  0.00  0.00    +0.268 C 
ATOM      7  O   UNL     1      -1.255   3.018  -2.253  0.00  0.00    -0.271 OA
ATOM      8  N   UNL     1      -2.988   1.717  -1.502  0.00  0.00    -0.137 N 
ATOM      9  C   UNL     1      -3.314   1.095  -0.363  0.00  0.00    +0.327 C 
ATOM     10  O   UNL     1      -4.329   0.444  -0.216  0.00  0.00    -0.251 OA
ATOM     11  N   UNL     1      -2.392   1.272   0.600  0.00  0.00    -0.280 N 
ATOM     12  H   UNL     1      -2.312   0.926   1.641  0.00  0.00    +0.152 HD
BRANCH   5  13
ATOM     13  C   UNL     1      -0.017   1.378   0.010  0.00  0.00    -0.015 A 
ATOM     14  C   UNL     1       1.171   2.086   0.002  0.00  0.00    +0.006 A 
ATOM     15  C   UNL     1       2.377   1.411  -0.015  0.00  0.00    +0.000 A 
ATOM     16  C   UNL     1       2.396   0.029  -0.022  0.00  0.00    +0.000 A 
ATOM     17  C   UNL     1       1.208  -0.679  -0.013  0.00  0.00    +0.000 A 
ATOM     18  C   UNL     1       0.002  -0.004   0.002  0.00  0.00    +0.006 A 
ENDBRANCH   5  13
BRANCH   5  20
ATOM     19  C   UNL     1      -2.578   4.096   0.891  0.00  0.00    +0.007 C 
ATOM     20  C   UNL     1      -1.204   3.431   0.788  0.00  0.00    +0.037 C 
ENDBRANCH   5  20
ENDBRANCH   1   8
BRANCH   2  21
ATOM     21  C   UNL     1      -4.654   0.563  -4.678  0.00  0.00    +0.176 C 
BRANCH  21  22
ATOM     22  S   UNL     1      -4.496  -1.051  -5.482  0.00  0.00    -0.056 S 
BRANCH  22  23
ATOM     23  C   UNL     1      -5.553  -0.806  -6.870  0.00  0.00    +0.278 A 
ATOM     24  N   UNL     1      -6.229   0.284  -7.149  0.00  0.00    -0.101 NA
ATOM     25  N   UNL     1      -6.891   0.110  -8.239  0.00  0.00    -0.106 NA
ATOM     26  C   UNL     1      -6.672  -1.099  -8.694  0.00  0.00    +0.249 A 
ATOM     27  O   UNL     1      -5.820  -1.705  -7.837  0.00  0.00    -0.411 OA
BRANCH  26  28
ATOM     28  C   UNL     1      -7.250  -1.692  -9.918  0.00  0.00    +0.040 A 
ATOM     29  C   UNL     1      -6.923  -2.998 -10.287  0.00  0.00    +0.013 A 
ATOM     30  C   UNL     1      -7.470  -3.547 -11.427  0.00  0.00    +0.002 A 
ATOM     31  C   UNL     1      -8.333  -2.804 -12.212  0.00  0.00    +0.020 A 
ATOM     32  C   UNL     1      -8.658  -1.506 -11.855  0.00  0.00    +0.042 A 
ATOM     33  C   UNL     1      -8.122  -0.946 -10.713  0.00  0.00    +0.033 A 
ATOM     34 CL   UNL     1      -9.742  -0.581 -12.847  0.00  0.00    -0.084 Cl
ENDBRANCH  26  28
ENDBRANCH  22  23
ENDBRANCH  21  22
ENDBRANCH   2  21
TORSDOF 7
