REMARK  Name = ZINC64110579
REMARK  8 active torsions:
REMARK  status: ('A' for Active; 'I' for Inactive)
REMARK    1  A    between atoms: C_1  and  O_2
REMARK    2  A    between atoms: O_2  and  C_3
REMARK    3  A    between atoms: C_3  and  C_5
REMARK    4  A    between atoms: C_5  and  C_6
REMARK    5  A    between atoms: C_6  and  C_7
REMARK    6  A    between atoms: N_10  and  C_21
REMARK    7  A    between atoms: C_13  and  N_15
REMARK    8  A    between atoms: C_21  and  C_22
REMARK                            x       y       z     vdW  Elec       q    Type
REMARK                         _______ _______ _______ _____ _____    ______ ____
ROOT
ATOM      1  C   UNL     1       1.480  -4.123  -2.436  0.00  0.00    -0.010 C 
ATOM      2  C   UNL     1       0.058  -4.688  -2.448  0.00  0.00    -0.073 C 
ATOM      3  N   UNL     1      -0.697  -4.100  -3.561  0.00  0.00    +0.382 N 
ATOM      4  C   UNL     1      -0.082  -4.484  -4.837  0.00  0.00    -0.077 C 
ATOM      5  C   UNL     1       1.335  -3.912  -4.918  0.00  0.00    +0.000 C 
ATOM      6  C   UNL     1       2.171  -4.466  -3.760  0.00  0.00    +0.056 C 
ATOM      7  H   UNL     1      -0.692  -3.095  -3.475  0.00  0.00    -0.081 HD
ENDROOT
BRANCH   6   8
ATOM      8  N   UNL     1       3.510  -3.861  -3.785  0.00  0.00    -0.295 NA
ATOM      9  C   UNL     1       4.157  -4.071  -5.089  0.00  0.00    +0.113 C 
ATOM     10  C   UNL     1       5.521  -3.376  -5.092  0.00  0.00    +0.175 C 
ATOM     11  O   UNL     1       6.309  -3.878  -4.009  0.00  0.00    -0.377 OA
ATOM     12  C   UNL     1       5.709  -3.690  -2.725  0.00  0.00    +0.175 C 
ATOM     13  C   UNL     1       4.346  -4.388  -2.697  0.00  0.00    +0.113 C 
ENDBRANCH   6   8
BRANCH   1  14
ATOM     14  C   UNL     1       1.425  -2.604  -2.267  0.00  0.00    +0.014 C 
BRANCH  14  15
ATOM     15  C   UNL     1       0.863  -2.264  -0.885  0.00  0.00    +0.121 C 
BRANCH  15  16
ATOM     16  C   UNL     1       0.809  -0.768  -0.718  0.00  0.00    +0.307 C 
ATOM     17  O   UNL     1       1.181  -0.046  -1.613  0.00  0.00    -0.251 OA
BRANCH  16  19
ATOM     18  C   UNL     1       0.323   1.190   0.513  0.00  0.00    +0.280 C 
ATOM     19  O   UNL     1       0.346  -0.236   0.424  0.00  0.00    -0.468 OA
ENDBRANCH  16  19
ENDBRANCH  15  16
ENDBRANCH  14  15
ENDBRANCH   1  14
BRANCH   3  20
ATOM     20  C   UNL     1      -2.083  -4.586  -3.521  0.00  0.00    -0.045 C 
BRANCH  20  21
ATOM     21  C   UNL     1      -2.890  -3.890  -4.587  0.00  0.00    -0.058 C 
ATOM     22  C   UNL     1      -3.153  -4.345  -5.834  0.00  0.00    -0.003 A 
ATOM     23  C   UNL     1      -2.781  -5.575  -6.543  0.00  0.00    +0.010 A 
ATOM     24  C   UNL     1      -3.204  -5.751  -7.816  0.00  0.00    +0.001 A 
ATOM     25  C   UNL     1      -3.986  -4.792  -8.473  0.00  0.00    +0.002 A 
ATOM     26  C   UNL     1      -4.367  -3.637  -7.887  0.00  0.00    +0.026 A 
ATOM     27  C   UNL     1      -3.980  -3.347  -6.549  0.00  0.00    +0.043 A 
ATOM     28  N   UNL     1      -4.218  -2.316  -5.776  0.00  0.00    -0.380 N 
ATOM     29  C   UNL     1      -3.574  -2.546  -4.478  0.00  0.00    +0.142 C 
ATOM     30  H   UNL     1      -4.737  -1.533  -6.019  0.00  0.00    +0.160 HD
ENDBRANCH  20  21
ENDBRANCH   3  20
TORSDOF 7
