REMARK  Name = ZINC22079086
REMARK  7 active torsions:
REMARK  status: ('A' for Active; 'I' for Inactive)
REMARK    1  A    between atoms: C_4  and  C_7
REMARK    2  A    between atoms: C_7  and  C_9
REMARK    3  A    between atoms: N_13  and  C_25
REMARK    4  A    between atoms: C_14  and  C_16
REMARK    5  A    between atoms: C_19  and  N_22
REMARK    6  A    between atoms: C_25  and  C_26
REMARK    7  A    between atoms: C_26  and  N_27
REMARK                            x       y       z     vdW  Elec       q    Type
REMARK                         _______ _______ _______ _____ _____    ______ ____
ROOT
ATOM      1  C   UNL     1      -1.494   2.609   3.090  0.00  0.00    +0.076 C 
ATOM      2  C   UNL     1      -2.162   1.481   2.753  0.00  0.00    +0.249 C 
ATOM      3  C   UNL     1      -1.525   0.877   1.563  0.00  0.00    +0.288 C 
ATOM      4  O   UNL     1      -1.894  -0.144   1.018  0.00  0.00    -0.266 OA
ATOM      5  N   UNL     1      -0.478   1.626   1.173  0.00  0.00    -0.285 N 
ATOM      6  C   UNL     1      -0.368   2.763   2.095  0.00  0.00    +0.145 C 
ATOM      7  O   UNL     1      -3.240   0.985   3.402  0.00  0.00    -0.282 OA
ENDROOT
BRANCH   6   8
ATOM      8  C   UNL     1       0.961   2.729   2.804  0.00  0.00    -0.022 A 
ATOM      9  C   UNL     1       1.437   1.540   3.324  0.00  0.00    +0.008 A 
ATOM     10  C   UNL     1       2.659   1.508   3.970  0.00  0.00    +0.033 A 
ATOM     11  C   UNL     1       3.400   2.668   4.104  0.00  0.00    +0.126 A 
ATOM     12  C   UNL     1       2.922   3.858   3.588  0.00  0.00    +0.033 A 
ATOM     13  C   UNL     1       1.702   3.889   2.938  0.00  0.00    +0.008 A 
BRANCH  11  14
ATOM     14  N   UNL     1       4.706   2.635   4.801  0.00  0.00    +0.056 N 
ATOM     15  O   UNL     1       5.359   3.656   4.919  0.00  0.00    -0.126 OA
ATOM     16  O   UNL     1       5.127   1.586   5.255  0.00  0.00    -0.126 OA
ENDBRANCH  11  14
ENDBRANCH   6   8
BRANCH   1  17
ATOM     17  C   UNL     1      -1.801   3.505   4.209  0.00  0.00    +0.195 C 
ATOM     18  O   UNL     1      -1.702   3.105   5.354  0.00  0.00    -0.287 OA
BRANCH  17  22
ATOM     19  C   UNL     1      -3.037   7.499   3.454  0.00  0.00    +0.000 A 
ATOM     20  C   UNL     1      -2.848   7.071   4.756  0.00  0.00    +0.001 A 
ATOM     21  C   UNL     1      -2.447   5.776   5.009  0.00  0.00    +0.012 A 
ATOM     22  C   UNL     1      -2.231   4.895   3.946  0.00  0.00    +0.022 A 
ATOM     23  C   UNL     1      -2.419   5.335   2.634  0.00  0.00    +0.012 A 
ATOM     24  C   UNL     1      -2.825   6.632   2.396  0.00  0.00    +0.001 A 
ENDBRANCH  17  22
ENDBRANCH   1  17
BRANCH   5  25
ATOM     25  C   UNL     1       0.402   1.351   0.035  0.00  0.00    +0.089 C 
BRANCH  25  26
ATOM     26  C   UNL     1      -0.160   2.026  -1.218  0.00  0.00    -0.067 C 
BRANCH  26  27
ATOM     27  N   UNL     1       0.722   1.750  -2.360  0.00  0.00    +0.379 N 
ATOM     28  H   UNL     1       0.317   2.236  -3.261  0.00  0.00    -0.090 HD
ATOM     29  H   UNL     1       0.781   0.664  -2.524  0.00  0.00    -0.090 HD
ATOM     30  H   UNL     1       1.727   2.146  -2.151  0.00  0.00    -0.090 HD
ENDBRANCH  26  27
ENDBRANCH  25  26
ENDBRANCH   5  25
TORSDOF 7
