REMARK  Name = ZINC14656652
REMARK  8 active torsions:
REMARK  status: ('A' for Active; 'I' for Inactive)
REMARK    1  A    between atoms: C_1  and  C_2
REMARK    2  A    between atoms: C_2  and  C_3
REMARK    3  A    between atoms: C_3  and  C_4
REMARK    4  A    between atoms: C_4  and  N_5
REMARK    5  A    between atoms: C_6  and  N_28
REMARK    6  A    between atoms: C_7  and  N_14
REMARK    7  A    between atoms: N_14  and  C_15
REMARK    8  A    between atoms: C_16  and  C_18
REMARK                            x       y       z     vdW  Elec       q    Type
REMARK                         _______ _______ _______ _____ _____    ______ ____
ROOT
ATOM      1  N   UNL     1       3.647  11.340   0.309  0.00  0.00    -0.280 N 
ATOM      2  C   UNL     1       2.882  10.212   0.127  0.00  0.00    +0.127 A 
ATOM      3  C   UNL     1       3.454   8.971   0.323  0.00  0.00    +0.140 A 
ATOM      4  C   UNL     1       4.805   8.899   0.710  0.00  0.00    +0.277 A 
ATOM      5  O   UNL     1       5.334   7.816   0.895  0.00  0.00    -0.266 OA
ATOM      6  N   UNL     1       5.512  10.035   0.870  0.00  0.00    -0.273 N 
ATOM      7  H   UNL     1       6.474   9.985   1.137  0.00  0.00    +0.173 HD
ATOM      8  C   UNL     1       4.938  11.236   0.674  0.00  0.00    +0.331 A 
ATOM      9  O   UNL     1       5.598  12.245   0.830  0.00  0.00    -0.246 OA
ENDROOT
BRANCH   3  10
ATOM     10  N   UNL     1       2.695   7.795   0.144  0.00  0.00    -0.263 N 
ATOM     11  C   UNL     1       2.392   6.938   1.292  0.00  0.00    +0.139 C 
ATOM     12  C   UNL     1       2.249   7.461  -1.083  0.00  0.00    +0.259 C 
ATOM     13  O   UNL     1       2.535   8.152  -2.043  0.00  0.00    -0.269 OA
BRANCH  12  14
ATOM     14  C   UNL     1       1.420   6.263  -1.262  0.00  0.00    +0.094 A 
ATOM     15  C   UNL     1       0.762   5.846  -2.377  0.00  0.00    +0.068 A 
ATOM     16  C   UNL     1       0.011   4.655  -2.345  0.00  0.00    +0.008 A 
ATOM     17  C   UNL     1      -0.738   4.060  -3.392  0.00  0.00    +0.010 A 
ATOM     18  C   UNL     1      -1.411   2.898  -3.192  0.00  0.00    +0.001 A 
ATOM     19  C   UNL     1      -1.400   2.253  -1.961  0.00  0.00    +0.001 A 
ATOM     20  C   UNL     1      -0.679   2.794  -0.916  0.00  0.00    +0.016 A 
ATOM     21  C   UNL     1       0.009   3.973  -1.105  0.00  0.00    +0.021 A 
ATOM     22  S   UNL     1       1.026   4.995  -0.069  0.00  0.00    -0.082 S 
ATOM     23 CL   UNL     1       0.848   6.779  -3.838  0.00  0.00    -0.082 Cl
ENDBRANCH  12  14
ENDBRANCH   3  10
BRANCH   2  24
ATOM     24  N   UNL     1       1.563  10.319  -0.247  0.00  0.00    -0.343 N 
ATOM     25  H   UNL     1       1.017   9.521  -0.331  0.00  0.00    +0.144 HD
ATOM     26  H   UNL     1       1.179  11.191  -0.426  0.00  0.00    +0.144 HD
ENDBRANCH   2  24
BRANCH   1  27
ATOM     27  C   UNL     1       3.054  12.664   0.104  0.00  0.00    +0.128 C 
BRANCH  27  28
ATOM     28  C   UNL     1       2.457  13.164   1.421  0.00  0.00    +0.021 C 
BRANCH  28  30
ATOM     29  C   UNL     1       1.241  15.047   2.524  0.00  0.00    +0.004 C 
ATOM     30  C   UNL     1       1.837  14.547   1.207  0.00  0.00    -0.002 C 
ENDBRANCH  28  30
ENDBRANCH  27  28
ENDBRANCH   1  27
TORSDOF 6
