REMARK  Name = ZINC38785156
REMARK  4 active torsions:
REMARK  status: ('A' for Active; 'I' for Inactive)
REMARK    1  A    between atoms: C_4  and  C_7
REMARK    2  A    between atoms: C_7  and  C_9
REMARK    3  A    between atoms: C_7  and  N_22
REMARK    4  A    between atoms: C_23  and  C_25
REMARK                            x       y       z     vdW  Elec       q    Type
REMARK                         _______ _______ _______ _____ _____    ______ ____
ROOT
ATOM      1  C   UNL     1       3.838  -0.730  -0.055  0.00  0.00    +0.190 C 
ENDROOT
BRANCH   1   2
ATOM      2  C   UNL     1       4.035  -1.186   1.368  0.00  0.00    +0.242 C 
ATOM      3  O   UNL     1       4.057  -2.371   1.627  0.00  0.00    -0.273 OA
ATOM      4  N   UNL     1       4.186  -0.278   2.352  0.00  0.00    -0.284 N 
ATOM      5  C   UNL     1       5.251  -0.317   3.128  0.00  0.00    +0.036 C 
ATOM      6  C   UNL     1       6.336  -1.262   2.838  0.00  0.00    +0.025 C 
ATOM      7  C   UNL     1       7.428  -1.308   3.627  0.00  0.00    +0.032 C 
ATOM      8  C   UNL     1       7.538  -0.413   4.782  0.00  0.00    +0.095 C 
ATOM      9  N   UNL     1       8.451  -0.224   5.715  0.00  0.00    -0.190 NA
ATOM     10  C   UNL     1       8.037   0.743   6.551  0.00  0.00    +0.369 C 
ATOM     11  O   UNL     1       8.744   1.181   7.621  0.00  0.00    -0.243 OA
ATOM     12  N   UNL     1       6.861   1.211   6.201  0.00  0.00    -0.190 NA
ATOM     13  C   UNL     1       6.454   0.541   5.084  0.00  0.00    +0.097 C 
ATOM     14  C   UNL     1       5.355   0.594   4.288  0.00  0.00    +0.053 C 
ATOM     15  H   UNL     1       3.511   0.406   2.489  0.00  0.00    +0.155 HD
ENDBRANCH   1   2
BRANCH   1  19
ATOM     16  C   UNL     1       0.309   1.662  -0.311  0.00  0.00    +0.000 A 
ATOM     17  C   UNL     1       1.551   2.267  -0.251  0.00  0.00    +0.000 A 
ATOM     18  C   UNL     1       2.693   1.492  -0.168  0.00  0.00    +0.006 A 
ATOM     19  C   UNL     1       2.593   0.114  -0.145  0.00  0.00    -0.018 A 
ATOM     20  C   UNL     1       1.351  -0.490  -0.204  0.00  0.00    +0.006 A 
ATOM     21  C   UNL     1       0.209   0.284  -0.288  0.00  0.00    +0.000 A 
ENDBRANCH   1  19
BRANCH   1  22
ATOM     22  N   UNL     1       3.700  -1.899  -0.928  0.00  0.00    -0.296 N 
ATOM     23  C   UNL     1       4.014  -1.804  -2.235  0.00  0.00    +0.252 C 
ATOM     24  O   UNL     1       4.412  -0.748  -2.691  0.00  0.00    -0.270 OA
ATOM     25  H   UNL     1       3.383  -2.740  -0.565  0.00  0.00    +0.150 HD
BRANCH  23  26
ATOM     26  C   UNL     1       3.876  -2.974  -3.108  0.00  0.00    +0.074 A 
ATOM     27  C   UNL     1       4.146  -3.090  -4.463  0.00  0.00    +0.021 A 
ATOM     28  C   UNL     1       3.916  -4.327  -5.014  0.00  0.00    +0.008 A 
ATOM     29  C   UNL     1       3.453  -5.326  -4.222  0.00  0.00    +0.046 A 
ATOM     30  S   UNL     1       3.322  -4.619  -2.703  0.00  0.00    -0.092 S 
ENDBRANCH  23  26
ENDBRANCH   1  22
TORSDOF 4
