REMARK  Name = ZINC38624064
REMARK  12 active torsions:
REMARK  status: ('A' for Active; 'I' for Inactive)
REMARK    1  A    between atoms: C_1  and  C_2
REMARK    2  A    between atoms: C_2  and  N_3
REMARK    3  A    between atoms: N_3  and  C_4
REMARK    4  A    between atoms: N_3  and  S_6
REMARK    5  A    between atoms: C_4  and  C_5
REMARK    6  A    between atoms: S_6  and  C_9
REMARK    7  A    between atoms: C_12  and  C_15
REMARK    8  A    between atoms: N_17  and  C_18
REMARK    9  A    between atoms: C_18  and  C_19
REMARK   10  A    between atoms: C_19  and  C_21
REMARK   11  A    between atoms: C_19  and  N_30
REMARK   12  A    between atoms: N_33  and  C_36
REMARK                            x       y       z     vdW  Elec       q    Type
REMARK                         _______ _______ _______ _____ _____    ______ ____
ROOT
ATOM      1  C   UNL     1      -6.880   4.777   3.264  0.00  0.00    +0.128 C 
ENDROOT
BRANCH   1   4
ATOM      2  C   UNL     1      -5.402   3.384   1.918  0.00  0.00    +0.244 C 
ATOM      3  O   UNL     1      -4.624   3.357   2.852  0.00  0.00    -0.270 OA
ATOM      4  N   UNL     1      -6.559   4.066   2.023  0.00  0.00    -0.310 N 
ATOM      5  H   UNL     1      -7.179   4.087   1.278  0.00  0.00    +0.149 HD
BRANCH   2   9
ATOM      6  C   UNL     1      -4.472   1.322  -1.678  0.00  0.00    +0.106 A 
ATOM      7  C   UNL     1      -3.584   1.291  -0.617  0.00  0.00    +0.029 A 
ATOM      8  C   UNL     1      -3.880   1.958   0.554  0.00  0.00    +0.015 A 
ATOM      9  C   UNL     1      -5.078   2.666   0.666  0.00  0.00    +0.037 A 
ATOM     10  C   UNL     1      -5.969   2.694  -0.408  0.00  0.00    +0.015 A 
ATOM     11  C   UNL     1      -5.658   2.027  -1.575  0.00  0.00    +0.029 A 
BRANCH   6  12
ATOM     12  S   UNL     1      -4.086   0.467  -3.169  0.00  0.00    +0.061 S 
ATOM     13  O   UNL     1      -5.323   0.203  -3.818  0.00  0.00    -0.153 OA
ATOM     14  O   UNL     1      -3.173  -0.565  -2.821  0.00  0.00    -0.153 OA
BRANCH  12  15
ATOM     15  N   UNL     1      -3.259   1.524  -4.139  0.00  0.00    -0.177 NA
BRANCH  15  17
ATOM     16  C   UNL     1      -1.396   2.729  -3.110  0.00  0.00    +0.022 C 
ATOM     17  C   UNL     1      -1.798   1.599  -4.061  0.00  0.00    +0.106 C 
ENDBRANCH  15  17
BRANCH  15  18
ATOM     18  C   UNL     1      -3.987   2.382  -5.076  0.00  0.00    +0.106 C 
ATOM     19  C   UNL     1      -4.025   1.717  -6.454  0.00  0.00    +0.022 C 
ENDBRANCH  15  18
ENDBRANCH  12  15
ENDBRANCH   6  12
ENDBRANCH   2   9
ENDBRANCH   1   4
BRANCH   1  20
ATOM     20  C   UNL     1      -8.182   5.558   3.081  0.00  0.00    +0.104 C 
BRANCH  20  21
ATOM     21  C   UNL     1      -8.559   6.217   4.383  0.00  0.00    -0.025 A 
ATOM     22  C   UNL     1      -8.509   5.496   5.561  0.00  0.00    +0.009 A 
ATOM     23  C   UNL     1      -8.854   6.096   6.758  0.00  0.00    +0.050 A 
ATOM     24  C   UNL     1      -9.251   7.423   6.779  0.00  0.00    +0.166 A 
ATOM     25  C   UNL     1      -9.301   8.150   5.592  0.00  0.00    +0.167 A 
ATOM     26  C   UNL     1      -8.949   7.544   4.397  0.00  0.00    +0.054 A 
ATOM     27  O   UNL     1      -9.717   9.419   5.875  0.00  0.00    -0.453 OA
ATOM     28  C   UNL     1     -10.311   9.346   7.184  0.00  0.00    +0.466 C 
ATOM     29  O   UNL     1      -9.635   8.237   7.805  0.00  0.00    -0.453 OA
ENDBRANCH  20  21
BRANCH  20  30
ATOM     30  N   UNL     1      -9.252   4.638   2.671  0.00  0.00    -0.297 NA
ATOM     31  C   UNL     1     -10.443   5.378   2.231  0.00  0.00    +0.066 C 
ATOM     32  C   UNL     1     -11.509   4.388   1.756  0.00  0.00    -0.064 C 
ATOM     33  N   UNL     1     -11.855   3.477   2.856  0.00  0.00    +0.379 N 
ATOM     34  C   UNL     1     -10.661   2.728   3.267  0.00  0.00    -0.064 C 
ATOM     35  C   UNL     1      -9.588   3.704   3.754  0.00  0.00    +0.066 C 
ATOM     36  C   UNL     1     -12.891   2.538   2.405  0.00  0.00    -0.096 C 
ATOM     37  H   UNL     1     -12.203   4.011   3.638  0.00  0.00    -0.082 HD
ENDBRANCH  20  30
ENDBRANCH   1  20
TORSDOF 9
