REMARK  Name = ZINC14851671
REMARK  7 active torsions:
REMARK  status: ('A' for Active; 'I' for Inactive)
REMARK    1  A    between atoms: C_4  and  C_7
REMARK    2  A    between atoms: C_7  and  C_9
REMARK    3  A    between atoms: C_7  and  O_18
REMARK    4  A    between atoms: N_11  and  C_12
REMARK    5  A    between atoms: O_18  and  C_19
REMARK    6  A    between atoms: C_19  and  C_21
REMARK    7  A    between atoms: C_26  and  N_27
REMARK                            x       y       z     vdW  Elec       q    Type
REMARK                         _______ _______ _______ _____ _____    ______ ____
ROOT
ATOM      1  C   UNL     1       1.518   2.053  -0.503  0.00  0.00    +0.292 C 
ENDROOT
BRANCH   1   5
ATOM      2  C   UNL     1       1.316   2.956   3.667  0.00  0.00    +0.000 A 
ATOM      3  C   UNL     1       0.779   3.833   2.743  0.00  0.00    +0.000 A 
ATOM      4  C   UNL     1       0.844   3.541   1.393  0.00  0.00    +0.008 A 
ATOM      5  C   UNL     1       1.447   2.372   0.968  0.00  0.00    +0.002 A 
ATOM      6  C   UNL     1       1.980   1.492   1.892  0.00  0.00    +0.008 A 
ATOM      7  C   UNL     1       1.918   1.787   3.241  0.00  0.00    +0.000 A 
ENDBRANCH   1   5
BRANCH   1   8
ATOM      8  C   UNL     1       0.358   1.169  -0.883  0.00  0.00    +0.263 C 
ATOM      9  O   UNL     1       0.559   0.035  -1.263  0.00  0.00    -0.271 OA
ATOM     10  N   UNL     1      -0.902   1.641  -0.804  0.00  0.00    -0.282 N 
ATOM     11  H   UNL     1      -1.068   2.524  -0.440  0.00  0.00    +0.155 HD
BRANCH  10  12
ATOM     12  C   UNL     1      -1.972   0.856  -1.249  0.00  0.00    +0.034 A 
ATOM     13  C   UNL     1      -3.050   1.449  -1.892  0.00  0.00    +0.023 A 
ATOM     14  C   UNL     1      -4.101   0.670  -2.336  0.00  0.00    +0.002 A 
ATOM     15  C   UNL     1      -4.086  -0.697  -2.128  0.00  0.00    +0.000 A 
ATOM     16  C   UNL     1      -3.017  -1.290  -1.482  0.00  0.00    +0.002 A 
ATOM     17  C   UNL     1      -1.960  -0.518  -1.042  0.00  0.00    +0.023 A 
ENDBRANCH  10  12
ENDBRANCH   1   8
BRANCH   1  18
ATOM     18  O   UNL     1       2.764   1.366  -0.790  0.00  0.00    -0.443 OA
BRANCH  18  19
ATOM     19  C   UNL     1       3.825   2.131  -1.113  0.00  0.00    +0.342 C 
ATOM     20  O   UNL     1       3.711   3.340  -1.155  0.00  0.00    -0.245 OA
BRANCH  19  21
ATOM     21  C   UNL     1       5.126   1.500  -1.418  0.00  0.00    +0.089 A 
ATOM     22  C   UNL     1       5.218   0.532  -2.420  0.00  0.00    +0.017 A 
ATOM     23  C   UNL     1       6.437  -0.049  -2.702  0.00  0.00    +0.001 A 
ATOM     24  C   UNL     1       7.564   0.318  -1.988  0.00  0.00    +0.002 A 
ATOM     25  C   UNL     1       7.478   1.273  -0.990  0.00  0.00    +0.033 A 
ATOM     26  C   UNL     1       6.267   1.866  -0.701  0.00  0.00    +0.140 A 
BRANCH  26  27
ATOM     27  N   UNL     1       6.177   2.886   0.367  0.00  0.00    +0.057 N 
ATOM     28  O   UNL     1       7.189   3.288   0.913  0.00  0.00    -0.126 OA
ATOM     29  O   UNL     1       5.090   3.325   0.701  0.00  0.00    -0.126 OA
ENDBRANCH  26  27
ENDBRANCH  19  21
ENDBRANCH  18  19
ENDBRANCH   1  18
TORSDOF 7
