REMARK  Name = ZINC20168043
REMARK  11 active torsions:
REMARK  status: ('A' for Active; 'I' for Inactive)
REMARK    1  A    between atoms: C_1  and  C_2
REMARK    2  A    between atoms: C_2  and  O_3
REMARK    3  A    between atoms: O_3  and  C_4
REMARK    4  A    between atoms: C_4  and  C_6
REMARK    5  A    between atoms: C_7  and  C_34
REMARK    6  A    between atoms: C_8  and  C_31
REMARK    7  A    between atoms: C_10  and  N_11
REMARK    8  A    between atoms: C_12  and  C_14
REMARK    9  A    between atoms: C_14  and  N_15
REMARK   10  A    between atoms: N_18  and  S_21
REMARK   11  A    between atoms: S_21  and  C_24
REMARK                            x       y       z     vdW  Elec       q    Type
REMARK                         _______ _______ _______ _____ _____    ______ ____
ROOT
ATOM      1  N   UNL     1      -1.203   3.134   4.865  0.00  0.00    -0.281 N 
ATOM      2  C   UNL     1      -0.789   2.876   3.608  0.00  0.00    +0.201 C 
ATOM      3  O   UNL     1       0.102   2.076   3.416  0.00  0.00    -0.278 OA
ATOM      4  H   UNL     1      -2.012   3.858   5.039  0.00  0.00    +0.155 HD
ENDROOT
BRANCH   1   9
ATOM      5  C   UNL     1      -0.898   2.617   7.296  0.00  0.00    +0.091 A 
ATOM      6  C   UNL     1      -0.158   1.852   8.186  0.00  0.00    -0.015 A 
ATOM      7  C   UNL     1       0.799   1.023   7.668  0.00  0.00    +0.079 A 
ATOM      8  S   UNL     1       0.661   1.311   5.914  0.00  0.00    -0.068 S 
ATOM      9  C   UNL     1      -0.612   2.488   5.933  0.00  0.00    +0.087 A 
ATOM     10  C   UNL     1      -0.401   1.931   9.671  0.00  0.00    +0.046 C 
BRANCH   7  11
ATOM     11  C   UNL     1       1.707   0.119   8.377  0.00  0.00    +0.248 C 
ATOM     12  O   UNL     1       1.663   0.042   9.591  0.00  0.00    -0.270 OA
ATOM     13  N   UNL     1       2.592  -0.626   7.686  0.00  0.00    -0.325 N 
ATOM     14  H   UNL     1       3.274  -1.305   8.218  0.00  0.00    +0.145 HD
ATOM     15  H   UNL     1       2.632  -0.556   6.589  0.00  0.00    +0.145 HD
ENDBRANCH   7  11
BRANCH   5  16
ATOM     16  C   UNL     1      -1.943   3.532   7.769  0.00  0.00    +0.342 C 
ATOM     17  O   UNL     1      -3.087   3.138   7.890  0.00  0.00    -0.245 OA
BRANCH  16  18
ATOM     18  O   UNL     1      -1.635   4.810   8.069  0.00  0.00    -0.461 OA
BRANCH  18  20
ATOM     19  C   UNL     1      -2.181   7.061   8.820  0.00  0.00    +0.048 C 
ATOM     20  C   UNL     1      -2.719   5.658   8.531  0.00  0.00    +0.229 C 
ENDBRANCH  18  20
ENDBRANCH  16  18
ENDBRANCH   5  16
ENDBRANCH   1   9
BRANCH   2  21
ATOM     21  C   UNL     1      -1.434   3.580   2.443  0.00  0.00    +0.019 C 
BRANCH  21  22
ATOM     22  N   UNL     1      -0.721   3.234   1.206  0.00  0.00    +0.387 N 
ATOM     23  C   UNL     1       0.691   3.633   1.284  0.00  0.00    -0.061 C 
ATOM     24  C   UNL     1       1.354   3.418  -0.081  0.00  0.00    +0.091 C 
ATOM     25  N   UNL     1       1.119   2.030  -0.506  0.00  0.00    -0.180 NA
ATOM     26  C   UNL     1      -0.260   1.518  -0.480  0.00  0.00    +0.091 C 
ATOM     27  C   UNL     1      -0.859   1.804   0.901  0.00  0.00    -0.061 C 
ATOM     28  H   UNL     1      -1.181   3.795   0.379  0.00  0.00    -0.081 HD
BRANCH  25  29
ATOM     29  S   UNL     1       2.372   1.068  -1.001  0.00  0.00    +0.061 S 
ATOM     30  O   UNL     1       1.810   0.066  -1.837  0.00  0.00    -0.153 OA
ATOM     31  O   UNL     1       3.403   1.940  -1.444  0.00  0.00    -0.153 OA
BRANCH  29  32
ATOM     32  C   UNL     1       2.991   0.242   0.428  0.00  0.00    +0.106 A 
ATOM     33  C   UNL     1       4.003   0.817   1.173  0.00  0.00    +0.031 A 
ATOM     34  C   UNL     1       4.486   0.173   2.297  0.00  0.00    +0.040 A 
ATOM     35  C   UNL     1       3.963  -1.054   2.669  0.00  0.00    +0.124 A 
ATOM     36  C   UNL     1       2.953  -1.631   1.919  0.00  0.00    +0.040 A 
ATOM     37  C   UNL     1       2.468  -0.982   0.799  0.00  0.00    +0.031 A 
ATOM     38  F   UNL     1       4.437  -1.687   3.764  0.00  0.00    -0.205 F 
ENDBRANCH  29  32
ENDBRANCH  25  29
ENDBRANCH  21  22
ENDBRANCH   2  21
TORSDOF 9
