REMARK  Name = ZINC05758124
REMARK  16 active torsions:
REMARK  status: ('A' for Active; 'I' for Inactive)
REMARK    1  A    between atoms: C_1  and  C_2
REMARK    2  A    between atoms: C_2  and  C_3
REMARK    3  A    between atoms: C_2  and  C_4
REMARK    4  A    between atoms: C_4  and  C_6
REMARK    5  A    between atoms: C_4  and  N_25
REMARK    6  A    between atoms: N_8  and  N_9
REMARK    7  A    between atoms: C_10  and  C_12
REMARK    8  A    between atoms: C_12  and  C_14
REMARK    9  A    between atoms: C_12  and  N_64
REMARK   10  A    between atoms: C_14  and  C_15
REMARK   11  A    between atoms: C_18  and  O_21
REMARK   12  A    between atoms: O_21  and  C_22
REMARK   13  A    between atoms: C_22  and  C_24
REMARK   14  A    between atoms: C_26  and  O_28
REMARK   15  A    between atoms: O_28  and  C_29
REMARK   16  A    between atoms: C_29  and  C_30
REMARK                            x       y       z     vdW  Elec       q    Type
REMARK                         _______ _______ _______ _____ _____    ______ ____
ROOT
ATOM      1  C   UNL     1      -0.979   1.887   6.039  0.00  0.00    +0.250 C 
ATOM      2  O   UNL     1      -2.027   2.483   5.902  0.00  0.00    -0.272 OA
ATOM      3  N   UNL     1      -0.663   1.345   7.232  0.00  0.00    -0.233 N 
ATOM      4  H   UNL     1       0.205   0.932   7.362  0.00  0.00    +0.173 HD
ENDROOT
BRANCH   3   5
ATOM      5  N   UNL     1      -1.588   1.378   8.284  0.00  0.00    -0.236 N 
ATOM      6  C   UNL     1      -1.272   0.836   9.476  0.00  0.00    +0.215 C 
ATOM      7  O   UNL     1      -0.187   0.320   9.639  0.00  0.00    -0.276 OA
ATOM      8  H   UNL     1      -2.456   1.791   8.153  0.00  0.00    +0.173 HD
BRANCH   6   9
ATOM      9  C   UNL     1      -2.267   0.872  10.608  0.00  0.00    +0.019 C 
BRANCH   9  12
ATOM     10  H   UNL     1      -0.995   0.004  11.975  0.00  0.00    -0.089 HD
ATOM     11  H   UNL     1      -2.607  -0.195  12.335  0.00  0.00    -0.089 HD
ATOM     12  N   UNL     1      -1.919  -0.175  11.584  0.00  0.00    +0.386 N 
ATOM     13  H   UNL     1      -1.912  -1.088  11.113  0.00  0.00    -0.089 HD
ENDBRANCH   9  12
BRANCH   9  14
ATOM     14  C   UNL     1      -2.237   2.251  11.270  0.00  0.00    +0.028 C 
BRANCH  14  15
ATOM     15  C   UNL     1      -3.316   2.327  12.319  0.00  0.00    -0.048 A 
ATOM     16  C   UNL     1      -4.578   2.779  11.980  0.00  0.00    +0.007 A 
ATOM     17  C   UNL     1      -5.570   2.844  12.939  0.00  0.00    +0.046 A 
ATOM     18  C   UNL     1      -5.296   2.468  14.246  0.00  0.00    +0.132 A 
ATOM     19  C   UNL     1      -4.027   2.021  14.585  0.00  0.00    +0.046 A 
ATOM     20  C   UNL     1      -3.040   1.952  13.621  0.00  0.00    +0.007 A 
BRANCH  18  21
ATOM     21  O   UNL     1      -6.269   2.536  15.192  0.00  0.00    -0.426 OA
BRANCH  21  22
ATOM     22  C   UNL     1      -6.164   3.515  16.105  0.00  0.00    +0.309 C 
ATOM     23  O   UNL     1      -5.281   4.334  16.014  0.00  0.00    -0.251 OA
ATOM     24  C   UNL     1      -7.148   3.592  17.244  0.00  0.00    +0.136 C 
ENDBRANCH  21  22
ENDBRANCH  18  21
ENDBRANCH  14  15
ENDBRANCH   9  14
ENDBRANCH   6   9
ENDBRANCH   3   5
BRANCH   1  25
ATOM     25  C   UNL     1      -0.031   1.754   4.875  0.00  0.00    +0.166 C 
BRANCH  25  26
ATOM     26  N   UNL     1      -0.793   1.739   3.624  0.00  0.00    -0.270 N 
ATOM     27  C   UNL     1      -0.278   1.145   2.529  0.00  0.00    +0.401 C 
ATOM     28  O   UNL     1       0.817   0.622   2.579  0.00  0.00    -0.226 OA
ATOM     29  H   UNL     1      -1.667   2.157   3.584  0.00  0.00    +0.153 HD
BRANCH  27  30
ATOM     30  O   UNL     1      -0.978   1.132   1.379  0.00  0.00    -0.446 OA
BRANCH  30  31
ATOM     31  C   UNL     1      -0.362   0.475   0.240  0.00  0.00    +0.269 C 
BRANCH  31  32
ATOM     32  C   UNL     1      -1.285   0.559  -0.948  0.00  0.00    -0.010 A 
ATOM     33  C   UNL     1      -2.214  -0.439  -1.175  0.00  0.00    +0.007 A 
ATOM     34  C   UNL     1      -3.064  -0.359  -2.262  0.00  0.00    +0.000 A 
ATOM     35  C   UNL     1      -2.978   0.714  -3.129  0.00  0.00    +0.000 A 
ATOM     36  C   UNL     1      -2.046   1.710  -2.905  0.00  0.00    +0.000 A 
ATOM     37  C   UNL     1      -1.199   1.633  -1.815  0.00  0.00    +0.007 A 
ENDBRANCH  31  32
ENDBRANCH  30  31
ENDBRANCH  27  30
ENDBRANCH  25  26
BRANCH  25  39
ATOM     38  C   UNL     1       1.772   2.921   6.152  0.00  0.00    +0.009 C 
ATOM     39  C   UNL     1       0.939   2.937   4.869  0.00  0.00    +0.012 C 
ATOM     40  C   UNL     1       1.866   2.830   3.657  0.00  0.00    +0.009 C 
ENDBRANCH  25  39
ENDBRANCH   1  25
TORSDOF 13
