REMARK  Name = ZINC20973188
REMARK  10 active torsions:
REMARK  status: ('A' for Active; 'I' for Inactive)
REMARK    1  A    between atoms: C_1  and  C_2
REMARK    2  A    between atoms: C_2  and  O_3
REMARK    3  A    between atoms: O_3  and  C_4
REMARK    4  A    between atoms: C_7  and  N_10
REMARK    5  A    between atoms: C_12  and  C_17
REMARK    6  A    between atoms: C_17  and  O_19
REMARK    7  A    between atoms: O_19  and  C_20
REMARK    8  A    between atoms: C_20  and  C_21
REMARK    9  A    between atoms: N_23  and  C_24
REMARK   10  A    between atoms: C_25  and  C_33
REMARK                            x       y       z     vdW  Elec       q    Type
REMARK                         _______ _______ _______ _____ _____    ______ ____
ROOT
ATOM      1  C   UNL     1       3.347   5.820   0.905  0.00  0.00    +0.328 C 
ENDROOT
BRANCH   1   2
ATOM      2  C   UNL     1       4.826   5.838   0.616  0.00  0.00    +0.255 C 
ATOM      3  O   UNL     1       5.306   5.017  -0.137  0.00  0.00    -0.272 OA
ATOM      4  N   UNL     1       5.615   6.765   1.194  0.00  0.00    -0.277 N 
ATOM      5  H   UNL     1       5.179   7.509   1.876  0.00  0.00    +0.155 HD
BRANCH   4   6
ATOM      6  C   UNL     1       6.976   6.781   0.927  0.00  0.00    +0.084 A 
ATOM      7  C   UNL     1       7.940   7.651   1.416  0.00  0.00    +0.068 A 
ATOM      8  C   UNL     1       9.311   7.448   0.980  0.00  0.00    -0.023 A 
ATOM      9  C   UNL     1       9.495   6.421   0.122  0.00  0.00    -0.004 A 
ATOM     10  S   UNL     1       7.883   5.724  -0.103  0.00  0.00    -0.077 S 
ATOM     11  C   UNL     1      10.787   5.981  -0.496  0.00  0.00    +0.043 C 
ATOM     12  C   UNL     1      11.820   7.102  -0.306  0.00  0.00    +0.005 C 
ATOM     13  C   UNL     1      11.784   7.563   1.153  0.00  0.00    +0.005 C 
ATOM     14  C   UNL     1      10.481   8.314   1.431  0.00  0.00    +0.037 C 
BRANCH   7  15
ATOM     15  C   UNL     1       7.588   8.733   2.341  0.00  0.00    +0.244 C 
ATOM     16  O   UNL     1       7.611   8.537   3.543  0.00  0.00    -0.270 OA
ATOM     17  N   UNL     1       7.241   9.944   1.862  0.00  0.00    -0.325 N 
ATOM     18  H   UNL     1       6.978  10.755   2.556  0.00  0.00    +0.145 HD
ATOM     19  H   UNL     1       7.221  10.120   0.776  0.00  0.00    +0.145 HD
ENDBRANCH   7  15
ENDBRANCH   4   6
ENDBRANCH   1   2
BRANCH   1  20
ATOM     20  O   UNL     1       2.722   4.736   0.168  0.00  0.00    -0.455 OA
BRANCH  20  21
ATOM     21  C   UNL     1       1.397   4.582   0.317  0.00  0.00    +0.313 C 
ATOM     22  O   UNL     1       0.780   5.329   1.039  0.00  0.00    -0.250 OA
BRANCH  21  25
ATOM     23  N   UNL     1      -1.127   1.964   0.018  0.00  0.00    -0.271 N 
ATOM     24  C   UNL     1      -0.800   3.394   0.020  0.00  0.00    +0.128 C 
ATOM     25  C   UNL     1       0.680   3.478  -0.416  0.00  0.00    +0.124 C 
ATOM     26  C   UNL     1       1.214   2.092   0.012  0.00  0.00    +0.112 C 
ATOM     27  C   UNL     1      -0.014   1.209   0.024  0.00  0.00    +0.221 C 
ATOM     28  O   UNL     1       0.002  -0.004   0.032  0.00  0.00    -0.275 OA
BRANCH  23  32
ATOM     29  C   UNL     1      -5.007   0.436   0.004  0.00  0.00    +0.121 A 
ATOM     30  C   UNL     1      -3.923  -0.422  -0.112  0.00  0.00    +0.047 A 
ATOM     31  C   UNL     1      -2.638   0.083  -0.107  0.00  0.00    +0.027 A 
ATOM     32  C   UNL     1      -2.430   1.450   0.012  0.00  0.00    +0.036 A 
ATOM     33  C   UNL     1      -3.515   2.309   0.133  0.00  0.00    +0.027 A 
ATOM     34  C   UNL     1      -4.800   1.803   0.124  0.00  0.00    +0.047 A 
BRANCH  29  35
ATOM     35  O   UNL     1      -6.272  -0.062  -0.000  0.00  0.00    -0.492 OA
BRANCH  35  37
ATOM     36  C   UNL     1      -8.678   0.138   0.099  0.00  0.00    +0.048 C 
ATOM     37  C   UNL     1      -7.340   0.879   0.123  0.00  0.00    +0.225 C 
ENDBRANCH  35  37
ENDBRANCH  29  35
ENDBRANCH  23  32
ENDBRANCH  21  25
ENDBRANCH  20  21
ENDBRANCH   1  20
TORSDOF 9
