REMARK  Name = ZINC01436379
REMARK  8 active torsions:
REMARK  status: ('A' for Active; 'I' for Inactive)
REMARK    1  A    between atoms: C_1  and  C_2
REMARK    2  A    between atoms: C_6  and  C_7
REMARK    3  A    between atoms: C_9  and  C_31
REMARK    4  A    between atoms: C_10  and  N_30
REMARK    5  A    between atoms: N_11  and  C_21
REMARK    6  A    between atoms: C_17  and  C_19
REMARK    7  A    between atoms: C_17  and  C_20
REMARK    8  A    between atoms: C_25  and  N_27
REMARK                            x       y       z     vdW  Elec       q    Type
REMARK                         _______ _______ _______ _____ _____    ______ ____
ROOT
ATOM      1  C   UNL     1      -0.035   7.949  -0.780  0.00  0.00    +0.104 C 
ATOM      2  C   UNL     1      -1.296   7.216  -0.430  0.00  0.00    +0.077 C 
ATOM      3  C   UNL     1      -1.270   5.910  -0.061  0.00  0.00    +0.107 C 
ATOM      4  N   UNL     1      -0.071   5.236   0.008  0.00  0.00    -0.260 N 
ATOM      5  C   UNL     1       1.109   5.925   0.110  0.00  0.00    +0.025 C 
ATOM      6  C   UNL     1       1.180   7.223  -0.260  0.00  0.00    +0.026 C 
ATOM      7  C   UNL     1       2.388   7.936  -0.167  0.00  0.00    +0.162 C 
ATOM      8  O   UNL     1       2.414   9.108  -0.489  0.00  0.00    -0.292 OA
ATOM      9  C   UNL     1       3.647   7.277   0.325  0.00  0.00    +0.086 C 
ATOM     10  C   UNL     1       3.587   5.781  -0.002  0.00  0.00    -0.023 C 
ATOM     11  C   UNL     1       2.322   5.198   0.632  0.00  0.00    +0.058 C 
ATOM     12  C   UNL     1       3.538   5.587  -1.519  0.00  0.00    +0.011 C 
ATOM     13  C   UNL     1       4.822   5.080   0.567  0.00  0.00    +0.011 C 
ENDROOT
BRANCH   1  19
ATOM     14  C   UNL     1       0.089  10.553  -2.405  0.00  0.00    +0.044 C 
ATOM     15  C   UNL     1       0.124   9.188  -3.043  0.00  0.00    -0.039 A 
ATOM     16  C   UNL     1       0.220   9.058  -4.416  0.00  0.00    +0.011 A 
ATOM     17  C   UNL     1       0.242   7.816  -4.958  0.00  0.00    +0.046 A 
ATOM     18  S   UNL     1       0.134   6.778  -3.509  0.00  0.00    -0.100 S 
ATOM     19  C   UNL     1       0.067   8.070  -2.279  0.00  0.00    +0.005 A 
ENDBRANCH   1  19
BRANCH   4  20
ATOM     20  C   UNL     1      -0.058   3.836  -0.022  0.00  0.00    +0.042 A 
ATOM     21  C   UNL     1      -0.143   3.114   1.162  0.00  0.00    +0.024 A 
ATOM     22  C   UNL     1      -0.131   1.734   1.129  0.00  0.00    +0.004 A 
ATOM     23  C   UNL     1      -0.033   1.070  -0.080  0.00  0.00    +0.033 A 
ATOM     24  C   UNL     1       0.057   1.786  -1.260  0.00  0.00    +0.128 A 
ATOM     25  C   UNL     1       0.039   3.167  -1.234  0.00  0.00    +0.056 A 
BRANCH  24  26
ATOM     26  N   UNL     1       0.168   1.072  -2.551  0.00  0.00    +0.056 N 
ATOM     27  O   UNL     1       0.179  -0.146  -2.575  0.00  0.00    -0.126 OA
ATOM     28  O   UNL     1       0.247   1.702  -3.591  0.00  0.00    -0.126 OA
ENDBRANCH  24  26
ENDBRANCH   4  20
BRANCH   3  29
ATOM     29  N   UNL     1      -2.441   5.259   0.246  0.00  0.00    -0.345 N 
ATOM     30  H   UNL     1      -2.416   4.354   0.595  0.00  0.00    +0.144 HD
ATOM     31  H   UNL     1      -3.292   5.705   0.114  0.00  0.00    +0.144 HD
ENDBRANCH   3  29
BRANCH   2  32
ATOM     32  C   UNL     1      -2.550   7.906  -0.487  0.00  0.00    +0.099 C 
ATOM     33  N   UNL     1      -3.544   8.454  -0.532  0.00  0.00    -0.191 NA
ENDBRANCH   2  32
TORSDOF 5
