REMARK  Name = ZINC02632421
REMARK  7 active torsions:
REMARK  status: ('A' for Active; 'I' for Inactive)
REMARK    1  A    between atoms: C_1  and  C_2
REMARK    2  A    between atoms: C_2  and  C_20
REMARK    3  A    between atoms: N_5  and  N_9
REMARK    4  A    between atoms: C_10  and  C_11
REMARK    5  A    between atoms: C_16  and  N_17
REMARK    6  A    between atoms: C_23  and  O_26
REMARK    7  A    between atoms: O_26  and  C_27
REMARK                            x       y       z     vdW  Elec       q    Type
REMARK                         _______ _______ _______ _____ _____    ______ ____
ROOT
ATOM      1  C   UNL     1       0.012   0.936  -0.070  0.00  0.00    +0.047 C 
ATOM      2  C   UNL     1      -0.679   1.442   1.198  0.00  0.00    +0.137 C 
ATOM      3  C   UNL     1      -2.075   0.861   1.312  0.00  0.00    +0.271 C 
ATOM      4  O   UNL     1      -2.997   1.012   0.539  0.00  0.00    -0.271 OA
ATOM      5  N   UNL     1      -2.077   0.142   2.452  0.00  0.00    -0.109 N 
ATOM      6  C   UNL     1      -0.890   0.188   3.067  0.00  0.00    +0.330 C 
ATOM      7  O   UNL     1      -0.648  -0.383   4.113  0.00  0.00    -0.250 OA
ATOM      8  N   UNL     1       0.006   0.936   2.399  0.00  0.00    -0.280 N 
ATOM      9  H   UNL     1       0.925   1.108   2.658  0.00  0.00    +0.152 HD
ENDROOT
BRANCH   2  10
ATOM     10  C   UNL     1      -0.726   2.948   1.209  0.00  0.00    -0.015 A 
ATOM     11  C   UNL     1      -1.808   3.609   0.657  0.00  0.00    +0.010 A 
ATOM     12  C   UNL     1      -1.857   4.989   0.672  0.00  0.00    +0.046 A 
ATOM     13  C   UNL     1      -0.813   5.713   1.230  0.00  0.00    +0.127 A 
ATOM     14  C   UNL     1       0.275   5.048   1.778  0.00  0.00    +0.046 A 
ATOM     15  C   UNL     1       0.315   3.667   1.766  0.00  0.00    +0.010 A 
BRANCH  13  16
ATOM     16  O   UNL     1      -0.855   7.071   1.240  0.00  0.00    -0.434 OA
BRANCH  16  17
ATOM     17  C   UNL     1      -2.005   7.689   0.659  0.00  0.00    +0.541 C 
ATOM     18  F   UNL     1      -2.102   7.320  -0.687  0.00  0.00    -0.166 F 
ATOM     19  F   UNL     1      -3.154   7.271   1.341  0.00  0.00    -0.166 F 
ENDBRANCH  16  17
ENDBRANCH  13  16
ENDBRANCH   2  10
BRANCH   5  20
ATOM     20  N   UNL     1      -3.186  -0.567   2.933  0.00  0.00    -0.176 NA
ATOM     21  C   UNL     1      -4.330  -0.468   2.330  0.00  0.00    +0.141 C 
BRANCH  21  22
ATOM     22  C   UNL     1      -5.523  -1.122   2.900  0.00  0.00    +0.025 A 
ATOM     23  C   UNL     1      -5.452  -1.746   4.148  0.00  0.00    +0.012 A 
ATOM     24  C   UNL     1      -6.572  -2.356   4.674  0.00  0.00    +0.001 A 
ATOM     25  C   UNL     1      -7.763  -2.350   3.970  0.00  0.00    +0.002 A 
ATOM     26  C   UNL     1      -7.840  -1.734   2.734  0.00  0.00    +0.033 A 
ATOM     27  C   UNL     1      -6.730  -1.115   2.197  0.00  0.00    +0.135 A 
BRANCH  27  28
ATOM     28  N   UNL     1      -6.816  -0.451   0.877  0.00  0.00    +0.057 N 
ATOM     29  O   UNL     1      -7.833  -0.545   0.213  0.00  0.00    -0.126 OA
ATOM     30  O   UNL     1      -5.870   0.189   0.455  0.00  0.00    -0.126 OA
ENDBRANCH  27  28
ENDBRANCH  21  22
ENDBRANCH   5  20
TORSDOF 6
