REMARK  Name = ZINC52620352
REMARK  6 active torsions:
REMARK  status: ('A' for Active; 'I' for Inactive)
REMARK    1  A    between atoms: C_1  and  C_2
REMARK    2  A    between atoms: C_4  and  O_9
REMARK    3  A    between atoms: O_9  and  C_10
REMARK    4  A    between atoms: C_10  and  C_12
REMARK    5  A    between atoms: C_10  and  C_13
REMARK    6  A    between atoms: C_13  and  N_15
REMARK                            x       y       z     vdW  Elec       q    Type
REMARK                         _______ _______ _______ _____ _____    ______ ____
ROOT
ATOM      1  C   UNL     1       0.964  -4.656  -3.498  0.00  0.00    +0.280 C 
ATOM      2  O   UNL     1       1.386  -3.860  -4.316  0.00  0.00    -0.270 OA
ENDROOT
BRANCH   1   3
ATOM      3  N   UNL     1       1.212  -5.950  -3.643  0.00  0.00    -0.142 NA
ATOM      4  C   UNL     1       1.927  -6.380  -4.687  0.00  0.00    +0.223 A 
ATOM      5  N   UNL     1       2.457  -5.612  -5.658  0.00  0.00    -0.246 N 
ATOM      6  N   UNL     1       3.124  -6.459  -6.554  0.00  0.00    -0.153 NA
ATOM      7  C   UNL     1       2.993  -7.694  -6.125  0.00  0.00    +0.160 A 
ATOM      8  N   UNL     1       2.256  -7.675  -4.958  0.00  0.00    -0.271 N 
ATOM      9  C   UNL     1       1.980  -8.848  -4.300  0.00  0.00    +0.096 A 
ATOM     10  C   UNL     1       2.425 -10.024  -4.778  0.00  0.00    +0.018 A 
ATOM     11  C   UNL     1       3.184 -10.074  -5.965  0.00  0.00    +0.005 A 
ATOM     12  C   UNL     1       3.461  -8.930  -6.637  0.00  0.00    +0.048 A 
ATOM     13  H   UNL     1       2.388  -4.647  -5.726  0.00  0.00    +0.192 HD
ENDBRANCH   1   3
BRANCH   1  14
ATOM     14  C   UNL     1       0.158  -4.171  -2.320  0.00  0.00    +0.258 C 
ATOM     15  C   UNL     1      -1.230  -4.812  -2.353  0.00  0.00    +0.062 C 
BRANCH  14  16
ATOM     16  O   UNL     1       0.028  -2.749  -2.386  0.00  0.00    -0.480 OA
BRANCH  16  20
ATOM     17  C   UNL     1      -0.819  -2.925   2.418  0.00  0.00    +0.045 C 
ATOM     18  C   UNL     1      -0.605  -2.146   1.146  0.00  0.00    -0.029 A 
ATOM     19  C   UNL     1      -0.385  -2.813  -0.044  0.00  0.00    +0.050 A 
ATOM     20  C   UNL     1      -0.189  -2.095  -1.214  0.00  0.00    +0.122 A 
ATOM     21  C   UNL     1      -0.214  -0.708  -1.188  0.00  0.00    +0.047 A 
ATOM     22  C   UNL     1      -0.434  -0.045   0.004  0.00  0.00    +0.024 A 
ATOM     23  C   UNL     1      -0.635  -0.763   1.169  0.00  0.00    +0.044 A 
ATOM     24 CL   UNL     1      -0.918   0.073   2.664  0.00  0.00    -0.083 Cl
ENDBRANCH  16  20
ENDBRANCH  14  16
ENDBRANCH   1  14
TORSDOF 4
