REMARK  Name = ZINC00845137
REMARK  11 active torsions:
REMARK  status: ('A' for Active; 'I' for Inactive)
REMARK    1  A    between atoms: C_1  and  C_2
REMARK    2  A    between atoms: C_2  and  O_3
REMARK    3  A    between atoms: O_3  and  C_4
REMARK    4  A    between atoms: C_4  and  C_6
REMARK    5  A    between atoms: C_10  and  N_11
REMARK    6  A    between atoms: C_12  and  C_14
REMARK    7  A    between atoms: C_14  and  N_15
REMARK    8  A    between atoms: C_16  and  C_24
REMARK    9  A    between atoms: C_17  and  N_21
REMARK   10  A    between atoms: C_18  and  C_20
REMARK   11  A    between atoms: C_26  and  C_30
REMARK                            x       y       z     vdW  Elec       q    Type
REMARK                         _______ _______ _______ _____ _____    ______ ____
ROOT
ATOM      1  C   UNL     1       1.258  -4.096  -0.085  0.00  0.00    +0.091 A 
ATOM      2  C   UNL     1       0.941  -2.684   0.053  0.00  0.00    -0.021 A 
ATOM      3  C   UNL     1       1.008  -1.966  -1.089  0.00  0.00    -0.004 A 
ATOM      4  S   UNL     1       1.484  -3.133  -2.332  0.00  0.00    -0.077 S 
ATOM      5  C   UNL     1       1.592  -4.558  -1.351  0.00  0.00    +0.086 A 
ATOM      6  C   UNL     1       0.736  -0.502  -1.252  0.00  0.00    +0.046 C 
ATOM      7  C   UNL     1       0.002  -0.004   0.002  0.00  0.00    -0.009 C 
ATOM      8  C   UNL     1       0.742  -0.514   1.242  0.00  0.00    +0.008 C 
ATOM      9  C   UNL     1       0.557  -2.027   1.373  0.00  0.00    +0.037 C 
ATOM     10  C   UNL     1      -0.019   1.526   0.010  0.00  0.00    +0.008 C 
ENDROOT
BRANCH   5  11
ATOM     11  N   UNL     1       1.930  -5.845  -1.738  0.00  0.00    -0.278 N 
ATOM     12  C   UNL     1       2.227  -6.106  -3.026  0.00  0.00    +0.239 C 
ATOM     13  O   UNL     1       2.199  -5.214  -3.848  0.00  0.00    -0.273 OA
ATOM     14  H   UNL     1       1.953  -6.558  -1.081  0.00  0.00    +0.155 HD
BRANCH  12  15
ATOM     15  C   UNL     1       2.594  -7.506  -3.446  0.00  0.00    +0.239 C 
BRANCH  15  16
ATOM     16  N   UNL     1       2.871  -7.528  -4.885  0.00  0.00    -0.257 N 
ATOM     17  C   UNL     1       4.071  -7.324  -5.466  0.00  0.00    +0.067 A 
ATOM     18  C   UNL     1       3.905  -7.427  -6.804  0.00  0.00    +0.169 A 
ATOM     19  C   UNL     1       2.556  -7.705  -7.050  0.00  0.00    +0.090 A 
ATOM     20  N   UNL     1       1.936  -7.771  -5.899  0.00  0.00    -0.173 NA
ATOM     21  C   UNL     1       1.926  -7.900  -8.405  0.00  0.00    +0.070 C 
ATOM     22  C   UNL     1       5.366  -7.032  -4.752  0.00  0.00    +0.068 C 
BRANCH  18  23
ATOM     23  N   UNL     1       4.963  -7.275  -7.828  0.00  0.00    +0.060 N 
ATOM     24  O   UNL     1       5.600  -8.246  -8.195  0.00  0.00    -0.126 OA
ATOM     25  O   UNL     1       5.196  -6.178  -8.304  0.00  0.00    -0.126 OA
ENDBRANCH  18  23
ENDBRANCH  15  16
ENDBRANCH  12  15
ENDBRANCH   5  11
BRANCH   1  26
ATOM     26  C   UNL     1       1.226  -4.998   1.068  0.00  0.00    +0.342 C 
ATOM     27  O   UNL     1       0.198  -5.582   1.355  0.00  0.00    -0.245 OA
BRANCH  26  28
ATOM     28  O   UNL     1       2.336  -5.182   1.812  0.00  0.00    -0.461 OA
BRANCH  28  30
ATOM     29  C   UNL     1       3.579  -6.170   3.658  0.00  0.00    +0.048 C 
ATOM     30  C   UNL     1       2.231  -6.090   2.940  0.00  0.00    +0.229 C 
ENDBRANCH  28  30
ENDBRANCH  26  28
ENDBRANCH   1  26
TORSDOF 7
