REMARK  Name = ZINC46479318
REMARK  6 active torsions:
REMARK  status: ('A' for Active; 'I' for Inactive)
REMARK    1  A    between atoms: C_1  and  C_2
REMARK    2  A    between atoms: N_8  and  C_9
REMARK    3  A    between atoms: C_12  and  S_18
REMARK    4  A    between atoms: C_14  and  N_15
REMARK    5  A    between atoms: S_18  and  N_21
REMARK    6  A    between atoms: N_21  and  C_22
REMARK                            x       y       z     vdW  Elec       q    Type
REMARK                         _______ _______ _______ _____ _____    ______ ____
ROOT
ATOM      1  C   UNL     1       3.951  -1.159   2.888  0.00  0.00    +0.061 A 
ATOM      2  C   UNL     1       2.617  -0.928   3.197  0.00  0.00    +0.027 A 
ATOM      3  C   UNL     1       2.257   0.214   3.885  0.00  0.00    +0.031 A 
ATOM      4  C   UNL     1       3.223   1.127   4.267  0.00  0.00    +0.111 A 
ATOM      5  C   UNL     1       4.552   0.900   3.960  0.00  0.00    +0.063 A 
ATOM      6  C   UNL     1       4.920  -0.243   3.277  0.00  0.00    +0.149 A 
ENDROOT
BRANCH   1  13
ATOM      7  C   UNL     1       4.228  -0.899   0.188  0.00  0.00    +0.030 C 
ATOM      8  C   UNL     1       4.376  -2.325   0.722  0.00  0.00    +0.096 C 
ATOM      9  C   UNL     1       5.733  -2.897   0.295  0.00  0.00    +0.182 C 
ATOM     10  O   UNL     1       5.942  -4.151   0.949  0.00  0.00    -0.376 OA
ATOM     11  C   UNL     1       6.004  -4.065   2.374  0.00  0.00    +0.178 C 
ATOM     12  C   UNL     1       4.661  -3.553   2.908  0.00  0.00    +0.133 C 
ATOM     13  N   UNL     1       4.319  -2.313   2.192  0.00  0.00    -0.321 N 
ENDBRANCH   1  13
BRANCH   6  14
ATOM     14  N   UNL     1       6.343  -0.488   2.954  0.00  0.00    +0.058 N 
ATOM     15  O   UNL     1       7.186   0.310   3.293  0.00  0.00    -0.126 OA
ATOM     16  O   UNL     1       6.664  -1.486   2.352  0.00  0.00    -0.126 OA
ENDBRANCH   6  14
BRANCH   4  17
ATOM     17  S   UNL     1       2.760   2.582   5.145  0.00  0.00    +0.072 S 
ATOM     18  O   UNL     1       3.713   3.581   4.808  0.00  0.00    -0.150 OA
ATOM     19  O   UNL     1       1.365   2.757   4.933  0.00  0.00    -0.150 OA
BRANCH  17  20
ATOM     20  N   UNL     1       2.957   2.264   6.758  0.00  0.00    -0.216 N 
ATOM     21  H   UNL     1       3.598   2.774   7.278  0.00  0.00    +0.174 HD
BRANCH  20  22
ATOM     22  C   UNL     1       2.201   1.262   7.370  0.00  0.00    +0.048 A 
ATOM     23  C   UNL     1       0.860   1.480   7.658  0.00  0.00    +0.024 A 
ATOM     24  C   UNL     1       0.115   0.487   8.263  0.00  0.00    +0.002 A 
ATOM     25  C   UNL     1       0.703  -0.723   8.583  0.00  0.00    +0.000 A 
ATOM     26  C   UNL     1       2.038  -0.943   8.298  0.00  0.00    +0.002 A 
ATOM     27  C   UNL     1       2.788   0.044   7.688  0.00  0.00    +0.024 A 
ENDBRANCH  20  22
ENDBRANCH  17  20
ENDBRANCH   4  17
TORSDOF 5
