REMARK  Name = ZINC35057723
REMARK  12 active torsions:
REMARK  status: ('A' for Active; 'I' for Inactive)
REMARK    1  A    between atoms: C_1  and  C_2
REMARK    2  A    between atoms: N_4  and  C_5
REMARK    3  A    between atoms: C_7  and  O_38
REMARK    4  A    between atoms: C_15  and  C_18
REMARK    5  A    between atoms: C_25  and  O_27
REMARK    6  A    between atoms: O_27  and  C_28
REMARK    7  A    between atoms: C_31  and  C_34
REMARK    8  A    between atoms: C_34  and  C_35
REMARK    9  A    between atoms: C_34  and  C_36
REMARK   10  A    between atoms: C_34  and  C_37
REMARK   11  A    between atoms: O_38  and  C_39
REMARK   12  A    between atoms: C_39  and  C_40
REMARK                            x       y       z     vdW  Elec       q    Type
REMARK                         _______ _______ _______ _____ _____    ______ ____
ROOT
ATOM      1  C   UNL     1      -1.136  -2.159   0.001  0.00  0.00    +0.173 C 
ATOM      2  C   UNL     1      -2.445  -2.686  -0.595  0.00  0.00    +0.176 C 
ATOM      3  C   UNL     1      -2.451  -4.213  -0.527  0.00  0.00    +0.183 C 
ATOM      4  C   UNL     1      -2.242  -4.665   0.922  0.00  0.00    +0.179 C 
ATOM      5  C   UNL     1      -2.132  -6.195   0.946  0.00  0.00    +0.197 C 
ATOM      6  O   UNL     1      -1.095  -6.597   0.045  0.00  0.00    -0.345 OA
ATOM      7  C   UNL     1      -1.298  -6.164  -1.302  0.00  0.00    +0.282 C 
ATOM      8  O   UNL     1      -1.395  -4.737  -1.336  0.00  0.00    -0.339 OA
ATOM      9  O   UNL     1      -1.038  -4.089   1.433  0.00  0.00    -0.332 OA
ATOM     10  C   UNL     1      -0.994  -2.677   1.435  0.00  0.00    +0.331 C 
ENDROOT
BRANCH   7  11
ATOM     11  C   UNL     1      -0.137  -6.608  -2.153  0.00  0.00    +0.008 A 
ATOM     12  C   UNL     1       0.640  -5.670  -2.807  0.00  0.00    +0.008 A 
ATOM     13  C   UNL     1       1.705  -6.078  -3.588  0.00  0.00    +0.000 A 
ATOM     14  C   UNL     1       1.994  -7.423  -3.714  0.00  0.00    +0.000 A 
ATOM     15  C   UNL     1       1.218  -8.362  -3.059  0.00  0.00    +0.000 A 
ATOM     16  C   UNL     1       0.156  -7.954  -2.275  0.00  0.00    +0.008 A 
ENDBRANCH   7  11
BRANCH   1  20
ATOM     17  C   UNL     1      -0.018   1.503   0.010  0.00  0.00    +0.109 C 
ATOM     18  C   UNL     1       0.002  -0.004   0.002  0.00  0.00    +0.210 C 
ATOM     19  O   UNL     1       1.060  -0.596  -0.011  0.00  0.00    -0.276 OA
ATOM     20  N   UNL     1      -1.156  -0.694   0.009  0.00  0.00    -0.304 N 
ATOM     21  H   UNL     1      -2.002  -0.220   0.020  0.00  0.00    +0.149 HD
ENDBRANCH   1  20
BRANCH  10  22
ATOM     22  O   UNL     1      -2.074  -2.182   2.230  0.00  0.00    -0.462 OA
BRANCH  22  23
ATOM     23  C   UNL     1      -1.990  -2.374   3.573  0.00  0.00    +0.124 A 
ATOM     24  C   UNL     1      -0.888  -3.020   4.115  0.00  0.00    +0.046 A 
ATOM     25  C   UNL     1      -0.804  -3.213   5.480  0.00  0.00    +0.008 A 
ATOM     26  C   UNL     1      -1.818  -2.763   6.306  0.00  0.00    -0.042 A 
ATOM     27  C   UNL     1      -2.917  -2.120   5.769  0.00  0.00    +0.008 A 
ATOM     28  C   UNL     1      -3.002  -1.919   4.405  0.00  0.00    +0.046 A 
BRANCH  26  29
ATOM     29  C   UNL     1      -1.724  -2.976   7.795  0.00  0.00    -0.013 C 
ATOM     30  C   UNL     1      -0.472  -2.280   8.332  0.00  0.00    +0.015 C 
ATOM     31  C   UNL     1      -2.965  -2.389   8.473  0.00  0.00    +0.015 C 
ATOM     32  C   UNL     1      -1.641  -4.474   8.092  0.00  0.00    +0.015 C 
ENDBRANCH  26  29
ENDBRANCH  22  23
ENDBRANCH  10  22
BRANCH   2  33
ATOM     33  O   UNL     1      -2.551  -2.267  -1.957  0.00  0.00    -0.361 OA
BRANCH  33  34
ATOM     34  C   UNL     1      -3.207  -1.009  -2.129  0.00  0.00    +0.285 C 
BRANCH  34  35
ATOM     35  C   UNL     1      -3.263  -0.668  -3.595  0.00  0.00    +0.381 C 
ATOM     36  O   UNL     1      -2.786  -1.432  -4.418  0.00  0.00    -0.244 OA
ATOM     37  O   UNL     1      -3.786   0.371  -3.960  0.00  0.00    -0.244 OA
ENDBRANCH  34  35
ENDBRANCH  33  34
ENDBRANCH   2  33
TORSDOF 8
