REMARK  Name = ZINC08635740
REMARK  9 active torsions:
REMARK  status: ('A' for Active; 'I' for Inactive)
REMARK    1  A    between atoms: C_1  and  O_2
REMARK    2  A    between atoms: O_2  and  C_3
REMARK    3  A    between atoms: C_3  and  C_4
REMARK    4  A    between atoms: C_9  and  C_10
REMARK    5  A    between atoms: C_9  and  N_60
REMARK    6  A    between atoms: C_18  and  C_20
REMARK    7  A    between atoms: C_20  and  N_21
REMARK    8  A    between atoms: N_21  and  S_22
REMARK    9  A    between atoms: S_22  and  C_25
REMARK                            x       y       z     vdW  Elec       q    Type
REMARK                         _______ _______ _______ _____ _____    ______ ____
ROOT
ATOM      1  C   UNL     1       3.040   3.528   0.951  0.00  0.00    -0.041 C 
ATOM      2  C   UNL     1       3.669   3.821  -0.414  0.00  0.00    -0.077 C 
ATOM      3  C   UNL     1       5.293   5.310   0.593  0.00  0.00    -0.078 C 
ATOM      4  C   UNL     1       4.710   5.058   1.987  0.00  0.00    -0.015 C 
ATOM      5  C   UNL     1       3.212   4.758   1.851  0.00  0.00    -0.015 C 
ATOM      6  C   UNL     1       2.533   5.956   1.176  0.00  0.00    -0.011 C 
ATOM      7  C   UNL     1       3.176   6.183  -0.195  0.00  0.00    -0.053 C 
ATOM      8  N   UNL     1       4.240   5.185  -0.437  0.00  0.00    +0.383 N 
ATOM      9  H   UNL     1       4.654   5.358  -1.360  0.00  0.00    -0.081 HD
ENDROOT
BRANCH   1  10
ATOM     10  C   UNL     1       1.550   3.226   0.775  0.00  0.00    -0.076 C 
BRANCH  10  15
ATOM     11  C   UNL     1      -0.019   1.536   0.011  0.00  0.00    -0.043 C 
ATOM     12  C   UNL     1       0.002  -0.004   0.002  0.00  0.00    -0.015 C 
ATOM     13  C   UNL     1       1.500  -0.388   0.018  0.00  0.00    -0.020 C 
ATOM     14  C   UNL     1       2.176   0.880   0.598  0.00  0.00    -0.078 C 
ATOM     15  N   UNL     1       1.381   1.962  -0.004  0.00  0.00    +0.383 N 
ATOM     16  H   UNL     1       1.686   2.120  -0.972  0.00  0.00    -0.081 HD
BRANCH  11  17
ATOM     17  C   UNL     1      -0.743   2.054  -1.234  0.00  0.00    +0.144 C 
BRANCH  17  19
ATOM     18  C   UNL     1      -0.761   1.899  -3.626  0.00  0.00    +0.193 C 
ATOM     19  O   UNL     1      -0.155   1.478  -2.402  0.00  0.00    -0.385 OA
ENDBRANCH  17  19
ENDBRANCH  11  17
ENDBRANCH  10  15
ENDBRANCH   1  10
BRANCH   7  20
ATOM     20  C   UNL     1       2.112   6.051  -1.286  0.00  0.00    +0.090 C 
BRANCH  20  21
ATOM     21  N   UNL     1       2.749   6.146  -2.602  0.00  0.00    -0.191 NA
ATOM     22  H   UNL     1       3.654   6.487  -2.680  0.00  0.00    +0.148 HD
BRANCH  21  23
ATOM     23  S   UNL     1       1.923   5.674  -3.958  0.00  0.00    +0.058 S 
ATOM     24  O   UNL     1       2.786   5.910  -5.062  0.00  0.00    -0.153 OA
ATOM     25  O   UNL     1       1.380   4.391  -3.676  0.00  0.00    -0.153 OA
BRANCH  23  26
ATOM     26  C   UNL     1       0.556   6.769  -4.144  0.00  0.00    +0.105 A 
ATOM     27  C   UNL     1      -0.657   6.466  -3.555  0.00  0.00    +0.030 A 
ATOM     28  C   UNL     1      -1.729   7.329  -3.696  0.00  0.00    +0.022 A 
ATOM     29  C   UNL     1      -1.589   8.489  -4.435  0.00  0.00    +0.041 A 
ATOM     30  C   UNL     1      -0.376   8.789  -5.029  0.00  0.00    +0.022 A 
ATOM     31  C   UNL     1       0.696   7.929  -4.883  0.00  0.00    +0.030 A 
ATOM     32 CL   UNL     1      -2.936   9.569  -4.618  0.00  0.00    -0.084 Cl
ENDBRANCH  23  26
ENDBRANCH  21  23
ENDBRANCH  20  21
ENDBRANCH   7  20
TORSDOF 8
