REMARK  Name = ZINC14668135
REMARK  10 active torsions:
REMARK  status: ('A' for Active; 'I' for Inactive)
REMARK    1  A    between atoms: C_1  and  C_2
REMARK    2  A    between atoms: C_2  and  C_3
REMARK    3  A    between atoms: C_2  and  C_4
REMARK    4  A    between atoms: C_2  and  C_5
REMARK    5  A    between atoms: C_10  and  O_11
REMARK    6  A    between atoms: O_11  and  C_12
REMARK    7  A    between atoms: C_12  and  C_13
REMARK    8  A    between atoms: N_15  and  N_16
REMARK    9  A    between atoms: C_17  and  C_19
REMARK   10  A    between atoms: C_24  and  N_25
REMARK                            x       y       z     vdW  Elec       q    Type
REMARK                         _______ _______ _______ _____ _____    ______ ____
ROOT
ATOM      1  C   UNL     1      -5.938  -0.306   0.567  0.00  0.00    +0.267 C 
ATOM      2  O   UNL     1      -5.987  -1.512   0.677  0.00  0.00    -0.271 OA
ATOM      3  N   UNL     1      -4.751   0.306   0.381  0.00  0.00    -0.231 N 
ATOM      4  H   UNL     1      -4.712   1.271   0.293  0.00  0.00    +0.173 HD
ENDROOT
BRANCH   3   5
ATOM      5  N   UNL     1      -3.575  -0.453   0.316  0.00  0.00    -0.230 N 
ATOM      6  C   UNL     1      -2.388   0.159   0.130  0.00  0.00    +0.262 C 
ATOM      7  O   UNL     1      -2.339   1.369   0.019  0.00  0.00    -0.269 OA
ATOM      8  H   UNL     1      -3.615  -1.418   0.404  0.00  0.00    +0.173 HD
BRANCH   6   9
ATOM      9  C   UNL     1      -1.147  -0.641   0.060  0.00  0.00    +0.068 A 
ATOM     10  C   UNL     1      -0.815  -1.512   1.100  0.00  0.00    +0.015 A 
ATOM     11  C   UNL     1       0.344  -2.256   1.028  0.00  0.00    +0.001 A 
ATOM     12  C   UNL     1       1.177  -2.141  -0.070  0.00  0.00    +0.002 A 
ATOM     13  C   UNL     1       0.851  -1.284  -1.106  0.00  0.00    +0.033 A 
ATOM     14  C   UNL     1      -0.302  -0.530  -1.045  0.00  0.00    +0.138 A 
BRANCH  14  15
ATOM     15  N   UNL     1      -0.646   0.391  -2.152  0.00  0.00    +0.057 N 
ATOM     16  O   UNL     1       0.144   0.574  -3.060  0.00  0.00    -0.126 OA
ATOM     17  O   UNL     1      -1.722   0.962  -2.157  0.00  0.00    -0.126 OA
ENDBRANCH  14  15
ENDBRANCH   6   9
ENDBRANCH   3   5
BRANCH   1  18
ATOM     18  C   UNL     1      -7.203   0.510   0.638  0.00  0.00    +0.326 C 
BRANCH  18  19
ATOM     19  O   UNL     1      -8.319  -0.359   0.838  0.00  0.00    -0.482 OA
BRANCH  19  25
ATOM     20  C   UNL     1     -10.673  -0.563   1.114  0.00  0.00    +0.001 A 
ATOM     21  C   UNL     1     -11.918   0.029   1.207  0.00  0.00    +0.023 A 
ATOM     22  C   UNL     1     -12.041   1.403   1.101  0.00  0.00    +0.018 A 
ATOM     23  C   UNL     1     -10.918   2.187   0.908  0.00  0.00    +0.019 A 
ATOM     24  C   UNL     1      -9.671   1.599   0.820  0.00  0.00    +0.047 A 
ATOM     25  C   UNL     1      -9.545   0.221   0.925  0.00  0.00    +0.125 A 
ATOM     26 BR   UNL     1     -13.747   2.210   1.222  0.00  0.00    -0.050 Br
BRANCH  20  28
ATOM     27  C   UNL     1     -11.924  -2.682   1.425  0.00  0.00    +0.015 C 
ATOM     28  C   UNL     1     -10.541  -2.061   1.222  0.00  0.00    -0.009 C 
ATOM     29  C   UNL     1      -9.918  -2.612  -0.062  0.00  0.00    +0.015 C 
ATOM     30  C   UNL     1      -9.646  -2.409   2.413  0.00  0.00    +0.015 C 
ENDBRANCH  20  28
ENDBRANCH  19  25
ENDBRANCH  18  19
ENDBRANCH   1  18
TORSDOF 7
