REMARK  Name = ZINC09891975
REMARK  8 active torsions:
REMARK  status: ('A' for Active; 'I' for Inactive)
REMARK    1  A    between atoms: C_1  and  C_2
REMARK    2  A    between atoms: C_5  and  S_9
REMARK    3  A    between atoms: C_7  and  C_8
REMARK    4  A    between atoms: S_9  and  N_12
REMARK    5  A    between atoms: N_15  and  C_18
REMARK    6  A    between atoms: C_21  and  N_28
REMARK    7  A    between atoms: C_22  and  N_24
REMARK    8  A    between atoms: N_24  and  C_25
REMARK                            x       y       z     vdW  Elec       q    Type
REMARK                         _______ _______ _______ _____ _____    ______ ____
ROOT
ATOM      1  N   UNL     1       5.815  -2.170   0.645  0.00  0.00    -0.174 NA
ATOM      2  C   UNL     1       5.853  -1.101  -0.365  0.00  0.00    +0.128 C 
ATOM      3  C   UNL     1       4.663  -0.165  -0.128  0.00  0.00    +0.122 C 
ATOM      4  N   UNL     1       3.423  -0.952  -0.103  0.00  0.00    -0.327 N 
ATOM      5  C   UNL     1       3.419  -1.907   1.014  0.00  0.00    +0.122 C 
ATOM      6  C   UNL     1       4.559  -2.914   0.824  0.00  0.00    +0.128 C 
ENDROOT
BRANCH   4   7
ATOM      7  C   UNL     1       2.302  -0.120  -0.054  0.00  0.00    +0.032 A 
ATOM      8  C   UNL     1       2.462   1.261  -0.035  0.00  0.00    +0.025 A 
ATOM      9  C   UNL     1       1.354   2.085   0.014  0.00  0.00    +0.036 A 
ATOM     10  C   UNL     1       0.085   1.540   0.044  0.00  0.00    +0.147 A 
ATOM     11  C   UNL     1      -0.082   0.161   0.025  0.00  0.00    +0.060 A 
ATOM     12  C   UNL     1       1.029  -0.670  -0.024  0.00  0.00    +0.048 A 
BRANCH  10  13
ATOM     13  N   UNL     1      -1.099   2.427   0.090  0.00  0.00    +0.058 N 
ATOM     14  O   UNL     1      -0.955   3.630   0.215  0.00  0.00    -0.126 OA
ATOM     15  O   UNL     1      -2.218   1.954   0.002  0.00  0.00    -0.126 OA
ENDBRANCH  10  13
BRANCH  11  16
ATOM     16  N   UNL     1      -1.365  -0.389   0.055  0.00  0.00    -0.339 N 
ATOM     17  H   UNL     1      -2.142   0.190  -0.001  0.00  0.00    +0.146 HD
BRANCH  16  18
ATOM     18  C   UNL     1      -1.539  -1.839   0.171  0.00  0.00    +0.071 C 
ATOM     19  C   UNL     1      -2.587  -2.499  -0.727  0.00  0.00    +0.024 C 
ATOM     20  C   UNL     1      -2.850  -2.348   0.773  0.00  0.00    +0.024 C 
ENDBRANCH  16  18
ENDBRANCH  11  16
ENDBRANCH   4   7
BRANCH   1  21
ATOM     21  S   UNL     1       7.151  -2.526   1.556  0.00  0.00    +0.061 S 
ATOM     22  O   UNL     1       7.002  -3.872   1.986  0.00  0.00    -0.153 OA
ATOM     23  O   UNL     1       8.279  -2.085   0.813  0.00  0.00    -0.153 OA
BRANCH  21  28
ATOM     24  C   UNL     1       6.899   0.906   6.512  0.00  0.00    +0.044 C 
ATOM     25  C   UNL     1       6.962   0.049   5.275  0.00  0.00    -0.047 A 
ATOM     26  C   UNL     1       7.605   0.515   4.143  0.00  0.00    +0.005 A 
ATOM     27  C   UNL     1       7.667  -0.274   3.009  0.00  0.00    +0.029 A 
ATOM     28  C   UNL     1       7.077  -1.524   3.004  0.00  0.00    +0.106 A 
ATOM     29  C   UNL     1       6.435  -1.990   4.135  0.00  0.00    +0.032 A 
ATOM     30  C   UNL     1       6.377  -1.204   5.271  0.00  0.00    -0.046 A 
ATOM     31  C   UNL     1       5.677  -1.712   6.504  0.00  0.00    +0.044 C 
ENDBRANCH  21  28
ENDBRANCH   1  21
TORSDOF 6
