REMARK  Name = ZINC38760040
REMARK  14 active torsions:
REMARK  status: ('A' for Active; 'I' for Inactive)
REMARK    1  A    between atoms: C_1  and  C_2
REMARK    2  A    between atoms: C_5  and  N_36
REMARK    3  A    between atoms: C_6  and  C_8
REMARK    4  A    between atoms: C_8  and  C_10
REMARK    5  A    between atoms: C_8  and  C_24
REMARK    6  A    between atoms: C_12  and  O_23
REMARK    7  A    between atoms: N_14  and  C_20
REMARK    8  A    between atoms: C_20  and  C_21
REMARK    9  A    between atoms: C_20  and  C_22
REMARK   10  A    between atoms: N_29  and  C_32
REMARK   11  A    between atoms: C_32  and  C_33
REMARK   12  A    between atoms: C_32  and  C_34
REMARK   13  A    between atoms: N_36  and  C_37
REMARK   14  A    between atoms: N_36  and  C_38
REMARK                            x       y       z     vdW  Elec       q    Type
REMARK                         _______ _______ _______ _____ _____    ______ ____
ROOT
ATOM      1  C   UNL     1       0.163  -2.067   2.148  0.00  0.00    +0.077 C 
ENDROOT
BRANCH   1   2
ATOM      2  C   UNL     1      -0.914  -1.564   3.074  0.00  0.00    +0.090 A 
ATOM      3  C   UNL     1      -0.602  -0.744   4.117  0.00  0.00    +0.260 A 
ATOM      4  N   UNL     1      -1.598  -0.297   4.947  0.00  0.00    -0.302 N 
ATOM      5  C   UNL     1      -2.876  -0.664   4.737  0.00  0.00    +0.164 A 
ATOM      6  S   UNL     1      -4.101  -0.094   5.788  0.00  0.00    -0.013 S 
ATOM      7  N   UNL     1      -3.205  -1.473   3.713  0.00  0.00    -0.286 N 
ATOM      8  C   UNL     1      -2.257  -1.930   2.871  0.00  0.00    +0.262 A 
ATOM      9  O   UNL     1      -2.561  -2.658   1.942  0.00  0.00    -0.267 OA
ATOM     10  O   UNL     1       0.679  -0.374   4.332  0.00  0.00    -0.267 OA
ATOM     11  H   UNL     1      -1.381   0.287   5.690  0.00  0.00    +0.171 HD
BRANCH   7  12
ATOM     12  C   UNL     1      -4.604  -1.856   3.510  0.00  0.00    +0.086 C 
ATOM     13  C   UNL     1      -5.051  -1.431   2.109  0.00  0.00    +0.031 C 
ATOM     14  C   UNL     1      -4.744  -3.373   3.651  0.00  0.00    +0.031 C 
ENDBRANCH   7  12
ENDBRANCH   1   2
BRANCH   1  15
ATOM     15  C   UNL     1       1.500  -2.101   2.892  0.00  0.00    +0.134 C 
ATOM     16  C   UNL     1       1.339  -2.881   4.198  0.00  0.00    +0.217 C 
ATOM     17  N   UNL     1       1.224  -4.311   3.903  0.00  0.00    -0.284 N 
ATOM     18  C   UNL     1       1.919  -4.866   2.897  0.00  0.00    +0.141 C 
ATOM     19  S   UNL     1       1.866  -6.563   2.682  0.00  0.00    -0.018 S 
ATOM     20  N   UNL     1       2.654  -4.121   2.055  0.00  0.00    -0.267 N 
ATOM     21  C   UNL     1       2.537  -2.779   2.033  0.00  0.00    +0.227 C 
ATOM     22  O   UNL     1       3.265  -2.117   1.324  0.00  0.00    -0.275 OA
ATOM     23  H   UNL     1       3.279  -4.556   1.453  0.00  0.00    +0.157 HD
BRANCH  17  24
ATOM     24  C   UNL     1       0.340  -5.147   4.718  0.00  0.00    +0.071 C 
ATOM     25  C   UNL     1      -0.720  -5.792   3.822  0.00  0.00    +0.028 C 
ATOM     26  C   UNL     1       1.161  -6.241   5.404  0.00  0.00    +0.028 C 
ENDBRANCH  17  24
BRANCH  16  27
ATOM     27  O   UNL     1       2.478  -2.657   5.030  0.00  0.00    -0.373 OA
ATOM     28  H   UNL     1       2.444  -3.122   5.878  0.00  0.00    +0.212 HD
ENDBRANCH  16  27
ENDBRANCH   1  15
BRANCH   1  34
ATOM     29  C   UNL     1       0.869   2.513   0.264  0.00  0.00    +0.044 C 
ATOM     30  C   UNL     1       0.610   1.043   0.055  0.00  0.00    -0.050 A 
ATOM     31  C   UNL     1       0.474   0.542  -1.226  0.00  0.00    +0.005 A 
ATOM     32  C   UNL     1       0.236  -0.805  -1.421  0.00  0.00    +0.023 A 
ATOM     33  C   UNL     1       0.135  -1.655  -0.327  0.00  0.00    +0.033 A 
ATOM     34  C   UNL     1       0.273  -1.148   0.959  0.00  0.00    -0.018 A 
ATOM     35  C   UNL     1       0.516   0.199   1.146  0.00  0.00    +0.009 A 
BRANCH  33  36
ATOM     36  N   UNL     1      -0.105  -3.018  -0.520  0.00  0.00    -0.336 N 
ATOM     37  C   UNL     1       1.014  -3.963  -0.539  0.00  0.00    +0.129 C 
ATOM     38  C   UNL     1      -1.476  -3.501  -0.703  0.00  0.00    +0.129 C 
ENDBRANCH  33  36
ENDBRANCH   1  34
TORSDOF 7
