REMARK  Name = ZINC66200263
REMARK  8 active torsions:
REMARK  status: ('A' for Active; 'I' for Inactive)
REMARK    1  A    between atoms: C_1  and  O_2
REMARK    2  A    between atoms: O_2  and  C_3
REMARK    3  A    between atoms: C_4  and  N_9
REMARK    4  A    between atoms: N_9  and  S_10
REMARK    5  A    between atoms: S_10  and  C_13
REMARK    6  A    between atoms: C_16  and  N_19
REMARK    7  A    between atoms: C_20  and  C_22
REMARK    8  A    between atoms: C_23  and  C_24
REMARK                            x       y       z     vdW  Elec       q    Type
REMARK                         _______ _______ _______ _____ _____    ______ ____
ROOT
ATOM      1  C   UNL     1       1.511  -5.016  -0.009  0.00  0.00    +0.111 A 
ATOM      2  C   UNL     1       2.090  -5.409  -1.202  0.00  0.00    +0.031 A 
ATOM      3  C   UNL     1       3.389  -5.879  -1.219  0.00  0.00    +0.025 A 
ATOM      4  C   UNL     1       4.113  -5.957  -0.036  0.00  0.00    +0.034 A 
ATOM      5  C   UNL     1       3.529  -5.560   1.160  0.00  0.00    +0.025 A 
ATOM      6  C   UNL     1       2.232  -5.086   1.169  0.00  0.00    +0.031 A 
ENDROOT
BRANCH   4   7
ATOM      7  N   UNL     1       5.428  -6.432  -0.050  0.00  0.00    -0.282 N 
ATOM      8  C   UNL     1       5.903  -7.130   1.001  0.00  0.00    +0.241 C 
ATOM      9  O   UNL     1       5.161  -7.428   1.919  0.00  0.00    -0.270 OA
ATOM     10  H   UNL     1       5.998  -6.261  -0.816  0.00  0.00    +0.155 HD
BRANCH   8  11
ATOM     11  C   UNL     1       7.310  -7.528   1.038  0.00  0.00    +0.068 C 
ATOM     12  C   UNL     1       7.786  -8.226   2.091  0.00  0.00    +0.013 C 
BRANCH  12  13
ATOM     13  C   UNL     1       9.201  -8.626   2.128  0.00  0.00    -0.025 A 
ATOM     14  C   UNL     1      10.057  -8.280   1.077  0.00  0.00    +0.011 A 
ATOM     15  C   UNL     1      11.382  -8.659   1.119  0.00  0.00    +0.039 A 
ATOM     16  C   UNL     1      11.866  -9.381   2.199  0.00  0.00    +0.123 A 
ATOM     17  C   UNL     1      11.022  -9.728   3.244  0.00  0.00    +0.039 A 
ATOM     18  C   UNL     1       9.697  -9.350   3.218  0.00  0.00    +0.011 A 
ATOM     19  F   UNL     1      13.165  -9.749   2.234  0.00  0.00    -0.205 F 
ENDBRANCH  12  13
ENDBRANCH   8  11
ENDBRANCH   4   7
BRANCH   1  20
ATOM     20  S   UNL     1      -0.146  -4.416   0.008  0.00  0.00    +0.093 S 
ATOM     21  O   UNL     1      -0.637  -4.620   1.326  0.00  0.00    -0.148 OA
ATOM     22  O   UNL     1      -0.786  -4.961  -1.137  0.00  0.00    -0.148 OA
BRANCH  20  23
ATOM     23  N   UNL     1      -0.076  -2.778  -0.223  0.00  0.00    -0.072 NA
BRANCH  23  25
ATOM     24  C   UNL     1      -1.194  -0.644  -0.451  0.00  0.00    +0.259 A 
ATOM     25  C   UNL     1      -1.249  -2.030  -0.256  0.00  0.00    +0.225 A 
ATOM     26  N   UNL     1      -2.422  -2.625  -0.103  0.00  0.00    -0.231 NA
ATOM     27  C   UNL     1      -3.536  -1.910  -0.135  0.00  0.00    +0.133 A 
ATOM     28  C   UNL     1      -3.481  -0.545  -0.327  0.00  0.00    +0.134 A 
ATOM     29  N   UNL     1      -2.312   0.060  -0.476  0.00  0.00    -0.217 NA
BRANCH  24  31
ATOM     30  C   UNL     1      -0.016   1.390  -0.797  0.00  0.00    +0.279 C 
ATOM     31  O   UNL     1       0.005  -0.026  -0.608  0.00  0.00    -0.477 OA
ENDBRANCH  24  31
ENDBRANCH  23  25
ENDBRANCH  20  23
ENDBRANCH   1  20
TORSDOF 7
