REMARK  Name = ZINC22152272
REMARK  12 active torsions:
REMARK  status: ('A' for Active; 'I' for Inactive)
REMARK    1  A    between atoms: C_1  and  C_2
REMARK    2  A    between atoms: C_2  and  O_3
REMARK    3  A    between atoms: O_3  and  C_4
REMARK    4  A    between atoms: C_7  and  C_12
REMARK    5  A    between atoms: C_9  and  O_10
REMARK    6  A    between atoms: O_10  and  C_11
REMARK    7  A    between atoms: C_14  and  C_17
REMARK    8  A    between atoms: C_17  and  S_18
REMARK    9  A    between atoms: S_18  and  C_19
REMARK   10  A    between atoms: C_22  and  C_25
REMARK   11  A    between atoms: N_23  and  N_24
REMARK   12  A    between atoms: C_29  and  C_30
REMARK                            x       y       z     vdW  Elec       q    Type
REMARK                         _______ _______ _______ _____ _____    ______ ____
ROOT
ATOM      1  C   UNL     1       2.283   1.401  -0.012  0.00  0.00    +0.109 A 
ATOM      2  N   UNL     1       1.113   2.025   0.002  0.00  0.00    -0.243 NA
ATOM      3  C   UNL     1      -0.016   1.355   0.009  0.00  0.00    +0.059 A 
ATOM      4  C   UNL     1       0.002  -0.004   0.002  0.00  0.00    +0.071 A 
ATOM      5  S   UNL     1       1.764  -0.310  -0.017  0.00  0.00    -0.075 S 
ENDROOT
BRANCH   1   9
ATOM      6  C   UNL     1       6.207   3.036  -0.039  0.00  0.00    +0.162 A 
ATOM      7  C   UNL     1       5.105   3.878  -0.025  0.00  0.00    +0.050 A 
ATOM      8  C   UNL     1       3.831   3.351  -0.016  0.00  0.00    +0.014 A 
ATOM      9  C   UNL     1       3.648   1.967  -0.022  0.00  0.00    +0.011 A 
ATOM     10  C   UNL     1       4.757   1.120  -0.031  0.00  0.00    +0.060 A 
ATOM     11  C   UNL     1       6.032   1.655  -0.045  0.00  0.00    +0.162 A 
BRANCH  11  12
ATOM     12  O   UNL     1       7.114   0.832  -0.060  0.00  0.00    -0.491 OA
ATOM     13  C   UNL     1       6.860  -0.575  -0.066  0.00  0.00    +0.277 C 
ENDBRANCH  11  12
BRANCH   6  14
ATOM     14  O   UNL     1       7.462   3.561  -0.047  0.00  0.00    -0.489 OA
BRANCH  14  16
ATOM     15  C   UNL     1       9.046   5.386  -0.050  0.00  0.00    +0.048 C 
ATOM     16  C   UNL     1       7.569   4.986  -0.040  0.00  0.00    +0.226 C 
ENDBRANCH  14  16
ENDBRANCH   6  14
ENDBRANCH   1   9
BRANCH   3  17
ATOM     17  C   UNL     1      -1.331   2.092   0.020  0.00  0.00    +0.133 C 
BRANCH  17  18
ATOM     18  S   UNL     1      -1.849   2.377   1.730  0.00  0.00    -0.078 S 
BRANCH  18  19
ATOM     19  C   UNL     1      -3.366   3.229   1.452  0.00  0.00    +0.209 A 
ATOM     20  N   UNL     1      -3.888   3.531   0.285  0.00  0.00    -0.121 NA
ATOM     21  N   UNL     1      -5.003   4.149   0.447  0.00  0.00    -0.127 NA
ATOM     22  C   UNL     1      -5.258   4.288   1.726  0.00  0.00    +0.185 A 
ATOM     23  N   UNL     1      -4.218   3.703   2.411  0.00  0.00    -0.224 N 
BRANCH  22  24
ATOM     24  C   UNL     1      -6.439   4.950   2.321  0.00  0.00    +0.061 A 
ATOM     25  C   UNL     1      -6.739   5.115   3.749  0.00  0.00    +0.053 A 
ATOM     26  C   UNL     1      -7.909   5.772   3.809  0.00  0.00    +0.196 A 
ATOM     27  O   UNL     1      -8.339   6.016   2.562  0.00  0.00    -0.467 OA
ATOM     28  C   UNL     1      -7.472   5.537   1.658  0.00  0.00    +0.112 A 
ATOM     29  C   UNL     1      -7.619   5.630   0.161  0.00  0.00    +0.087 C 
ENDBRANCH  22  24
BRANCH  23  30
ATOM     30  N   UNL     1      -4.067   3.615   3.766  0.00  0.00    -0.295 N 
ATOM     31  H   UNL     1      -4.831   4.042   4.433  0.00  0.00    +0.163 HD
ATOM     32  H   UNL     1      -3.182   3.119   4.189  0.00  0.00    +0.163 HD
ENDBRANCH  23  30
ENDBRANCH  18  19
ENDBRANCH  17  18
ENDBRANCH   3  17
TORSDOF 9
