REMARK  Name = ZINC64150829
REMARK  7 active torsions:
REMARK  status: ('A' for Active; 'I' for Inactive)
REMARK    1  A    between atoms: C_6  and  C_7
REMARK    2  A    between atoms: C_9  and  C_18
REMARK    3  A    between atoms: C_18  and  C_19
REMARK    4  A    between atoms: C_19  and  C_20
REMARK    5  A    between atoms: C_20  and  O_22
REMARK    6  A    between atoms: O_22  and  C_23
REMARK    7  A    between atoms: C_23  and  C_24
REMARK                            x       y       z     vdW  Elec       q    Type
REMARK                         _______ _______ _______ _____ _____    ______ ____
ROOT
ATOM      1  C   UNL     1      -1.293  -0.775   0.010  0.00  0.00    +0.137 C 
ATOM      2  C   UNL     1      -1.589  -1.282   1.404  0.00  0.00    -0.033 C 
ATOM      3  C   UNL     1      -1.628  -2.631   1.312  0.00  0.00    +0.002 A 
ATOM      4  C   UNL     1      -1.867  -3.688   2.301  0.00  0.00    +0.048 A 
ATOM      5  C   UNL     1      -1.843  -4.981   1.899  0.00  0.00    +0.124 A 
ATOM      6  C   UNL     1      -1.595  -5.333   0.563  0.00  0.00    +0.040 A 
ATOM      7  C   UNL     1      -1.366  -4.417  -0.402  0.00  0.00    +0.029 A 
ATOM      8  C   UNL     1      -1.369  -3.029  -0.091  0.00  0.00    +0.043 A 
ATOM      9  N   UNL     1      -1.177  -1.967  -0.837  0.00  0.00    -0.374 N 
ATOM     10  F   UNL     1      -2.063  -5.957   2.807  0.00  0.00    -0.205 F 
ATOM     11  H   UNL     1      -0.992  -1.968  -1.789  0.00  0.00    +0.161 HD
ENDROOT
BRANCH   1  17
ATOM     12  C   UNL     1      -0.017   1.378   0.010  0.00  0.00    +0.009 A 
ATOM     13  C   UNL     1       1.170   2.086   0.002  0.00  0.00    +0.039 A 
ATOM     14  C   UNL     1       2.379   1.410  -0.013  0.00  0.00    +0.123 A 
ATOM     15  C   UNL     1       2.396   0.026  -0.021  0.00  0.00    +0.039 A 
ATOM     16  C   UNL     1       1.208  -0.680  -0.013  0.00  0.00    +0.009 A 
ATOM     17  C   UNL     1       0.002  -0.004   0.002  0.00  0.00    -0.021 A 
ATOM     18  F   UNL     1       3.540   2.101  -0.021  0.00  0.00    -0.205 F 
ENDBRANCH   1  17
BRANCH   2  19
ATOM     19  C   UNL     1      -1.797  -0.452   2.645  0.00  0.00    +0.045 C 
BRANCH  19  20
ATOM     20  C   UNL     1      -2.071  -1.374   3.835  0.00  0.00    +0.125 C 
BRANCH  20  21
ATOM     21  C   UNL     1      -2.279  -0.545   5.075  0.00  0.00    +0.308 C 
ATOM     22  O   UNL     1      -2.216   0.660   5.014  0.00  0.00    -0.251 OA
BRANCH  21  23
ATOM     23  O   UNL     1      -2.536  -1.145   6.248  0.00  0.00    -0.457 OA
BRANCH  23  24
ATOM     24  C   UNL     1      -2.723  -0.297   7.383  0.00  0.00    +0.308 C 
BRANCH  24  25
ATOM     25  C   UNL     1      -2.998  -1.141   8.601  0.00  0.00    +0.173 A 
ATOM     26  N   UNL     1      -4.242  -1.466   8.910  0.00  0.00    -0.196 NA
ATOM     27  C   UNL     1      -4.489  -2.212   9.984  0.00  0.00    +0.217 A 
ATOM     28  N   UNL     1      -3.484  -2.629  10.747  0.00  0.00    -0.181 NA
ATOM     29  C   UNL     1      -2.236  -2.300  10.433  0.00  0.00    +0.217 A 
ATOM     30  N   UNL     1      -1.996  -1.558   9.354  0.00  0.00    -0.196 NA
ATOM     31  N   UNL     1      -1.189  -2.731  11.222  0.00  0.00    -0.327 N 
ATOM     32  N   UNL     1      -5.787  -2.551  10.306  0.00  0.00    -0.327 N 
ATOM     33  H   UNL     1      -1.364  -3.275  12.006  0.00  0.00    +0.145 HD
ATOM     34  H   UNL     1      -0.278  -2.490  10.993  0.00  0.00    +0.145 HD
ATOM     35  H   UNL     1      -6.521  -2.246   9.749  0.00  0.00    +0.145 HD
ATOM     36  H   UNL     1      -5.967  -3.095  11.089  0.00  0.00    +0.145 HD
ENDBRANCH  24  25
ENDBRANCH  23  24
ENDBRANCH  21  23
ENDBRANCH  20  21
ENDBRANCH  19  20
ENDBRANCH   2  19
TORSDOF 7
