REMARK  Name = ZINC05353881
REMARK  11 active torsions:
REMARK  status: ('A' for Active; 'I' for Inactive)
REMARK    1  A    between atoms: C_1  and  C_2
REMARK    2  A    between atoms: C_4  and  C_27
REMARK    3  A    between atoms: C_6  and  C_8
REMARK    4  A    between atoms: C_11  and  S_13
REMARK    5  A    between atoms: S_13  and  C_14
REMARK    6  A    between atoms: C_14  and  C_15
REMARK    7  A    between atoms: N_17  and  C_18
REMARK    8  A    between atoms: C_20  and  C_23
REMARK    9  A    between atoms: C_23  and  C_24
REMARK   10  A    between atoms: C_23  and  C_25
REMARK   11  A    between atoms: C_23  and  C_26
REMARK                            x       y       z     vdW  Elec       q    Type
REMARK                         _______ _______ _______ _____ _____    ______ ____
ROOT
ATOM      1  S   UNL     1      -3.874   2.010   0.031  0.00  0.00    -0.056 S 
ENDROOT
BRANCH   1   5
ATOM      2  C   UNL     1      -7.199   0.012   0.036  0.00  0.00    +0.249 A 
ATOM      3  N   UNL     1      -6.308  -0.949   0.027  0.00  0.00    -0.106 NA
ATOM      4  N   UNL     1      -5.128  -0.438   0.018  0.00  0.00    -0.101 NA
ATOM      5  C   UNL     1      -5.218   0.872   0.032  0.00  0.00    +0.278 A 
ATOM      6  O   UNL     1      -6.528   1.185   0.040  0.00  0.00    -0.411 OA
BRANCH   2  12
ATOM      7  C   UNL     1     -11.772   2.008   0.072  0.00  0.00    +0.044 C 
ATOM      8  C   UNL     1     -10.871   0.800   0.061  0.00  0.00    -0.049 A 
ATOM      9  C   UNL     1     -11.418  -0.470   0.056  0.00  0.00    +0.006 A 
ATOM     10  C   UNL     1     -10.598  -1.584   0.046  0.00  0.00    -0.049 A 
ATOM     11  C   UNL     1      -9.227  -1.435   0.039  0.00  0.00    +0.016 A 
ATOM     12  C   UNL     1      -8.667  -0.156   0.043  0.00  0.00    +0.039 A 
ATOM     13  C   UNL     1      -9.501   0.964   0.060  0.00  0.00    +0.016 A 
ATOM     14  C   UNL     1     -11.204  -2.964   0.041  0.00  0.00    +0.044 C 
ENDBRANCH   2  12
ENDBRANCH   1   5
BRANCH   1  15
ATOM     15  C   UNL     1      -2.482   0.853   0.018  0.00  0.00    +0.175 C 
BRANCH  15  16
ATOM     16  C   UNL     1      -1.187   1.624   0.017  0.00  0.00    +0.230 C 
ATOM     17  O   UNL     1      -1.204   2.836   0.023  0.00  0.00    -0.274 OA
ATOM     18  N   UNL     1      -0.011   0.966   0.007  0.00  0.00    -0.254 N 
ATOM     19  H   UNL     1       0.002  -0.004   0.002  0.00  0.00    +0.158 HD
BRANCH  18  20
ATOM     20  C   UNL     1       1.181   1.676  -0.000  0.00  0.00    +0.224 A 
ATOM     21  C   UNL     1       2.443   1.157  -0.015  0.00  0.00    +0.092 A 
ATOM     22  C   UNL     1       3.277   2.293  -0.017  0.00  0.00    +0.091 A 
ATOM     23  N   UNL     1       2.489   3.331  -0.004  0.00  0.00    -0.081 NA
ATOM     24  O   UNL     1       1.323   3.011  -0.000  0.00  0.00    -0.339 OA
BRANCH  22  25
ATOM     25  C   UNL     1       4.784   2.306  -0.032  0.00  0.00    +0.008 C 
ATOM     26  C   UNL     1       5.283   1.944  -1.432  0.00  0.00    +0.017 C 
ATOM     27  C   UNL     1       5.286   3.701   0.345  0.00  0.00    +0.017 C 
ATOM     28  C   UNL     1       5.312   1.284   0.978  0.00  0.00    +0.017 C 
ENDBRANCH  22  25
ENDBRANCH  18  20
ENDBRANCH  15  16
ENDBRANCH   1  15
TORSDOF 6
