REMARK  Name = ZINC15372498
REMARK  11 active torsions:
REMARK  status: ('A' for Active; 'I' for Inactive)
REMARK    1  A    between atoms: C_1  and  N_2
REMARK    2  A    between atoms: N_2  and  C_3
REMARK    3  A    between atoms: N_2  and  C_4
REMARK    4  A    between atoms: C_4  and  C_6
REMARK    5  A    between atoms: C_4  and  C_29
REMARK    6  A    between atoms: C_6  and  N_7
REMARK    7  A    between atoms: C_8  and  C_10
REMARK    8  A    between atoms: C_15  and  N_16
REMARK    9  A    between atoms: N_16  and  S_17
REMARK   10  A    between atoms: S_17  and  C_20
REMARK   11  A    between atoms: C_24  and  N_26
REMARK                            x       y       z     vdW  Elec       q    Type
REMARK                         _______ _______ _______ _____ _____    ______ ____
ROOT
ATOM      1  C   UNL     1       1.587  -3.784   1.937  0.00  0.00    +0.061 A 
ATOM      2  C   UNL     1       2.031  -2.815   2.841  0.00  0.00    +0.015 A 
ATOM      3  C   UNL     1       2.916  -3.160   3.838  0.00  0.00    +0.001 A 
ATOM      4  C   UNL     1       3.371  -4.465   3.951  0.00  0.00    +0.002 A 
ATOM      5  C   UNL     1       2.942  -5.433   3.066  0.00  0.00    +0.027 A 
ATOM      6  C   UNL     1       2.044  -5.105   2.057  0.00  0.00    +0.086 A 
ENDROOT
BRANCH   1   8
ATOM      7  N   UNL     1       0.204  -2.151   0.755  0.00  0.00    -0.313 N 
ATOM      8  C   UNL     1       0.640  -3.421   0.867  0.00  0.00    +0.246 C 
ATOM      9  O   UNL     1       0.252  -4.268   0.085  0.00  0.00    -0.270 OA
ATOM     10  H   UNL     1       0.513  -1.475   1.379  0.00  0.00    +0.149 HD
BRANCH   7  11
ATOM     11  C   UNL     1      -0.738  -1.790  -0.308  0.00  0.00    +0.094 C 
BRANCH  11  12
ATOM     12  C   UNL     1      -1.169  -0.332  -0.135  0.00  0.00    -0.021 C 
BRANCH  12  13
ATOM     13  C   UNL     1      -1.946  -0.187   1.148  0.00  0.00    -0.059 A 
ATOM     14  C   UNL     1      -3.278  -0.556   1.194  0.00  0.00    +0.002 A 
ATOM     15  C   UNL     1      -3.991  -0.423   2.371  0.00  0.00    +0.000 A 
ATOM     16  C   UNL     1      -3.373   0.079   3.501  0.00  0.00    +0.000 A 
ATOM     17  C   UNL     1      -2.041   0.446   3.455  0.00  0.00    +0.000 A 
ATOM     18  C   UNL     1      -1.327   0.309   2.280  0.00  0.00    +0.002 A 
ENDBRANCH  12  13
BRANCH  12  20
ATOM     19  C   UNL     1      -2.469   1.450  -1.077  0.00  0.00    -0.096 C 
ATOM     20  N   UNL     1      -2.014   0.066  -1.268  0.00  0.00    +0.382 N 
ATOM     21  C   UNL     1      -1.240  -0.027  -2.513  0.00  0.00    -0.096 C 
ATOM     22  H   UNL     1      -2.814  -0.546  -1.322  0.00  0.00    -0.082 HD
ENDBRANCH  12  20
ENDBRANCH  11  12
ENDBRANCH   7  11
ENDBRANCH   1   8
BRANCH   6  23
ATOM     23  N   UNL     1       1.606  -6.079   1.169  0.00  0.00    -0.097 NA
BRANCH  23  24
ATOM     24  S   UNL     1       2.148  -7.637   1.315  0.00  0.00    +0.092 S 
ATOM     25  O   UNL     1       3.540  -7.611   1.029  0.00  0.00    -0.148 OA
ATOM     26  O   UNL     1       1.632  -8.133   2.542  0.00  0.00    -0.148 OA
BRANCH  24  27
ATOM     27  C   UNL     1       1.388  -8.575   0.032  0.00  0.00    +0.113 A 
ATOM     28  C   UNL     1       0.170  -9.190   0.254  0.00  0.00    +0.029 A 
ATOM     29  C   UNL     1      -0.427  -9.926  -0.752  0.00  0.00    +0.004 A 
ATOM     30  C   UNL     1       0.195 -10.047  -1.981  0.00  0.00    +0.033 A 
ATOM     31  C   UNL     1       1.412  -9.432  -2.203  0.00  0.00    +0.128 A 
ATOM     32  C   UNL     1       2.007  -8.693  -1.198  0.00  0.00    +0.061 A 
BRANCH  31  33
ATOM     33  N   UNL     1       2.078  -9.563  -3.519  0.00  0.00    +0.056 N 
ATOM     34  O   UNL     1       1.557 -10.208  -4.399  0.00  0.00    -0.126 OA
ATOM     35  O   UNL     1       3.143  -9.025  -3.713  0.00  0.00    -0.126 OA
ENDBRANCH  31  33
ENDBRANCH  24  27
ENDBRANCH  23  24
ENDBRANCH   6  23
TORSDOF 9
