REMARK  Name = ZINC47729582
REMARK  8 active torsions:
REMARK  status: ('A' for Active; 'I' for Inactive)
REMARK    1  A    between atoms: C_1  and  C_2
REMARK    2  A    between atoms: C_2  and  C_3
REMARK    3  A    between atoms: C_2  and  C_4
REMARK    4  A    between atoms: C_4  and  N_5
REMARK    5  A    between atoms: C_6  and  C_8
REMARK    6  A    between atoms: C_11  and  N_14
REMARK    7  A    between atoms: N_17  and  C_18
REMARK    8  A    between atoms: C_18  and  C_19
REMARK                            x       y       z     vdW  Elec       q    Type
REMARK                         _______ _______ _______ _____ _____    ______ ____
ROOT
ATOM      1  N   UNL     1      -2.510  -8.301  -0.623  0.00  0.00    -0.269 N 
ATOM      2  C   UNL     1      -1.570  -8.900  -1.380  0.00  0.00    +0.304 C 
ATOM      3  O   UNL     1      -0.682  -8.239  -1.884  0.00  0.00    -0.253 OA
ATOM      4  N   UNL     1      -1.614 -10.232  -1.580  0.00  0.00    -0.296 N 
ATOM      5  H   UNL     1      -3.179  -8.835  -0.167  0.00  0.00    +0.156 HD
ATOM      6  H   UNL     1      -2.322 -10.760  -1.178  0.00  0.00    +0.150 HD
ENDROOT
BRANCH   1  10
ATOM      7  C   UNL     1      -2.542  -4.153  -0.238  0.00  0.00    +0.037 A 
ATOM      8  C   UNL     1      -1.328  -4.838  -0.336  0.00  0.00    +0.015 A 
ATOM      9  C   UNL     1      -1.321  -6.209  -0.463  0.00  0.00    +0.024 A 
ATOM     10  C   UNL     1      -2.521  -6.913  -0.494  0.00  0.00    +0.035 A 
ATOM     11  C   UNL     1      -3.731  -6.234  -0.397  0.00  0.00    +0.024 A 
ATOM     12  C   UNL     1      -3.745  -4.864  -0.263  0.00  0.00    +0.015 A 
BRANCH   7  14
ATOM     13  N   UNL     1      -1.392  -2.001  -0.076  0.00  0.00    -0.311 N 
ATOM     14  C   UNL     1      -2.553  -2.684  -0.101  0.00  0.00    +0.244 C 
ATOM     15  O   UNL     1      -3.610  -2.090  -0.010  0.00  0.00    -0.270 OA
ATOM     16  H   UNL     1      -0.549  -2.474  -0.149  0.00  0.00    +0.149 HD
BRANCH  13  17
ATOM     17  C   UNL     1      -1.403  -0.542   0.059  0.00  0.00    +0.107 C 
BRANCH  17  19
ATOM     18  C   UNL     1       0.020   1.511   0.076  0.00  0.00    +0.009 C 
ATOM     19  C   UNL     1       0.034  -0.018   0.060  0.00  0.00    -0.000 C 
ATOM     20  C   UNL     1       0.765  -0.535   1.301  0.00  0.00    +0.009 C 
ENDBRANCH  17  19
ENDBRANCH  13  17
ENDBRANCH   7  14
ENDBRANCH   1  10
BRANCH   4  21
ATOM     21  C   UNL     1      -0.592 -10.884  -2.404  0.00  0.00    +0.153 C 
BRANCH  21  22
ATOM     22  C   UNL     1      -0.872 -12.386  -2.469  0.00  0.00    +0.228 C 
ATOM     23  C   UNL     1       0.255 -13.089  -3.238  0.00  0.00    +0.275 C 
ATOM     24  O   UNL     1      -0.044 -14.489  -3.292  0.00  0.00    -0.485 OA
ATOM     25  C   UNL     1      -1.317 -14.829  -3.635  0.00  0.00    +0.162 A 
ATOM     26  C   UNL     1      -1.585 -16.122  -4.056  0.00  0.00    +0.049 A 
ATOM     27  C   UNL     1      -2.873 -16.484  -4.404  0.00  0.00    +0.004 A 
ATOM     28  C   UNL     1      -3.897 -15.557  -4.332  0.00  0.00    +0.004 A 
ATOM     29  C   UNL     1      -3.636 -14.266  -3.914  0.00  0.00    +0.049 A 
ATOM     30  C   UNL     1      -2.345 -13.896  -3.566  0.00  0.00    +0.163 A 
ATOM     31  O   UNL     1      -2.102 -12.619  -3.163  0.00  0.00    -0.480 OA
ENDBRANCH  21  22
ENDBRANCH   4  21
TORSDOF 6
