REMARK  Name = ZINC04320906
REMARK  4 active torsions:
REMARK  status: ('A' for Active; 'I' for Inactive)
REMARK    1  A    between atoms: C_1  and  O_2
REMARK    2  A    between atoms: O_2  and  C_3
REMARK    3  A    between atoms: C_6  and  C_12
REMARK    4  A    between atoms: C_8  and  N_9
REMARK                            x       y       z     vdW  Elec       q    Type
REMARK                         _______ _______ _______ _____ _____    ______ ____
ROOT
ATOM      1  C   UNL     1       3.571  -1.958  -0.628  0.00  0.00    +0.105 C 
ATOM      2  C   UNL     1       2.561  -2.812   0.142  0.00  0.00    +0.029 C 
ATOM      3  C   UNL     1       2.365  -4.139  -0.643  0.00  0.00    +0.033 C 
ATOM      4  C   UNL     1       1.357  -3.773  -1.714  0.00  0.00    -0.030 C 
ATOM      5  C   UNL     1       0.687  -2.702  -1.369  0.00  0.00    -0.023 C 
ATOM      6  C   UNL     1       1.156  -2.196  -0.024  0.00  0.00    +0.049 C 
ATOM      7  C   UNL     1       1.206  -0.697  -0.012  0.00  0.00    -0.018 A 
ATOM      8  C   UNL     1       0.002  -0.004   0.002  0.00  0.00    +0.006 A 
ATOM      9  C   UNL     1      -0.017   1.375   0.010  0.00  0.00    +0.002 A 
ATOM     10  C   UNL     1       1.171   2.084   0.002  0.00  0.00    +0.022 A 
ATOM     11  C   UNL     1       2.373   1.406  -0.012  0.00  0.00    +0.062 A 
ATOM     12  C   UNL     1       2.395   0.011  -0.018  0.00  0.00    +0.050 A 
ATOM     13  N   UNL     1       3.638  -0.624  -0.029  0.00  0.00    -0.335 N 
ATOM     14 CL   UNL     1       3.865   2.293  -0.021  0.00  0.00    -0.082 Cl
ATOM     15  H   UNL     1       4.031  -0.664   0.900  0.00  0.00    +0.147 HD
ENDROOT
BRANCH   1  19
ATOM     16  C   UNL     1       7.425  -3.796  -0.444  0.00  0.00    +0.150 A 
ATOM     17  C   UNL     1       6.960  -3.047   0.628  0.00  0.00    +0.048 A 
ATOM     18  C   UNL     1       5.714  -2.454   0.566  0.00  0.00    +0.009 A 
ATOM     19  C   UNL     1       4.930  -2.606  -0.563  0.00  0.00    -0.025 A 
ATOM     20  C   UNL     1       5.389  -3.355  -1.630  0.00  0.00    +0.042 A 
ATOM     21  C   UNL     1       6.637  -3.946  -1.576  0.00  0.00    +0.168 A 
BRANCH  21  22
ATOM     22  N   UNL     1       7.130  -4.743  -2.721  0.00  0.00    +0.060 N 
ATOM     23  O   UNL     1       6.437  -4.875  -3.714  0.00  0.00    -0.126 OA
ATOM     24  O   UNL     1       8.228  -5.268  -2.670  0.00  0.00    -0.126 OA
ENDBRANCH  21  22
BRANCH  16  26
ATOM     25  C   UNL     1       9.407  -4.183   0.811  0.00  0.00    +0.277 C 
ATOM     26  O   UNL     1       8.650  -4.380  -0.386  0.00  0.00    -0.493 OA
ENDBRANCH  16  26
ENDBRANCH   1  19
TORSDOF 3
