REMARK  Name = ZINC22090012
REMARK  13 active torsions:
REMARK  status: ('A' for Active; 'I' for Inactive)
REMARK    1  A    between atoms: C_1  and  N_2
REMARK    2  A    between atoms: N_2  and  C_3
REMARK    3  A    between atoms: C_3  and  C_4
REMARK    4  A    between atoms: C_7  and  C_9
REMARK    5  A    between atoms: C_16  and  C_18
REMARK    6  A    between atoms: C_18  and  N_19
REMARK    7  A    between atoms: N_22  and  C_25
REMARK    8  A    between atoms: C_25  and  C_26
REMARK    9  A    between atoms: N_28  and  C_29
REMARK   10  A    between atoms: C_29  and  C_30
REMARK   11  A    between atoms: C_30  and  C_31
REMARK   12  A    between atoms: C_31  and  O_32
REMARK   13  A    between atoms: O_32  and  C_33
REMARK                            x       y       z     vdW  Elec       q    Type
REMARK                         _______ _______ _______ _____ _____    ______ ____
ROOT
ATOM      1  C   UNL     1       3.979  -3.529   3.390  0.00  0.00    +0.180 C 
ENDROOT
BRANCH   1   2
ATOM      2  N   UNL     1       2.774  -4.226   3.860  0.00  0.00    -0.298 NA
ATOM      3  C   UNL     1       1.638  -3.300   3.966  0.00  0.00    +0.066 C 
ATOM      4  C   UNL     1       0.387  -4.077   4.380  0.00  0.00    -0.063 C 
ATOM      5  N   UNL     1       0.634  -4.752   5.662  0.00  0.00    +0.387 N 
ATOM      6  C   UNL     1       1.770  -5.678   5.556  0.00  0.00    -0.063 C 
ATOM      7  C   UNL     1       3.022  -4.900   5.142  0.00  0.00    +0.066 C 
ATOM      8  H   UNL     1       0.890  -3.983   6.406  0.00  0.00    -0.081 HD
BRANCH   5   9
ATOM      9  C   UNL     1      -0.571  -5.448   6.132  0.00  0.00    +0.019 C 
BRANCH   9  10
ATOM     10  C   UNL     1      -1.639  -4.438   6.462  0.00  0.00    +0.196 C 
ATOM     11  O   UNL     1      -1.418  -3.253   6.320  0.00  0.00    -0.278 OA
ATOM     12  N   UNL     1      -2.840  -4.849   6.915  0.00  0.00    -0.317 N 
ATOM     13  H   UNL     1      -3.040  -5.923   7.043  0.00  0.00    +0.149 HD
BRANCH  12  14
ATOM     14  C   UNL     1      -3.878  -3.867   7.236  0.00  0.00    +0.106 C 
BRANCH  14  15
ATOM     15  C   UNL     1      -5.133  -4.592   7.725  0.00  0.00    +0.047 C 
BRANCH  15  16
ATOM     16  C   UNL     1      -6.217  -3.566   8.060  0.00  0.00    +0.161 C 
BRANCH  16  17
ATOM     17  O   UNL     1      -7.390  -4.244   8.517  0.00  0.00    -0.383 OA
ATOM     18  C   UNL     1      -8.469  -3.372   8.859  0.00  0.00    +0.193 C 
ENDBRANCH  16  17
ENDBRANCH  15  16
ENDBRANCH  14  15
ENDBRANCH  12  14
ENDBRANCH   9  10
ENDBRANCH   5   9
ENDBRANCH   1   2
BRANCH   1  21
ATOM     19  C   UNL     1       6.017  -2.122   2.013  0.00  0.00    +0.132 C 
ATOM     20  N   UNL     1       4.748  -2.393   1.332  0.00  0.00    -0.296 N 
ATOM     21  C   UNL     1       3.769  -3.062   1.973  0.00  0.00    +0.230 C 
ATOM     22  O   UNL     1       2.719  -3.287   1.410  0.00  0.00    -0.274 OA
BRANCH  20  23
ATOM     23  C   UNL     1       4.544  -1.939  -0.046  0.00  0.00    +0.181 C 
BRANCH  23  24
ATOM     24  C   UNL     1       3.951  -0.553  -0.035  0.00  0.00    +0.123 A 
ATOM     25  C   UNL     1       4.649   0.599  -0.036  0.00  0.00    +0.047 A 
ATOM     26  C   UNL     1       3.710   1.650  -0.023  0.00  0.00    +0.050 A 
ATOM     27  C   UNL     1       2.478   1.075  -0.015  0.00  0.00    +0.135 A 
ATOM     28  O   UNL     1       2.640  -0.262  -0.017  0.00  0.00    -0.458 OA
BRANCH  27  29
ATOM     29  C   UNL     1       1.186   1.792   0.000  0.00  0.00    +0.017 A 
ATOM     30  C   UNL     1      -0.013   1.076   0.008  0.00  0.00    +0.013 A 
ATOM     31  C   UNL     1      -1.216   1.751   0.017  0.00  0.00    +0.021 A 
ATOM     32  C   UNL     1      -1.236   3.135   0.030  0.00  0.00    +0.041 A 
ATOM     33  C   UNL     1      -0.050   3.851   0.022  0.00  0.00    +0.021 A 
ATOM     34  C   UNL     1       1.159   3.187   0.008  0.00  0.00    +0.013 A 
ATOM     35 CL   UNL     1      -2.754   3.977   0.048  0.00  0.00    -0.084 Cl
ENDBRANCH  27  29
ENDBRANCH  23  24
ENDBRANCH  20  23
ENDBRANCH   1  21
TORSDOF 11
