REMARK  Name = ZINC47327210
REMARK  6 active torsions:
REMARK  status: ('A' for Active; 'I' for Inactive)
REMARK    1  A    between atoms: C_4  and  O_7
REMARK    2  A    between atoms: O_7  and  C_8
REMARK    3  A    between atoms: C_8  and  C_9
REMARK    4  A    between atoms: C_12  and  C_14
REMARK    5  A    between atoms: N_16  and  C_17
REMARK    6  A    between atoms: C_22  and  N_23
REMARK                            x       y       z     vdW  Elec       q    Type
REMARK                         _______ _______ _______ _____ _____    ______ ____
ROOT
ATOM      1  C   UNL     1       7.923  -3.794  -1.709  0.00  0.00    +0.284 C 
ATOM      2  O   UNL     1       8.970  -4.224  -1.261  0.00  0.00    -0.266 OA
ATOM      3  N   UNL     1       7.743  -3.713  -3.042  0.00  0.00    -0.277 N 
ATOM      4  H   UNL     1       6.881  -3.446  -3.399  0.00  0.00    +0.155 HD
ENDROOT
BRANCH   3   5
ATOM      5  C   UNL     1       8.797  -4.014  -3.910  0.00  0.00    +0.060 A 
ATOM      6  C   UNL     1      10.111  -3.887  -3.480  0.00  0.00    +0.025 A 
ATOM      7  C   UNL     1      11.151  -4.185  -4.339  0.00  0.00    +0.002 A 
ATOM      8  C   UNL     1      10.887  -4.610  -5.629  0.00  0.00    +0.002 A 
ATOM      9  C   UNL     1       9.583  -4.739  -6.066  0.00  0.00    +0.030 A 
ATOM     10  C   UNL     1       8.533  -4.447  -5.208  0.00  0.00    +0.090 A 
BRANCH  10  11
ATOM     11  N   UNL     1       7.207  -4.583  -5.648  0.00  0.00    -0.198 N 
ATOM     12  C   UNL     1       6.782  -5.080  -6.830  0.00  0.00    +0.250 A 
ATOM     13  N   UNL     1       5.476  -5.025  -6.827  0.00  0.00    -0.116 NA
ATOM     14  N   UNL     1       5.046  -4.527  -5.724  0.00  0.00    -0.023 NA
ATOM     15  N   UNL     1       6.036  -4.237  -4.950  0.00  0.00    -0.039 NA
ENDBRANCH  10  11
ENDBRANCH   3   5
BRANCH   1  19
ATOM     16  C   UNL     1       4.943  -2.587  -0.061  0.00  0.00    +0.143 A 
ATOM     17  C   UNL     1       5.681  -2.895   1.028  0.00  0.00    +0.049 A 
ATOM     18  C   UNL     1       6.910  -3.393   0.567  0.00  0.00    +0.055 A 
ATOM     19  C   UNL     1       6.858  -3.365  -0.797  0.00  0.00    +0.190 A 
ATOM     20  O   UNL     1       5.654  -2.876  -1.159  0.00  0.00    -0.452 OA
BRANCH  16  21
ATOM     21  C   UNL     1       3.548  -2.018  -0.044  0.00  0.00    +0.303 C 
BRANCH  21  22
ATOM     22  O   UNL     1       3.615  -0.591  -0.038  0.00  0.00    -0.484 OA
BRANCH  22  26
ATOM     23  C   UNL     1       0.032   1.453   0.009  0.00  0.00    +0.000 A 
ATOM     24  C   UNL     1       1.225   2.152   0.001  0.00  0.00    +0.004 A 
ATOM     25  C   UNL     1       2.426   1.470  -0.015  0.00  0.00    +0.045 A 
ATOM     26  C   UNL     1       2.435   0.083  -0.022  0.00  0.00    +0.121 A 
ATOM     27  C   UNL     1       1.236  -0.616  -0.013  0.00  0.00    +0.045 A 
ATOM     28  C   UNL     1       0.038   0.071   0.002  0.00  0.00    +0.004 A 
ENDBRANCH  22  26
ENDBRANCH  21  22
ENDBRANCH  16  21
ENDBRANCH   1  19
TORSDOF 6
