REMARK  Name = ZINC40339948
REMARK  6 active torsions:
REMARK  status: ('A' for Active; 'I' for Inactive)
REMARK    1  A    between atoms: C_1  and  C_2
REMARK    2  A    between atoms: C_5  and  C_8
REMARK    3  A    between atoms: N_16  and  C_28
REMARK    4  A    between atoms: C_17  and  C_19
REMARK    5  A    between atoms: C_22  and  N_25
REMARK    6  A    between atoms: C_28  and  C_29
REMARK                            x       y       z     vdW  Elec       q    Type
REMARK                         _______ _______ _______ _____ _____    ______ ____
ROOT
ATOM      1  C   UNL     1      -0.207  -4.722  -0.192  0.00  0.00    +0.099 A 
ATOM      2  C   UNL     1       0.534  -5.418   0.768  0.00  0.00    +0.035 A 
ATOM      3  C   UNL     1       0.406  -6.755   0.446  0.00  0.00    +0.126 A 
ATOM      4  N   UNL     1      -0.387  -6.804  -0.666  0.00  0.00    -0.272 N 
ATOM      5  H   UNL     1      -0.654  -7.615  -1.125  0.00  0.00    +0.189 HD
ATOM      6  N   UNL     1      -0.732  -5.614  -1.009  0.00  0.00    -0.173 NA
ATOM      7  C   UNL     1       1.165  -7.545   1.421  0.00  0.00    +0.266 C 
ATOM      8  O   UNL     1       1.254  -8.758   1.414  0.00  0.00    -0.268 OA
ATOM      9  N   UNL     1       1.750  -6.738   2.324  0.00  0.00    -0.283 N 
ATOM     10  C   UNL     1       1.406  -5.349   1.992  0.00  0.00    +0.141 C 
ENDROOT
BRANCH   1  15
ATOM     11  C   UNL     1      -0.870   0.991  -0.505  0.00  0.00    +0.044 C 
ATOM     12  C   UNL     1      -0.697  -0.503  -0.423  0.00  0.00    -0.050 A 
ATOM     13  C   UNL     1      -0.628  -1.254  -1.583  0.00  0.00    +0.004 A 
ATOM     14  C   UNL     1      -0.469  -2.623  -1.514  0.00  0.00    +0.010 A 
ATOM     15  C   UNL     1      -0.378  -3.249  -0.273  0.00  0.00    +0.002 A 
ATOM     16  C   UNL     1      -0.447  -2.489   0.892  0.00  0.00    +0.010 A 
ATOM     17  C   UNL     1      -0.601  -1.119   0.811  0.00  0.00    +0.004 A 
ENDBRANCH   1  15
BRANCH  10  18
ATOM     18  C   UNL     1       2.656  -4.562   1.695  0.00  0.00    -0.022 A 
ATOM     19  C   UNL     1       3.655  -5.117   0.917  0.00  0.00    +0.008 A 
ATOM     20  C   UNL     1       4.801  -4.395   0.645  0.00  0.00    +0.033 A 
ATOM     21  C   UNL     1       4.949  -3.117   1.150  0.00  0.00    +0.126 A 
ATOM     22  C   UNL     1       3.950  -2.561   1.927  0.00  0.00    +0.033 A 
ATOM     23  C   UNL     1       2.802  -3.281   2.196  0.00  0.00    +0.008 A 
BRANCH  21  24
ATOM     24  N   UNL     1       6.177  -2.343   0.859  0.00  0.00    +0.056 N 
ATOM     25  O   UNL     1       7.051  -2.830   0.180  0.00  0.00    -0.126 OA
ATOM     26  O   UNL     1       6.307  -1.226   1.301  0.00  0.00    -0.126 OA
ENDBRANCH  21  24
ENDBRANCH  10  18
BRANCH   9  27
ATOM     27  C   UNL     1       2.587  -7.169   3.447  0.00  0.00    +0.140 C 
BRANCH  27  28
ATOM     28  C   UNL     1       1.728  -7.282   4.708  0.00  0.00    +0.136 C 
ATOM     29  C   UNL     1       2.618  -7.650   5.916  0.00  0.00    +0.035 C 
ATOM     30  C   UNL     1       1.720  -8.650   6.694  0.00  0.00    +0.031 C 
ATOM     31  C   UNL     1       0.985  -9.356   5.527  0.00  0.00    +0.160 C 
ATOM     32  O   UNL     1       0.762  -8.327   4.546  0.00  0.00    -0.375 OA
ENDBRANCH  27  28
ENDBRANCH   9  27
TORSDOF 5
