REMARK  Name = ZINC39795356
REMARK  10 active torsions:
REMARK  status: ('A' for Active; 'I' for Inactive)
REMARK    1  A    between atoms: C_1  and  C_2
REMARK    2  A    between atoms: C_2  and  C_3
REMARK    3  A    between atoms: C_2  and  C_4
REMARK    4  A    between atoms: C_2  and  N_5
REMARK    5  A    between atoms: C_9  and  C_11
REMARK    6  A    between atoms: C_11  and  C_12
REMARK    7  A    between atoms: C_12  and  S_13
REMARK    8  A    between atoms: S_13  and  C_14
REMARK    9  A    between atoms: C_18  and  C_23
REMARK   10  A    between atoms: N_19  and  C_20
REMARK                            x       y       z     vdW  Elec       q    Type
REMARK                         _______ _______ _______ _____ _____    ______ ____
ROOT
ATOM      1  C   UNL     1       8.612  -0.072  -5.381  0.00  0.00    +0.237 C 
ATOM      2  N   UNL     1       8.697   1.397  -5.339  0.00  0.00    -0.237 N 
ATOM      3  N   UNL     1       9.098   1.735  -4.042  0.00  0.00    -0.169 NA
ATOM      4  C   UNL     1       9.265   0.669  -3.303  0.00  0.00    +0.147 C 
ATOM      5  N   UNL     1       8.995  -0.499  -4.025  0.00  0.00    -0.282 N 
ATOM      6  H   UNL     1       8.512   2.010  -6.068  0.00  0.00    +0.171 HD
ENDROOT
BRANCH   4   7
ATOM      7  C   UNL     1       9.666   0.693  -1.959  0.00  0.00    +0.022 C 
ATOM      8  C   UNL     1       9.855   1.818  -1.155  0.00  0.00    +0.006 A 
ATOM      9  C   UNL     1       9.718   3.200  -1.402  0.00  0.00    +0.010 A 
ATOM     10  C   UNL     1       9.974   4.091  -0.410  0.00  0.00    +0.001 A 
ATOM     11  C   UNL     1      10.373   3.674   0.862  0.00  0.00    +0.002 A 
ATOM     12  C   UNL     1      10.525   2.362   1.170  0.00  0.00    +0.026 A 
ATOM     13  C   UNL     1      10.275   1.373   0.184  0.00  0.00    +0.043 A 
ATOM     14  N   UNL     1      10.349   0.057   0.230  0.00  0.00    -0.380 N 
ATOM     15  C   UNL     1       9.976  -0.495  -1.076  0.00  0.00    +0.152 C 
ATOM     16  H   UNL     1      10.604  -0.464   1.008  0.00  0.00    +0.160 HD
ENDBRANCH   4   7
BRANCH   5  17
ATOM     17  C   UNL     1       9.076  -1.876  -3.531  0.00  0.00    +0.078 C 
ATOM     18  C   UNL     1       8.823  -3.003  -4.534  0.00  0.00    +0.024 C 
ATOM     19  C   UNL     1       7.776  -2.681  -3.466  0.00  0.00    +0.024 C 
ENDBRANCH   5  17
BRANCH   1  20
ATOM     20  S   UNL     1       6.918  -0.600  -5.758  0.00  0.00    -0.118 S 
BRANCH  20  21
ATOM     21  C   UNL     1       5.918   0.172  -4.455  0.00  0.00    +0.082 C 
BRANCH  21  22
ATOM     22  C   UNL     1       4.447  -0.196  -4.656  0.00  0.00    +0.107 C 
BRANCH  22  27
ATOM     23  N   UNL     1       0.205   0.645  -2.556  0.00  0.00    -0.294 N 
ATOM     24  C   UNL     1       1.540   0.832  -2.582  0.00  0.00    +0.306 C 
ATOM     25  O   UNL     1       2.073   1.517  -1.732  0.00  0.00    -0.252 OA
ATOM     26  N   UNL     1       2.282   0.258  -3.549  0.00  0.00    -0.240 N 
ATOM     27  C   UNL     1       3.617   0.445  -3.574  0.00  0.00    +0.221 C 
ATOM     28  O   UNL     1       4.149   1.129  -2.726  0.00  0.00    -0.275 OA
ATOM     29  H   UNL     1      -0.221   0.098  -3.235  0.00  0.00    +0.151 HD
ATOM     30  H   UNL     1       1.856  -0.289  -4.227  0.00  0.00    +0.159 HD
BRANCH  23  32
ATOM     31  C   UNL     1      -0.443   2.788  -1.573  0.00  0.00    +0.031 C 
ATOM     32  C   UNL     1      -0.602   1.268  -1.505  0.00  0.00    +0.028 C 
ATOM     33  C   UNL     1      -0.133   0.767  -0.137  0.00  0.00    +0.031 C 
ATOM     34  C   UNL     1      -2.074   0.900  -1.705  0.00  0.00    +0.031 C 
ENDBRANCH  23  32
ENDBRANCH  22  27
ENDBRANCH  21  22
ENDBRANCH  20  21
ENDBRANCH   1  20
TORSDOF 7
