REMARK  Name = ZINC39866580
REMARK  6 active torsions:
REMARK  status: ('A' for Active; 'I' for Inactive)
REMARK    1  A    between atoms: C_1  and  C_2
REMARK    2  A    between atoms: C_5  and  N_7
REMARK    3  A    between atoms: N_9  and  C_23
REMARK    4  A    between atoms: C_13  and  C_14
REMARK    5  A    between atoms: C_13  and  C_15
REMARK    6  A    between atoms: C_18  and  O_21
REMARK                            x       y       z     vdW  Elec       q    Type
REMARK                         _______ _______ _______ _____ _____    ______ ____
ROOT
ATOM      1  N   UNL     1       0.003  -3.946   0.734  0.00  0.00    -0.198 NA
ATOM      2  C   UNL     1      -0.059  -4.892  -0.179  0.00  0.00    +0.171 C 
ATOM      3  N   UNL     1      -0.050  -4.761  -1.550  0.00  0.00    -0.243 N 
ATOM      4  C   UNL     1      -0.119  -5.826  -2.330  0.00  0.00    +0.260 C 
ATOM      5  O   UNL     1      -0.113  -5.727  -3.543  0.00  0.00    -0.269 OA
ATOM      6  C   UNL     1      -0.205  -7.139  -1.663  0.00  0.00    +0.081 C 
ATOM      7  C   UNL     1      -0.286  -8.379  -2.210  0.00  0.00    -0.024 C 
ATOM      8  C   UNL     1      -0.297  -8.543  -3.708  0.00  0.00    +0.045 C 
ATOM      9  S   UNL     1      -0.166  -6.659   0.057  0.00  0.00    -0.048 S 
ENDROOT
BRANCH   1  14
ATOM     10  C   UNL     1      -1.181   1.220  -0.738  0.00  0.00    +0.075 C 
ATOM     11  C   UNL     1      -0.658  -0.137  -0.345  0.00  0.00    +0.101 A 
ATOM     12  N   UNL     1       0.583  -0.554  -0.190  0.00  0.00    -0.145 NA
ATOM     13  N   UNL     1       0.859  -1.737   0.148  0.00  0.00    -0.121 NA
ATOM     14  C   UNL     1      -0.096  -2.641   0.369  0.00  0.00    +0.217 A 
ATOM     15  S   UNL     1      -1.547  -1.640   0.053  0.00  0.00    -0.031 S 
ENDBRANCH   1  14
BRANCH   7  16
ATOM     16  C   UNL     1      -0.363  -9.561  -1.342  0.00  0.00    -0.021 A 
ATOM     17  C   UNL     1       0.713  -9.893  -0.509  0.00  0.00    +0.012 A 
ATOM     18  C   UNL     1       0.635 -11.001   0.303  0.00  0.00    +0.046 A 
ATOM     19  C   UNL     1      -0.509 -11.791   0.297  0.00  0.00    +0.117 A 
ATOM     20  C   UNL     1      -1.580 -11.467  -0.527  0.00  0.00    +0.046 A 
ATOM     21  C   UNL     1      -1.516 -10.357  -1.339  0.00  0.00    +0.012 A 
BRANCH  19  22
ATOM     22  O   UNL     1      -0.580 -12.885   1.100  0.00  0.00    -0.507 OA
ATOM     23  H   UNL     1      -0.946 -12.706   1.977  0.00  0.00    +0.292 HD
ENDBRANCH  19  22
ENDBRANCH   7  16
BRANCH   3  24
ATOM     24  C   UNL     1       0.037  -3.427  -2.150  0.00  0.00    +0.084 C 
ATOM     25  C   UNL     1      -1.266  -3.114  -2.887  0.00  0.00    +0.023 C 
ATOM     26  C   UNL     1      -1.175  -1.721  -3.514  0.00  0.00    +0.002 C 
ATOM     27  C   UNL     1      -0.007  -1.681  -4.502  0.00  0.00    +0.000 C 
ATOM     28  C   UNL     1       1.296  -1.994  -3.764  0.00  0.00    +0.002 C 
ATOM     29  C   UNL     1       1.205  -3.387  -3.138  0.00  0.00    +0.023 C 
ENDBRANCH   3  24
TORSDOF 4
