REMARK  Name = ZINC57335242
REMARK  4 active torsions:
REMARK  status: ('A' for Active; 'I' for Inactive)
REMARK    1  A    between atoms: C_2  and  C_18
REMARK    2  A    between atoms: C_6  and  N_7
REMARK    3  A    between atoms: C_8  and  C_10
REMARK    4  A    between atoms: C_10  and  N_11
REMARK                            x       y       z     vdW  Elec       q    Type
REMARK                         _______ _______ _______ _____ _____    ______ ____
ROOT
ATOM      1  C   UNL     1       0.069   1.236   0.626  0.00  0.00    +0.036 A 
ATOM      2  C   UNL     1       1.270   1.945   0.627  0.00  0.00    +0.029 A 
ATOM      3  C   UNL     1       2.398   1.400   0.011  0.00  0.00    +0.052 A 
ATOM      4  C   UNL     1       2.322   0.163  -0.598  0.00  0.00    +0.042 A 
ATOM      5  C   UNL     1       1.131  -0.540  -0.599  0.00  0.00    +0.064 A 
ATOM      6  C   UNL     1       0.003  -0.005   0.013  0.00  0.00    +0.053 A 
ATOM      7 CL   UNL     1       1.044  -2.095  -1.367  0.00  0.00    -0.082 Cl
ATOM      8 CL   UNL     1       3.895   2.279   0.008  0.00  0.00    -0.083 Cl
ENDROOT
BRANCH   2   9
ATOM      9  C   UNL     1       1.348   3.270   1.280  0.00  0.00    +0.134 A 
ATOM     10  N   UNL     1       2.372   4.079   1.379  0.00  0.00    -0.156 NA
ATOM     11  N   UNL     1       2.265   5.299   2.034  0.00  0.00    -0.193 N 
ATOM     12  C   UNL     1       3.040   6.394   2.355  0.00  0.00    +0.249 A 
ATOM     13  N   UNL     1       2.295   7.236   3.014  0.00  0.00    -0.135 NA
ATOM     14  N   UNL     1       1.102   6.766   3.139  0.00  0.00    -0.121 NA
ATOM     15  C   UNL     1       1.035   5.603   2.566  0.00  0.00    +0.218 A 
ATOM     16  S   UNL     1       0.067   4.181   2.128  0.00  0.00    -0.026 S 
ENDBRANCH   2   9
BRANCH   6  17
ATOM     17  N   UNL     1      -1.201  -0.721   0.010  0.00  0.00    -0.286 N 
ATOM     18  C   UNL     1      -2.374  -0.067   0.127  0.00  0.00    +0.201 C 
ATOM     19  O   UNL     1      -2.394   1.146   0.134  0.00  0.00    -0.278 OA
ATOM     20  H   UNL     1      -1.191  -1.687  -0.076  0.00  0.00    +0.155 HD
BRANCH  18  21
ATOM     21  C   UNL     1      -3.660  -0.843   0.249  0.00  0.00    +0.019 C 
BRANCH  21  22
ATOM     22  N   UNL     1      -4.787   0.092   0.363  0.00  0.00    +0.385 N 
ATOM     23  C   UNL     1      -4.984   0.816  -0.920  0.00  0.00    -0.078 C 
ATOM     24  C   UNL     1      -6.457   1.288  -0.838  0.00  0.00    -0.020 C 
ATOM     25  C   UNL     1      -7.162   0.102  -0.141  0.00  0.00    -0.020 C 
ATOM     26  C   UNL     1      -6.044  -0.650   0.604  0.00  0.00    -0.078 C 
ATOM     27  H   UNL     1      -4.622   0.748   1.111  0.00  0.00    -0.081 HD
ENDBRANCH  21  22
ENDBRANCH  18  21
ENDBRANCH   6  17
TORSDOF 4
