REMARK  Name = ZINC08743299
REMARK  5 active torsions:
REMARK  status: ('A' for Active; 'I' for Inactive)
REMARK    1  A    between atoms: C_4  and  C_7
REMARK    2  A    between atoms: C_13  and  C_15
REMARK    3  A    between atoms: C_15  and  S_16
REMARK    4  A    between atoms: S_16  and  C_17
REMARK    5  A    between atoms: C_20  and  N_23
REMARK                            x       y       z     vdW  Elec       q    Type
REMARK                         _______ _______ _______ _____ _____    ______ ____
ROOT
ATOM      1  C   UNL     1      -8.589  10.943   0.102  0.00  0.00    +0.134 A 
ATOM      2  N   UNL     1      -8.918   9.657   0.096  0.00  0.00    -0.140 NA
ATOM      3  N   UNL     1      -8.020   8.770   0.082  0.00  0.00    -0.125 NA
ATOM      4  C   UNL     1      -6.733   9.075   0.083  0.00  0.00    +0.188 A 
ATOM      5  S   UNL     1      -6.805  10.813   0.093  0.00  0.00    -0.030 S 
ATOM      6  N   UNL     1      -5.625   8.237   0.073  0.00  0.00    -0.263 N 
ATOM      7  C   UNL     1      -5.792   6.899   0.067  0.00  0.00    +0.229 C 
ATOM      8  O   UNL     1      -6.910   6.428   0.070  0.00  0.00    -0.275 OA
ATOM      9  H   UNL     1      -4.611   8.664   0.071  0.00  0.00    +0.157 HD
ENDROOT
BRANCH   1  13
ATOM     10  C   UNL     1     -11.070  14.391   0.133  0.00  0.00    +0.000 A 
ATOM     11  C   UNL     1     -11.642  13.131   0.128  0.00  0.00    +0.001 A 
ATOM     12  C   UNL     1     -10.842  12.007   0.118  0.00  0.00    +0.010 A 
ATOM     13  C   UNL     1      -9.453  12.143   0.112  0.00  0.00    +0.009 A 
ATOM     14  C   UNL     1      -8.883  13.417   0.122  0.00  0.00    +0.010 A 
ATOM     15  C   UNL     1      -9.694  14.533   0.126  0.00  0.00    +0.001 A 
ENDBRANCH   1  13
BRANCH   7  16
ATOM     16  C   UNL     1      -4.591   5.990   0.056  0.00  0.00    +0.172 C 
BRANCH  16  17
ATOM     17  S   UNL     1      -5.141   4.261   0.049  0.00  0.00    -0.097 S 
BRANCH  17  18
ATOM     18  C   UNL     1      -3.641   3.337   0.037  0.00  0.00    +0.097 A 
ATOM     19  C   UNL     1      -3.688   1.945   0.030  0.00  0.00    +0.037 A 
ATOM     20  C   UNL     1      -2.504   1.232   0.021  0.00  0.00    +0.037 A 
ATOM     21  C   UNL     1      -1.306   1.936   0.019  0.00  0.00    +0.144 A 
ATOM     22  C   UNL     1      -1.333   3.316   0.032  0.00  0.00    +0.144 A 
ATOM     23  N   UNL     1      -2.478   3.971   0.036  0.00  0.00    -0.246 NA
BRANCH  21  24
ATOM     24  N   UNL     1      -0.014   1.214   0.009  0.00  0.00    +0.058 N 
ATOM     25  O   UNL     1       0.002  -0.004   0.002  0.00  0.00    -0.126 OA
ATOM     26  O   UNL     1       1.032   1.837   0.002  0.00  0.00    -0.126 OA
ENDBRANCH  21  24
ENDBRANCH  17  18
ENDBRANCH  16  17
ENDBRANCH   7  16
TORSDOF 5
