REMARK  Name = ZINC17196092
REMARK  5 active torsions:
REMARK  status: ('A' for Active; 'I' for Inactive)
REMARK    1  A    between atoms: C_7  and  C_13
REMARK    2  A    between atoms: N_15  and  N_16
REMARK    3  A    between atoms: C_17  and  C_19
REMARK    4  A    between atoms: C_19  and  C_20
REMARK    5  A    between atoms: C_29  and  O_32
REMARK                            x       y       z     vdW  Elec       q    Type
REMARK                         _______ _______ _______ _____ _____    ______ ____
ROOT
ATOM      1  N   UNL     1      -3.640  -0.844   0.034  0.00  0.00    -0.234 N 
ATOM      2  C   UNL     1      -4.821  -0.194   0.049  0.00  0.00    +0.230 C 
ATOM      3  O   UNL     1      -4.846   1.019   0.056  0.00  0.00    -0.274 OA
ATOM      4  H   UNL     1      -3.618  -1.944   0.028  0.00  0.00    +0.173 HD
ENDROOT
BRANCH   1   7
ATOM      5  C   UNL     1      -1.261  -0.768   0.011  0.00  0.00    +0.281 C 
ATOM      6  O   UNL     1      -1.236  -1.984   0.004  0.00  0.00    -0.267 OA
ATOM      7  N   UNL     1      -2.442  -0.118   0.026  0.00  0.00    -0.229 N 
ATOM      8  H   UNL     1      -2.464   0.981   0.032  0.00  0.00    +0.173 HD
BRANCH   5  15
ATOM      9  C   UNL     1       2.652  -2.674  -0.038  0.00  0.00    +0.001 A 
ATOM     10  C   UNL     1       3.800  -1.894  -0.045  0.00  0.00    +0.001 A 
ATOM     11  C   UNL     1       3.718  -0.518  -0.037  0.00  0.00    +0.014 A 
ATOM     12  C   UNL     1       2.466   0.090  -0.021  0.00  0.00    +0.050 A 
ATOM     13  C   UNL     1       1.296  -0.705  -0.014  0.00  0.00    +0.020 A 
ATOM     14  C   UNL     1       1.402  -2.091  -0.023  0.00  0.00    +0.011 A 
ATOM     15  C   UNL     1       0.002  -0.004   0.002  0.00  0.00    +0.155 A 
ATOM     16  N   UNL     1      -0.016   1.307   0.009  0.00  0.00    -0.166 NA
ATOM     17  N   UNL     1       1.032   2.041   0.003  0.00  0.00    -0.242 N 
ATOM     18  H   UNL     1       0.935   3.137   0.010  0.00  0.00    +0.192 HD
ATOM     19  C   UNL     1       2.287   1.548  -0.011  0.00  0.00    +0.272 A 
ATOM     20  O   UNL     1       3.249   2.294  -0.017  0.00  0.00    -0.266 OA
ENDBRANCH   5  15
ENDBRANCH   1   7
BRANCH   2  21
ATOM     21  C   UNL     1      -6.111  -0.974   0.058  0.00  0.00    +0.104 C 
BRANCH  21  22
ATOM     22  C   UNL     1      -7.293  -0.004   0.074  0.00  0.00    -0.018 C 
ATOM     23  C   UNL     1      -7.218   0.871   1.328  0.00  0.00    +0.011 C 
ATOM     24  C   UNL     1      -8.401   1.841   1.345  0.00  0.00    -0.007 C 
ATOM     25  C   UNL     1      -8.350   2.729   0.100  0.00  0.00    +0.007 C 
ATOM     26  C   UNL     1      -8.426   1.854  -1.154  0.00  0.00    -0.007 C 
ATOM     27  C   UNL     1      -7.243   0.884  -1.171  0.00  0.00    +0.011 C 
ATOM     28  C   UNL     1      -9.735   1.062  -1.145  0.00  0.00    +0.038 C 
ATOM     29  C   UNL     1      -9.785   0.174   0.100  0.00  0.00    +0.067 C 
ATOM     30  C   UNL     1      -9.710   1.049   1.353  0.00  0.00    +0.038 C 
ATOM     31  C   UNL     1      -8.602  -0.796   0.083  0.00  0.00    +0.042 C 
BRANCH  29  32
ATOM     32  O   UNL     1     -11.008  -0.565   0.108  0.00  0.00    -0.389 OA
ATOM     33  H   UNL     1     -11.224  -1.262   0.932  0.00  0.00    +0.210 HD
ENDBRANCH  29  32
ENDBRANCH  21  22
ENDBRANCH   2  21
TORSDOF 5
