REMARK  Name = ZINC24906890
REMARK  8 active torsions:
REMARK  status: ('A' for Active; 'I' for Inactive)
REMARK    1  A    between atoms: C_1  and  C_2
REMARK    2  A    between atoms: N_7  and  C_9
REMARK    3  A    between atoms: C_12  and  C_18
REMARK    4  A    between atoms: C_14  and  N_15
REMARK    5  A    between atoms: C_18  and  O_20
REMARK    6  A    between atoms: O_20  and  C_21
REMARK    7  A    between atoms: C_21  and  C_22
REMARK    8  A    between atoms: C_28  and  C_30
REMARK                            x       y       z     vdW  Elec       q    Type
REMARK                         _______ _______ _______ _____ _____    ______ ____
ROOT
ATOM      1  C   UNL     1       1.185   1.786   0.000  0.00  0.00    +0.060 A 
ATOM      2  C   UNL     1      -0.013   1.076   0.008  0.00  0.00    +0.026 A 
ATOM      3  C   UNL     1      -1.206   1.740   0.017  0.00  0.00    +0.017 A 
ATOM      4  C   UNL     1      -1.228   3.139   0.030  0.00  0.00    +0.061 A 
ATOM      5  C   UNL     1      -0.027   3.855   0.023  0.00  0.00    +0.049 A 
ATOM      6  C   UNL     1       1.172   3.179   0.008  0.00  0.00    +0.148 A 
ENDROOT
BRANCH   1  12
ATOM      7  C   UNL     1       4.018  -1.259  -2.501  0.00  0.00    +0.009 C 
ATOM      8  C   UNL     1       3.907  -0.361  -1.267  0.00  0.00    +0.003 C 
ATOM      9  C   UNL     1       4.142  -1.196  -0.005  0.00  0.00    +0.006 C 
ATOM     10  C   UNL     1       3.970  -0.304   1.227  0.00  0.00    +0.019 C 
ATOM     11  C   UNL     1       2.571   0.315   1.212  0.00  0.00    +0.105 C 
ATOM     12  N   UNL     1       2.396   1.104  -0.014  0.00  0.00    -0.328 N 
ATOM     13  C   UNL     1       2.510   0.259  -1.210  0.00  0.00    +0.108 C 
ENDBRANCH   1  12
BRANCH   6  14
ATOM     14  N   UNL     1       2.447   3.931   0.001  0.00  0.00    +0.058 N 
ATOM     15  O   UNL     1       2.435   5.149   0.007  0.00  0.00    -0.126 OA
ATOM     16  O   UNL     1       3.507   3.332  -0.012  0.00  0.00    -0.126 OA
ENDBRANCH   6  14
BRANCH   4  17
ATOM     17  C   UNL     1      -2.515   3.857   0.045  0.00  0.00    +0.340 C 
ATOM     18  O   UNL     1      -2.534   5.072   0.051  0.00  0.00    -0.245 OA
BRANCH  17  19
ATOM     19  O   UNL     1      -3.672   3.165   0.052  0.00  0.00    -0.455 OA
BRANCH  19  20
ATOM     20  C   UNL     1      -4.902   3.938   0.067  0.00  0.00    +0.288 C 
BRANCH  20  21
ATOM     21  C   UNL     1      -6.083   3.002   0.072  0.00  0.00    +0.088 A 
ATOM     22  C   UNL     1      -5.903   1.659   0.064  0.00  0.00    +0.075 A 
ATOM     23  S   UNL     1      -7.599   1.097   0.076  0.00  0.00    -0.060 S 
ATOM     24  C   UNL     1      -8.355   2.660   0.091  0.00  0.00    +0.165 A 
ATOM     25  N   UNL     1      -7.315   3.471   0.091  0.00  0.00    -0.226 NA
ATOM     26  N   UNL     1      -9.709   2.976   0.105  0.00  0.00    -0.265 N 
ATOM     27  C   UNL     1     -10.630   1.992   0.107  0.00  0.00    +0.216 C 
ATOM     28  O   UNL     1     -10.278   0.832   0.098  0.00  0.00    -0.276 OA
ATOM     29  C   UNL     1     -12.098   2.335   0.122  0.00  0.00    +0.109 C 
ATOM     30  H   UNL     1     -10.028   4.029   0.113  0.00  0.00    +0.157 HD
ENDBRANCH  20  21
ENDBRANCH  19  20
ENDBRANCH  17  19
ENDBRANCH   4  17
TORSDOF 6
