REMARK  Name = ZINC16330680
REMARK  8 active torsions:
REMARK  status: ('A' for Active; 'I' for Inactive)
REMARK    1  A    between atoms: C_1  and  C_2
REMARK    2  A    between atoms: C_2  and  C_4
REMARK    3  A    between atoms: C_2  and  S_17
REMARK    4  A    between atoms: N_6  and  C_7
REMARK    5  A    between atoms: C_10  and  N_14
REMARK    6  A    between atoms: S_17  and  C_18
REMARK    7  A    between atoms: N_23  and  C_24
REMARK    8  A    between atoms: C_24  and  C_25
REMARK                            x       y       z     vdW  Elec       q    Type
REMARK                         _______ _______ _______ _____ _____    ______ ____
ROOT
ATOM      1  C   UNL     1      -7.060   5.970   6.743  0.00  0.00    +0.029 C 
ATOM      2  C   UNL     1      -6.593   4.919   7.751  0.00  0.00    +0.136 C 
ENDROOT
BRANCH   2   3
ATOM      3  C   UNL     1      -7.226   5.192   9.091  0.00  0.00    +0.230 C 
ATOM      4  O   UNL     1      -6.627   5.838   9.925  0.00  0.00    -0.274 OA
ATOM      5  N   UNL     1      -8.458   4.718   9.364  0.00  0.00    -0.283 N 
ATOM      6  H   UNL     1      -8.963   4.258   8.676  0.00  0.00    +0.155 HD
BRANCH   5   7
ATOM      7  C   UNL     1      -9.008   4.891  10.639  0.00  0.00    +0.052 A 
ATOM      8  C   UNL     1      -8.735   6.043  11.365  0.00  0.00    +0.027 A 
ATOM      9  C   UNL     1      -9.279   6.210  12.623  0.00  0.00    +0.034 A 
ATOM     10  C   UNL     1     -10.095   5.232  13.161  0.00  0.00    +0.128 A 
ATOM     11  C   UNL     1     -10.370   4.083  12.442  0.00  0.00    +0.054 A 
ATOM     12  C   UNL     1      -9.833   3.912  11.180  0.00  0.00    +0.064 A 
ATOM     13 CL   UNL     1     -10.183   2.473  10.275  0.00  0.00    -0.082 Cl
BRANCH  10  14
ATOM     14  N   UNL     1     -10.677   5.415  14.510  0.00  0.00    +0.056 N 
ATOM     15  O   UNL     1     -10.436   6.427  15.145  0.00  0.00    -0.126 OA
ATOM     16  O   UNL     1     -11.396   4.554  14.986  0.00  0.00    -0.126 OA
ENDBRANCH  10  14
ENDBRANCH   5   7
ENDBRANCH   2   3
BRANCH   2  17
ATOM     17  S   UNL     1      -4.787   4.993   7.909  0.00  0.00    -0.084 S 
BRANCH  17  18
ATOM     18  C   UNL     1      -4.200   4.513   6.319  0.00  0.00    +0.161 A 
ATOM     19  N   UNL     1      -4.884   4.173   5.243  0.00  0.00    -0.133 NA
ATOM     20  N   UNL     1      -4.218   3.834   4.088  0.00  0.00    -0.125 NA
ATOM     21  C   UNL     1      -2.900   3.840   4.064  0.00  0.00    +0.182 A 
ATOM     22  S   UNL     1      -2.520   4.356   5.732  0.00  0.00    -0.025 S 
ATOM     23  N   UNL     1      -2.036   3.532   3.020  0.00  0.00    -0.320 N 
ATOM     24  H   UNL     1      -1.076   3.587   3.152  0.00  0.00    +0.148 HD
BRANCH  23  25
ATOM     25  C   UNL     1      -2.574   3.126   1.720  0.00  0.00    +0.135 C 
BRANCH  25  26
ATOM     26  C   UNL     1      -1.421   2.847   0.754  0.00  0.00    +0.135 C 
ATOM     27  C   UNL     1      -1.960   2.536  -0.665  0.00  0.00    +0.035 C 
ATOM     28  C   UNL     1      -0.809   1.696  -1.272  0.00  0.00    +0.031 C 
ATOM     29  C   UNL     1      -0.037   1.171  -0.047  0.00  0.00    +0.160 C 
ATOM     30  O   UNL     1      -0.726   1.635   1.127  0.00  0.00    -0.375 OA
ENDBRANCH  25  26
ENDBRANCH  23  25
ENDBRANCH  17  18
ENDBRANCH   2  17
TORSDOF 7
