REMARK  Name = ZINC66057716
REMARK  4 active torsions:
REMARK  status: ('A' for Active; 'I' for Inactive)
REMARK    1  A    between atoms: C_2  and  C_3
REMARK    2  A    between atoms: C_3  and  N_4
REMARK    3  A    between atoms: C_8  and  C_10
REMARK    4  A    between atoms: C_10  and  N_11
REMARK                            x       y       z     vdW  Elec       q    Type
REMARK                         _______ _______ _______ _____ _____    ______ ____
ROOT
ATOM      1  N   UNL     1       4.922  -5.757   3.664  0.00  0.00    -0.215 N 
ATOM      2  C   UNL     1       5.133  -6.919   3.011  0.00  0.00    +0.247 C 
ATOM      3  O   UNL     1       4.333  -7.545   2.350  0.00  0.00    -0.273 OA
ATOM      4  C   UNL     1       6.577  -7.274   3.277  0.00  0.00    +0.117 C 
ATOM      5  C   UNL     1       6.672  -8.604   4.021  0.00  0.00    +0.040 C 
ATOM      6  C   UNL     1       5.906  -9.661   3.227  0.00  0.00    +0.038 C 
ATOM      7  C   UNL     1       6.337  -9.657   1.784  0.00  0.00    -0.044 A 
ATOM      8  C   UNL     1       6.046 -10.780   1.021  0.00  0.00    +0.004 A 
ATOM      9  C   UNL     1       6.408 -10.839  -0.309  0.00  0.00    +0.000 A 
ATOM     10  C   UNL     1       7.066  -9.770  -0.889  0.00  0.00    +0.000 A 
ATOM     11  C   UNL     1       7.357  -8.654  -0.133  0.00  0.00    +0.004 A 
ATOM     12  C   UNL     1       6.997  -8.595   1.208  0.00  0.00    -0.042 A 
ATOM     13  C   UNL     1       7.364  -7.353   1.978  0.00  0.00    +0.070 C 
ATOM     14  N   UNL     1       7.066  -6.177   4.121  0.00  0.00    -0.285 N 
ATOM     15  C   UNL     1       6.028  -5.336   4.290  0.00  0.00    +0.310 C 
ATOM     16  O   UNL     1       6.088  -4.311   4.942  0.00  0.00    -0.252 OA
ATOM     17  H   UNL     1       7.961  -6.076   4.482  0.00  0.00    +0.151 HD
ENDROOT
BRANCH   1  18
ATOM     18  C   UNL     1       3.644  -5.042   3.680  0.00  0.00    +0.214 C 
BRANCH  18  23
ATOM     19  N   UNL     1       1.367  -1.676   1.111  0.00  0.00    -0.296 N 
ATOM     20  C   UNL     1       2.457  -2.447   1.299  0.00  0.00    +0.306 C 
ATOM     21  O   UNL     1       3.397  -2.366   0.533  0.00  0.00    -0.252 OA
ATOM     22  N   UNL     1       2.503  -3.308   2.335  0.00  0.00    -0.239 N 
ATOM     23  C   UNL     1       3.592  -4.079   2.522  0.00  0.00    +0.238 C 
ATOM     24  O   UNL     1       4.531  -3.998   1.758  0.00  0.00    -0.274 OA
ATOM     25  H   UNL     1       0.617  -1.740   1.722  0.00  0.00    +0.151 HD
ATOM     26  H   UNL     1       1.752  -3.372   2.945  0.00  0.00    +0.159 HD
BRANCH  19  27
ATOM     27  C   UNL     1       1.317  -0.740  -0.015  0.00  0.00    +0.132 C 
BRANCH  27  29
ATOM     28  C   UNL     1      -0.016   1.306   0.009  0.00  0.00    +0.005 C 
ATOM     29  C   UNL     1       0.002  -0.004   0.002  0.00  0.00    -0.016 C 
ENDBRANCH  27  29
ENDBRANCH  19  27
ENDBRANCH  18  23
ENDBRANCH   1  18
TORSDOF 4
