REMARK  Name = ZINC59310141
REMARK  6 active torsions:
REMARK  status: ('A' for Active; 'I' for Inactive)
REMARK    1  A    between atoms: C_14  and  C_15
REMARK    2  A    between atoms: N_16  and  N_17
REMARK    3  A    between atoms: C_20  and  S_23
REMARK    4  A    between atoms: S_23  and  C_24
REMARK    5  A    between atoms: C_24  and  C_25
REMARK    6  A    between atoms: N_27  and  C_28
REMARK                            x       y       z     vdW  Elec       q    Type
REMARK                         _______ _______ _______ _____ _____    ______ ____
ROOT
ATOM      1  N   UNL     1       7.305   0.381  -0.021  0.00  0.00    -0.205 N 
ATOM      2  C   UNL     1       8.526  -0.259   0.075  0.00  0.00    +0.232 A 
ATOM      3  N   UNL     1       8.713  -1.559   0.172  0.00  0.00    -0.186 NA
ATOM      4  C   UNL     1      10.022  -1.821   0.245  0.00  0.00    +0.211 A 
ATOM      5  N   UNL     1      10.687  -0.691   0.196  0.00  0.00    -0.144 NA
ATOM      6  N   UNL     1       9.737   0.337   0.081  0.00  0.00    -0.245 N 
ATOM      7  H   UNL     1       7.269   1.348  -0.093  0.00  0.00    +0.177 HD
ATOM      8  H   UNL     1       9.916   1.289   0.018  0.00  0.00    +0.192 HD
ENDROOT
BRANCH   1  10
ATOM      9  C   UNL     1       4.969   0.237  -0.105  0.00  0.00    +0.139 C 
ATOM     10  N   UNL     1       6.120  -0.366  -0.015  0.00  0.00    -0.188 NA
BRANCH   9  24
ATOM     11  C   UNL     1       3.828  -4.738  -0.146  0.00  0.00    +0.001 A 
ATOM     12  C   UNL     1       5.010  -3.999  -0.153  0.00  0.00    +0.001 A 
ATOM     13  C   UNL     1       5.001  -2.639  -0.138  0.00  0.00    +0.009 A 
ATOM     14  C   UNL     1       3.775  -1.953  -0.115  0.00  0.00    -0.009 A 
ATOM     15  C   UNL     1       2.531  -2.727  -0.108  0.00  0.00    -0.017 A 
ATOM     16  C   UNL     1       2.611  -4.136  -0.124  0.00  0.00    +0.008 A 
ATOM     17  C   UNL     1       1.297  -2.077  -0.086  0.00  0.00    +0.017 A 
ATOM     18  C   UNL     1       1.243  -0.683  -0.070  0.00  0.00    -0.017 A 
ATOM     19  C   UNL     1       0.006  -0.003  -0.046  0.00  0.00    +0.008 A 
ATOM     20  C   UNL     1      -0.012   1.355  -0.031  0.00  0.00    +0.001 A 
ATOM     21  C   UNL     1       1.165   2.102  -0.037  0.00  0.00    +0.001 A 
ATOM     22  C   UNL     1       2.388   1.508  -0.060  0.00  0.00    +0.009 A 
ATOM     23  C   UNL     1       2.478   0.105  -0.076  0.00  0.00    -0.009 A 
ATOM     24  C   UNL     1       3.729  -0.544  -0.098  0.00  0.00    +0.010 A 
ENDBRANCH   9  24
ENDBRANCH   1  10
BRANCH   4  25
ATOM     25  S   UNL     1      10.739  -3.425   0.385  0.00  0.00    -0.075 S 
BRANCH  25  26
ATOM     26  C   UNL     1      12.524  -3.104   0.439  0.00  0.00    +0.173 C 
BRANCH  26  27
ATOM     27  C   UNL     1      13.265  -4.411   0.560  0.00  0.00    +0.227 C 
ATOM     28  O   UNL     1      12.650  -5.455   0.605  0.00  0.00    -0.275 OA
ATOM     29  N   UNL     1      14.612  -4.418   0.617  0.00  0.00    -0.285 N 
ATOM     30  H   UNL     1      15.100  -3.582   0.660  0.00  0.00    +0.155 HD
BRANCH  29  31
ATOM     31  C   UNL     1      15.306  -5.635   0.615  0.00  0.00    +0.036 A 
ATOM     32  C   UNL     1      16.475  -5.769   1.353  0.00  0.00    +0.026 A 
ATOM     33  C   UNL     1      17.158  -6.969   1.350  0.00  0.00    +0.043 A 
ATOM     34  C   UNL     1      16.680  -8.039   0.614  0.00  0.00    +0.159 A 
ATOM     35  C   UNL     1      15.512  -7.908  -0.124  0.00  0.00    +0.160 A 
ATOM     36  C   UNL     1      14.822  -6.709  -0.119  0.00  0.00    +0.064 A 
ATOM     37  F   UNL     1      15.046  -8.953  -0.842  0.00  0.00    -0.202 F 
ATOM     38  F   UNL     1      17.350  -9.212   0.613  0.00  0.00    -0.202 F 
ENDBRANCH  29  31
ENDBRANCH  26  27
ENDBRANCH  25  26
ENDBRANCH   4  25
TORSDOF 6
