REMARK  Name = ZINC11528048
REMARK  10 active torsions:
REMARK  status: ('A' for Active; 'I' for Inactive)
REMARK    1  A    between atoms: C_1  and  O_2
REMARK    2  A    between atoms: O_2  and  C_3
REMARK    3  A    between atoms: C_3  and  C_4
REMARK    4  A    between atoms: C_4  and  C_5
REMARK    5  A    between atoms: C_5  and  N_6
REMARK    6  A    between atoms: C_16  and  S_17
REMARK    7  A    between atoms: S_17  and  C_18
REMARK    8  A    between atoms: C_18  and  C_19
REMARK    9  A    between atoms: N_21  and  N_22
REMARK   10  A    between atoms: C_23  and  C_25
REMARK                            x       y       z     vdW  Elec       q    Type
REMARK                         _______ _______ _______ _____ _____    ______ ____
ROOT
ATOM      1  N   UNL     1      -0.698   1.558   1.213  0.00  0.00    -0.287 N 
ATOM      2  C   UNL     1      -1.678   0.806   1.766  0.00  0.00    +0.262 A 
ATOM      3  O   UNL     1      -2.003  -0.262   1.281  0.00  0.00    -0.267 OA
ATOM      4  C   UNL     1      -2.333   1.325   2.974  0.00  0.00    +0.065 A 
ATOM      5  C   UNL     1      -3.353   0.623   3.616  0.00  0.00    +0.017 A 
ATOM      6  C   UNL     1      -3.933   1.147   4.737  0.00  0.00    +0.021 A 
ATOM      7  C   UNL     1      -3.517   2.373   5.246  0.00  0.00    +0.043 A 
ATOM      8  C   UNL     1      -2.512   3.087   4.631  0.00  0.00    +0.048 A 
ATOM      9  C   UNL     1      -1.904   2.572   3.483  0.00  0.00    +0.080 A 
ATOM     10  N   UNL     1      -0.913   3.238   2.846  0.00  0.00    -0.223 NA
ATOM     11  C   UNL     1      -0.340   2.752   1.772  0.00  0.00    +0.173 A 
ATOM     12 CL   UNL     1      -4.274   3.011   6.672  0.00  0.00    -0.083 Cl
ENDROOT
BRANCH   1  13
ATOM     13  C   UNL     1      -0.013   1.086   0.008  0.00  0.00    +0.129 C 
BRANCH  13  14
ATOM     14  C   UNL     1      -0.753   1.593  -1.232  0.00  0.00    +0.050 C 
BRANCH  14  15
ATOM     15  C   UNL     1      -0.037   1.099  -2.490  0.00  0.00    +0.161 C 
BRANCH  15  17
ATOM     16  C   UNL     1      -0.138   1.166  -4.884  0.00  0.00    +0.193 C 
ATOM     17  O   UNL     1      -0.728   1.573  -3.648  0.00  0.00    -0.383 OA
ENDBRANCH  15  17
ENDBRANCH  14  15
ENDBRANCH  13  14
ENDBRANCH   1  13
BRANCH  11  18
ATOM     18  S   UNL     1       0.947   3.683   1.011  0.00  0.00    -0.078 S 
BRANCH  18  19
ATOM     19  C   UNL     1       1.002   5.110   2.123  0.00  0.00    +0.174 C 
BRANCH  19  20
ATOM     20  C   UNL     1       2.064   6.072   1.655  0.00  0.00    +0.239 C 
ATOM     21  O   UNL     1       2.718   5.817   0.666  0.00  0.00    -0.273 OA
ATOM     22  N   UNL     1       2.286   7.214   2.334  0.00  0.00    -0.233 N 
ATOM     23  H   UNL     1       1.762   7.418   3.125  0.00  0.00    +0.173 HD
BRANCH  22  24
ATOM     24  N   UNL     1       3.273   8.108   1.898  0.00  0.00    -0.230 N 
ATOM     25  C   UNL     1       3.495   9.251   2.578  0.00  0.00    +0.260 C 
ATOM     26  O   UNL     1       2.839   9.505   3.569  0.00  0.00    -0.269 OA
ATOM     27  H   UNL     1       3.796   7.905   1.107  0.00  0.00    +0.173 HD
BRANCH  25  28
ATOM     28  C   UNL     1       4.536  10.194   2.118  0.00  0.00    +0.038 A 
ATOM     29  C   UNL     1       5.295   9.901   0.984  0.00  0.00    +0.014 A 
ATOM     30  C   UNL     1       6.260  10.787   0.556  0.00  0.00    +0.021 A 
ATOM     31  C   UNL     1       6.486  11.961   1.256  0.00  0.00    +0.041 A 
ATOM     32  C   UNL     1       5.740  12.254   2.386  0.00  0.00    +0.021 A 
ATOM     33  C   UNL     1       4.768  11.378   2.820  0.00  0.00    +0.014 A 
ATOM     34 CL   UNL     1       7.709  13.068   0.716  0.00  0.00    -0.084 Cl
ENDBRANCH  25  28
ENDBRANCH  22  24
ENDBRANCH  19  20
ENDBRANCH  18  19
ENDBRANCH  11  18
TORSDOF 9
