REMARK  Name = ZINC08670802
REMARK  7 active torsions:
REMARK  status: ('A' for Active; 'I' for Inactive)
REMARK    1  A    between atoms: C_1  and  N_2
REMARK    2  A    between atoms: N_7  and  C_10
REMARK    3  A    between atoms: N_11  and  C_19
REMARK    4  A    between atoms: C_12  and  S_14
REMARK    5  A    between atoms: S_14  and  C_15
REMARK    6  A    between atoms: C_15  and  C_16
REMARK    7  A    between atoms: C_19  and  C_20
REMARK                            x       y       z     vdW  Elec       q    Type
REMARK                         _______ _______ _______ _____ _____    ______ ____
ROOT
ATOM      1  C   UNL     1       2.204  -0.584   0.162  0.00  0.00    +0.155 C 
ATOM      2  N   UNL     1       1.515  -1.875   0.231  0.00  0.00    -0.280 N 
ATOM      3  C   UNL     1       0.138  -1.933   0.095  0.00  0.00    +0.169 A 
ATOM      4  C   UNL     1      -0.491  -3.171   0.164  0.00  0.00    +0.153 A 
ATOM      5  C   UNL     1       0.285  -4.325   0.369  0.00  0.00    +0.282 A 
ATOM      6  O   UNL     1      -0.244  -5.421   0.432  0.00  0.00    -0.265 OA
ATOM      7  N   UNL     1       1.623  -4.206   0.494  0.00  0.00    -0.262 N 
ATOM      8  C   UNL     1       2.222  -3.005   0.421  0.00  0.00    +0.333 A 
ATOM      9  O   UNL     1       3.431  -2.937   0.533  0.00  0.00    -0.246 OA
ATOM     10  C   UNL     1       2.437  -5.406   0.709  0.00  0.00    +0.157 C 
ATOM     11  N   UNL     1      -1.849  -2.931  -0.003  0.00  0.00    -0.309 N 
ATOM     12  C   UNL     1      -1.991  -1.587  -0.163  0.00  0.00    +0.172 A 
ATOM     13  N   UNL     1      -0.807  -1.012  -0.103  0.00  0.00    -0.204 NA
ENDROOT
BRANCH  12  14
ATOM     14  S   UNL     1      -3.520  -0.748  -0.412  0.00  0.00    -0.076 S 
BRANCH  14  15
ATOM     15  C   UNL     1      -3.045   0.997  -0.552  0.00  0.00    +0.202 C 
BRANCH  15  16
ATOM     16  C   UNL     1      -4.277   1.837  -0.770  0.00  0.00    +0.366 C 
ATOM     17  O   UNL     1      -5.374   1.308  -0.826  0.00  0.00    -0.245 OA
ATOM     18  O   UNL     1      -4.177   3.047  -0.891  0.00  0.00    -0.245 OA
ENDBRANCH  15  16
ENDBRANCH  14  15
ENDBRANCH  12  14
BRANCH  11  19
ATOM     19  C   UNL     1      -2.920  -3.930  -0.005  0.00  0.00    +0.161 C 
BRANCH  19  20
ATOM     20  C   UNL     1      -3.202  -4.361  -1.422  0.00  0.00    -0.006 A 
ATOM     21  C   UNL     1      -2.323  -5.205  -2.075  0.00  0.00    +0.056 A 
ATOM     22  C   UNL     1      -2.581  -5.602  -3.376  0.00  0.00    +0.167 A 
ATOM     23  C   UNL     1      -3.727  -5.149  -4.026  0.00  0.00    +0.168 A 
ATOM     24  C   UNL     1      -4.604  -4.304  -3.366  0.00  0.00    +0.070 A 
ATOM     25  C   UNL     1      -4.343  -3.914  -2.064  0.00  0.00    +0.050 A 
ATOM     26 CL   UNL     1      -5.447  -2.860  -1.238  0.00  0.00    -0.083 Cl
ATOM     27  O   UNL     1      -3.752  -5.676  -5.285  0.00  0.00    -0.453 OA
ATOM     28  C   UNL     1      -2.408  -6.125  -5.540  0.00  0.00    +0.466 C 
ATOM     29  O   UNL     1      -1.888  -6.413  -4.229  0.00  0.00    -0.453 OA
ENDBRANCH  19  20
ENDBRANCH  11  19
TORSDOF 5
