REMARK  Name = ZINC02919577
REMARK  4 active torsions:
REMARK  status: ('A' for Active; 'I' for Inactive)
REMARK    1  A    between atoms: C_1  and  C_2
REMARK    2  A    between atoms: C_5  and  C_9
REMARK    3  A    between atoms: C_7  and  C_8
REMARK    4  A    between atoms: C_12  and  C_20
REMARK                            x       y       z     vdW  Elec       q    Type
REMARK                         _______ _______ _______ _____ _____    ______ ____
ROOT
ATOM      1  C   UNL     1       0.059  -4.275  -0.021  0.00  0.00    +0.106 C 
ATOM      2  C   UNL     1      -1.356  -4.806  -0.275  0.00  0.00    +0.059 C 
ATOM      3  C   UNL     1      -1.891  -4.246  -1.599  0.00  0.00    +0.144 C 
ATOM      4  N   UNL     1      -0.880  -4.441  -2.635  0.00  0.00    -0.206 N 
ATOM      5  C   UNL     1       0.434  -4.678  -2.390  0.00  0.00    +0.236 A 
ATOM      6  N   UNL     1       1.027  -4.802  -3.544  0.00  0.00    -0.092 NA
ATOM      7  N   UNL     1       0.177  -4.655  -4.501  0.00  0.00    -0.021 NA
ATOM      8  N   UNL     1      -1.005  -4.432  -4.024  0.00  0.00    -0.042 NA
ATOM      9  N   UNL     1       0.948  -4.753  -1.099  0.00  0.00    -0.305 N 
ATOM     10  H   UNL     1       1.835  -5.100  -0.917  0.00  0.00    +0.150 HD
ENDROOT
BRANCH   1  15
ATOM     11  C   UNL     1      -0.018   1.503   0.010  0.00  0.00    +0.044 C 
ATOM     12  C   UNL     1       0.002  -0.004   0.002  0.00  0.00    -0.048 A 
ATOM     13  C   UNL     1       0.006  -0.689  -1.199  0.00  0.00    +0.004 A 
ATOM     14  C   UNL     1       0.025  -2.071  -1.207  0.00  0.00    +0.006 A 
ATOM     15  C   UNL     1       0.040  -2.768  -0.013  0.00  0.00    -0.027 A 
ATOM     16  C   UNL     1       0.037  -2.084   1.188  0.00  0.00    +0.009 A 
ATOM     17  C   UNL     1       0.023  -0.702   1.195  0.00  0.00    -0.047 A 
ATOM     18  C   UNL     1       0.025   0.045   2.504  0.00  0.00    +0.044 C 
ENDBRANCH   1  15
BRANCH   3  19
ATOM     19  C   UNL     1      -3.155  -4.972  -1.981  0.00  0.00    -0.023 A 
ATOM     20  C   UNL     1      -3.134  -6.340  -2.178  0.00  0.00    +0.007 A 
ATOM     21  C   UNL     1      -4.293  -7.006  -2.528  0.00  0.00    +0.020 A 
ATOM     22  C   UNL     1      -5.475  -6.303  -2.681  0.00  0.00    +0.041 A 
ATOM     23  C   UNL     1      -5.496  -4.934  -2.484  0.00  0.00    +0.020 A 
ATOM     24  C   UNL     1      -4.337  -4.270  -2.128  0.00  0.00    +0.007 A 
ATOM     25 CL   UNL     1      -6.932  -7.139  -3.121  0.00  0.00    -0.084 Cl
ENDBRANCH   3  19
TORSDOF 2
