REMARK  Name = ZINC04293362
REMARK  15 active torsions:
REMARK  status: ('A' for Active; 'I' for Inactive)
REMARK    1  A    between atoms: C_1  and  C_2
REMARK    2  A    between atoms: C_2  and  C_3
REMARK    3  A    between atoms: C_3  and  O_46
REMARK    4  A    between atoms: C_5  and  O_31
REMARK    5  A    between atoms: C_12  and  O_13
REMARK    6  A    between atoms: C_21  and  O_22
REMARK    7  A    between atoms: C_25  and  C_27
REMARK    8  A    between atoms: C_27  and  O_29
REMARK    9  A    between atoms: O_29  and  C_30
REMARK   10  A    between atoms: O_31  and  C_32
REMARK   11  A    between atoms: C_35  and  N_76
REMARK   12  A    between atoms: C_37  and  O_43
REMARK   13  A    between atoms: C_39  and  C_42
REMARK   14  A    between atoms: C_44  and  N_76
REMARK   15  A    between atoms: C_45  and  N_76
REMARK                            x       y       z     vdW  Elec       q    Type
REMARK                         _______ _______ _______ _____ _____    ______ ____
ROOT
ATOM      1  C   UNL     1      -6.047   4.198   0.378  0.00  0.00    +0.085 C 
ATOM      2  C   UNL     1      -6.874   3.391  -0.630  0.00  0.00    +0.072 C 
ATOM      3  C   UNL     1      -6.515   1.915  -0.473  0.00  0.00    +0.158 C 
ATOM      4  C   UNL     1      -5.021   1.724  -0.521  0.00  0.00    +0.028 A 
ATOM      5  C   UNL     1      -4.136   2.758  -0.328  0.00  0.00    -0.021 A 
ATOM      6  C   UNL     1      -2.760   2.520  -0.365  0.00  0.00    +0.017 A 
ATOM      7  C   UNL     1      -2.271   1.247  -0.615  0.00  0.00    +0.037 A 
ATOM      8  C   UNL     1      -3.175   0.185  -0.823  0.00  0.00    +0.075 A 
ATOM      9  C   UNL     1      -4.545   0.431  -0.770  0.00  0.00    +0.134 A 
ATOM     10  C   UNL     1      -2.658  -1.172  -1.087  0.00  0.00    +0.202 C 
ATOM     11  O   UNL     1      -3.397  -2.135  -1.017  0.00  0.00    -0.286 OA
ATOM     12  C   UNL     1      -1.237  -1.346  -1.442  0.00  0.00    +0.075 A 
ATOM     13  C   UNL     1      -0.331  -0.286  -1.239  0.00  0.00    +0.037 A 
ATOM     14  C   UNL     1       1.008  -0.450  -1.573  0.00  0.00    +0.012 A 
ATOM     15  C   UNL     1       1.448  -1.653  -2.104  0.00  0.00    +0.004 A 
ATOM     16  C   UNL     1       0.566  -2.694  -2.306  0.00  0.00    +0.046 A 
ATOM     17  C   UNL     1      -0.780  -2.552  -1.978  0.00  0.00    +0.128 A 
ATOM     18  C   UNL     1      -0.816   0.991  -0.672  0.00  0.00    +0.195 C 
ATOM     19  O   UNL     1      -0.028   1.819  -0.259  0.00  0.00    -0.287 OA
ATOM     20  C   UNL     1      -4.587   4.172  -0.067  0.00  0.00    +0.160 C 
ENDROOT
BRANCH   1  22
ATOM     21  C   UNL     1      -5.763   6.428   1.470  0.00  0.00    +0.007 C 
ATOM     22  C   UNL     1      -6.549   5.643   0.416  0.00  0.00    +0.032 C 
ENDBRANCH   1  22
BRANCH   9  23
ATOM     23  O   UNL     1      -5.421  -0.586  -0.960  0.00  0.00    -0.506 OA
ATOM     24  H   UNL     1      -5.624  -1.086  -0.157  0.00  0.00    +0.292 HD
ENDBRANCH   9  23
BRANCH  17  25
ATOM     25  O   UNL     1      -1.642  -3.579  -2.177  0.00  0.00    -0.506 OA
ATOM     26  H   UNL     1      -2.060  -3.579  -3.050  0.00  0.00    +0.292 HD
ENDBRANCH  17  25
BRANCH  20  27
ATOM     27  C   UNL     1      -4.438   4.981  -1.329  0.00  0.00    +0.317 C 
ATOM     28  O   UNL     1      -5.316   4.974  -2.159  0.00  0.00    -0.250 OA
BRANCH  27  29
ATOM     29  O   UNL     1      -3.329   5.711  -1.532  0.00  0.00    -0.467 OA
ATOM     30  C   UNL     1      -3.254   6.466  -2.770  0.00  0.00    +0.280 C 
ENDBRANCH  27  29
ENDBRANCH  20  27
BRANCH   1  31
ATOM     31  O   UNL     1      -6.166   3.613   1.676  0.00  0.00    -0.387 OA
ATOM     32  H   UNL     1      -7.072   3.582   2.013  0.00  0.00    +0.210 HD
ENDBRANCH   1  31
BRANCH   3  33
ATOM     33  O   UNL     1      -7.010   1.441   0.781  0.00  0.00    -0.343 OA
BRANCH  33  34
ATOM     34  C   UNL     1      -8.282   0.795   0.697  0.00  0.00    +0.250 C 
ATOM     35  C   UNL     1      -8.616   0.149   2.045  0.00  0.00    +0.049 C 
ATOM     36  C   UNL     1     -10.006  -0.489   1.965  0.00  0.00    -0.033 C 
ATOM     37  C   UNL     1     -11.026   0.581   1.564  0.00  0.00    +0.130 C 
ATOM     38  C   UNL     1     -10.598   1.210   0.235  0.00  0.00    +0.145 C 
ATOM     39  O   UNL     1      -9.285   1.758   0.370  0.00  0.00    -0.346 OA
ATOM     40  C   UNL     1     -10.595   0.140  -0.858  0.00  0.00    +0.040 C 
BRANCH  36  43
ATOM     41  C   UNL     1      -9.479  -2.158   3.638  0.00  0.00    -0.096 C 
ATOM     42  C   UNL     1     -10.356  -0.004   4.311  0.00  0.00    -0.096 C 
ATOM     43  N   UNL     1     -10.394  -1.056   3.274  0.00  0.00    +0.380 N 
ATOM     44  H   UNL     1     -11.350  -1.424   3.208  0.00  0.00    -0.082 HD
ENDBRANCH  36  43
BRANCH  37  45
ATOM     45  O   UNL     1     -12.315  -0.018   1.416  0.00  0.00    -0.391 OA
ATOM     46  H   UNL     1     -13.010   0.603   1.158  0.00  0.00    +0.210 HD
ENDBRANCH  37  45
ENDBRANCH  33  34
ENDBRANCH   3  33
TORSDOF 10
