REMARK  Name = ZINC45265024
REMARK  13 active torsions:
REMARK  status: ('A' for Active; 'I' for Inactive)
REMARK    1  A    between atoms: C_1  and  O_2
REMARK    2  A    between atoms: O_2  and  C_3
REMARK    3  A    between atoms: C_3  and  C_5
REMARK    4  A    between atoms: C_6  and  C_15
REMARK    5  A    between atoms: C_7  and  C_11
REMARK    6  A    between atoms: C_9  and  N_10
REMARK    7  A    between atoms: C_11  and  O_13
REMARK    8  A    between atoms: O_13  and  C_14
REMARK    9  A    between atoms: C_15  and  O_16
REMARK   10  A    between atoms: O_16  and  C_17
REMARK   11  A    between atoms: C_17  and  C_19
REMARK   12  A    between atoms: C_21  and  N_31
REMARK   13  A    between atoms: C_24  and  N_25
REMARK                            x       y       z     vdW  Elec       q    Type
REMARK                         _______ _______ _______ _____ _____    ______ ____
ROOT
ATOM      1  O   UNL     1      -1.249  -1.826  -3.745  0.00  0.00    -0.456 OA
ENDROOT
BRANCH   1   2
ATOM      2  C   UNL     1      -2.220  -1.221  -4.458  0.00  0.00    +0.341 C 
ATOM      3  O   UNL     1      -3.283  -0.954  -3.932  0.00  0.00    -0.245 OA
BRANCH   2   4
ATOM      4  C   UNL     1      -1.994  -0.884  -5.873  0.00  0.00    +0.082 A 
ATOM      5  C   UNL     1      -0.776  -1.194  -6.484  0.00  0.00    +0.049 A 
ATOM      6  C   UNL     1      -0.570  -0.876  -7.809  0.00  0.00    +0.127 A 
ATOM      7  C   UNL     1      -1.566  -0.249  -8.541  0.00  0.00    +0.034 A 
ATOM      8  C   UNL     1      -2.774   0.064  -7.953  0.00  0.00    +0.026 A 
ATOM      9  C   UNL     1      -3.003  -0.254  -6.620  0.00  0.00    +0.044 A 
BRANCH   9  10
ATOM     10  N   UNL     1      -4.220   0.055  -6.027  0.00  0.00    -0.325 N 
ATOM     11  C   UNL     1      -4.434   1.353  -5.368  0.00  0.00    +0.133 C 
ATOM     12  C   UNL     1      -5.731   1.962  -5.911  0.00  0.00    +0.178 C 
ATOM     13  O   UNL     1      -6.788   1.007  -5.789  0.00  0.00    -0.377 OA
ATOM     14  C   UNL     1      -6.588  -0.187  -6.551  0.00  0.00    +0.178 C 
ATOM     15  C   UNL     1      -5.336  -0.904  -6.045  0.00  0.00    +0.133 C 
ENDBRANCH   9  10
BRANCH   6  16
ATOM     16  N   UNL     1       0.721  -1.206  -8.453  0.00  0.00    +0.056 N 
ATOM     17  O   UNL     1       1.592  -1.752  -7.817  0.00  0.00    -0.126 OA
ATOM     18  O   UNL     1       0.904  -0.928  -9.615  0.00  0.00    -0.126 OA
ENDBRANCH   6  16
ENDBRANCH   2   4
ENDBRANCH   1   2
BRANCH   1  19
ATOM     19  C   UNL     1      -1.538  -2.124  -2.378  0.00  0.00    +0.270 C 
BRANCH  19  21
ATOM     20  C   UNL     1       0.659  -2.066  -1.122  0.00  0.00    +0.094 A 
ATOM     21  C   UNL     1      -0.344  -2.794  -1.747  0.00  0.00    +0.027 A 
ATOM     22  C   UNL     1      -0.189  -4.155  -1.759  0.00  0.00    +0.105 A 
ATOM     23  S   UNL     1       1.353  -4.382  -0.897  0.00  0.00    -0.066 S 
ATOM     24  C   UNL     1       1.729  -2.778  -0.572  0.00  0.00    +0.078 A 
BRANCH  24  25
ATOM     25  N   UNL     1       2.830  -2.281   0.085  0.00  0.00    -0.352 N 
ATOM     26  H   UNL     1       2.929  -1.325   0.211  0.00  0.00    +0.143 HD
ATOM     27  H   UNL     1       3.507  -2.888   0.422  0.00  0.00    +0.143 HD
ENDBRANCH  24  25
BRANCH  20  28
ATOM     28  C   UNL     1       0.601  -0.603  -1.048  0.00  0.00    +0.342 C 
ATOM     29  O   UNL     1       1.094   0.071  -1.932  0.00  0.00    -0.245 OA
BRANCH  28  31
ATOM     30  C   UNL     1      -0.017   1.425   0.010  0.00  0.00    +0.280 C 
ATOM     31  O   UNL     1       0.002  -0.004   0.002  0.00  0.00    -0.464 OA
ENDBRANCH  28  31
ENDBRANCH  20  28
BRANCH  22  32
ATOM     32  C   UNL     1      -1.070  -5.168  -2.336  0.00  0.00    +0.346 C 
ATOM     33  O   UNL     1      -2.096  -4.834  -2.897  0.00  0.00    -0.244 OA
BRANCH  32  34
ATOM     34  O   UNL     1      -0.744  -6.475  -2.247  0.00  0.00    -0.464 OA
ATOM     35  C   UNL     1      -1.651  -7.411  -2.832  0.00  0.00    +0.280 C 
ENDBRANCH  32  34
ENDBRANCH  22  32
ENDBRANCH  19  21
ENDBRANCH   1  19
TORSDOF 11
