REMARK  Name = ZINC22451450
REMARK  5 active torsions:
REMARK  status: ('A' for Active; 'I' for Inactive)
REMARK    1  A    between atoms: C_1  and  C_2
REMARK    2  A    between atoms: C_5  and  C_26
REMARK    3  A    between atoms: C_16  and  C_18
REMARK    4  A    between atoms: C_18  and  S_19
REMARK    5  A    between atoms: S_19  and  C_20
REMARK                            x       y       z     vdW  Elec       q    Type
REMARK                         _______ _______ _______ _____ _____    ______ ____
ROOT
ATOM      1  C   UNL     1      -1.453   5.121  -0.054  0.00  0.00    +0.009 C 
ATOM      2  C   UNL     1      -1.466   3.591  -0.011  0.00  0.00    +0.004 C 
ATOM      3  C   UNL     1      -0.764   3.110   1.262  0.00  0.00    +0.009 C 
ATOM      4  C   UNL     1      -0.729   1.579   1.267  0.00  0.00    +0.004 C 
ATOM      5  C   UNL     1      -0.013   1.086   0.008  0.00  0.00    +0.111 C 
ATOM      6  N   UNL     1      -0.723   1.572  -1.182  0.00  0.00    -0.301 N 
ATOM      7  C   UNL     1      -0.729   3.040  -1.234  0.00  0.00    +0.111 C 
ATOM      8  C   UNL     1      -0.185   1.043  -2.324  0.00  0.00    +0.198 A 
ATOM      9  N   UNL     1      -0.646   1.459  -3.535  0.00  0.00    -0.295 N 
ATOM     10  H   UNL     1      -1.445   2.213  -3.590  0.00  0.00    +0.172 HD
ATOM     11  C   UNL     1      -0.120   0.942  -4.666  0.00  0.00    +0.253 A 
ATOM     12  O   UNL     1      -0.522   1.303  -5.760  0.00  0.00    -0.268 OA
ATOM     13  C   UNL     1       0.900  -0.020  -4.559  0.00  0.00    +0.094 A 
ATOM     14  C   UNL     1       1.322  -0.398  -3.318  0.00  0.00    +0.060 A 
ATOM     15  N   UNL     1       0.775   0.144  -2.232  0.00  0.00    -0.220 NA
ATOM     16  C   UNL     1      -2.158   1.035   1.289  0.00  0.00    +0.009 C 
ENDROOT
BRANCH  14  17
ATOM     17  C   UNL     1       2.414  -1.427  -3.176  0.00  0.00    +0.133 C 
BRANCH  17  18
ATOM     18  S   UNL     1       3.956  -0.609  -2.700  0.00  0.00    -0.080 S 
BRANCH  18  19
ATOM     19  C   UNL     1       5.028  -2.005  -2.607  0.00  0.00    +0.189 A 
ATOM     20  N   UNL     1       4.543  -3.211  -2.866  0.00  0.00    -0.230 NA
ATOM     21  C   UNL     1       5.322  -4.278  -2.811  0.00  0.00    +0.115 A 
ATOM     22  C   UNL     1       6.656  -4.125  -2.466  0.00  0.00    +0.039 A 
ATOM     23  C   UNL     1       7.129  -2.851  -2.196  0.00  0.00    +0.115 A 
ATOM     24  N   UNL     1       6.298  -1.824  -2.274  0.00  0.00    -0.230 NA
ENDBRANCH  18  19
ENDBRANCH  17  18
ENDBRANCH  14  17
TORSDOF 3
