REMARK  Name = ZINC14668709
REMARK  12 active torsions:
REMARK  status: ('A' for Active; 'I' for Inactive)
REMARK    1  A    between atoms: C_1  and  C_2
REMARK    2  A    between atoms: C_2  and  C_3
REMARK    3  A    between atoms: C_2  and  O_4
REMARK    4  A    between atoms: O_4  and  C_5
REMARK    5  A    between atoms: C_10  and  C_11
REMARK    6  A    between atoms: N_13  and  C_14
REMARK    7  A    between atoms: C_14  and  N_16
REMARK    8  A    between atoms: N_16  and  N_17
REMARK    9  A    between atoms: C_18  and  C_20
REMARK   10  A    between atoms: C_23  and  O_26
REMARK   11  A    between atoms: O_26  and  C_27
REMARK   12  A    between atoms: C_27  and  C_28
REMARK                            x       y       z     vdW  Elec       q    Type
REMARK                         _______ _______ _______ _____ _____    ______ ____
ROOT
ATOM      1  C   UNL     1      -4.484  -0.821   0.666  0.00  0.00    +0.153 C 
ATOM      2  S   UNL     1      -4.746   0.845   0.963  0.00  0.00    -0.017 S 
ENDROOT
BRANCH   1   5
ATOM      3  C   UNL     1      -2.230  -0.390   0.239  0.00  0.00    +0.253 C 
ATOM      4  O   UNL     1      -2.416   0.793   0.450  0.00  0.00    -0.270 OA
ATOM      5  N   UNL     1      -3.254  -1.261   0.336  0.00  0.00    -0.263 N 
ATOM      6  H   UNL     1      -3.105  -2.204   0.167  0.00  0.00    +0.157 HD
BRANCH   3  12
ATOM      7  C   UNL     1       0.184   0.031  -0.224  0.00  0.00    +0.133 A 
ATOM      8  C   UNL     1       1.447  -0.433  -0.559  0.00  0.00    +0.047 A 
ATOM      9  C   UNL     1       1.650  -1.778  -0.797  0.00  0.00    +0.019 A 
ATOM     10  C   UNL     1       0.595  -2.674  -0.703  0.00  0.00    +0.019 A 
ATOM     11  C   UNL     1      -0.667  -2.229  -0.372  0.00  0.00    +0.032 A 
ATOM     12  C   UNL     1      -0.884  -0.871  -0.122  0.00  0.00    +0.080 A 
ATOM     13 BR   UNL     1       0.890  -4.512  -1.032  0.00  0.00    -0.050 Br
BRANCH   7  14
ATOM     14  O   UNL     1      -0.016   1.352   0.009  0.00  0.00    -0.489 OA
BRANCH  14  16
ATOM     15  C   UNL     1       1.464   2.616  -1.424  0.00  0.00    +0.051 C 
ATOM     16  C   UNL     1       1.139   2.193   0.011  0.00  0.00    +0.167 C 
ATOM     17  C   UNL     1       0.864   3.437   0.859  0.00  0.00    +0.051 C 
ENDBRANCH  14  16
ENDBRANCH   7  14
ENDBRANCH   3  12
ENDBRANCH   1   5
BRANCH   1  18
ATOM     18  N   UNL     1      -5.508  -1.692   0.762  0.00  0.00    -0.245 N 
ATOM     19  H   UNL     1      -6.394  -1.375   1.000  0.00  0.00    +0.172 HD
BRANCH  18  20
ATOM     20  N   UNL     1      -5.294  -3.054   0.520  0.00  0.00    -0.231 N 
ATOM     21  C   UNL     1      -6.318  -3.926   0.616  0.00  0.00    +0.260 C 
ATOM     22  O   UNL     1      -7.427  -3.529   0.914  0.00  0.00    -0.269 OA
ATOM     23  H   UNL     1      -4.408  -3.371   0.282  0.00  0.00    +0.173 HD
BRANCH  21  24
ATOM     24  C   UNL     1      -6.092  -5.362   0.360  0.00  0.00    +0.038 A 
ATOM     25  C   UNL     1      -4.818  -5.819   0.012  0.00  0.00    +0.016 A 
ATOM     26  C   UNL     1      -4.610  -7.160  -0.222  0.00  0.00    +0.046 A 
ATOM     27  C   UNL     1      -5.668  -8.057  -0.121  0.00  0.00    +0.121 A 
ATOM     28  C   UNL     1      -6.937  -7.605   0.220  0.00  0.00    +0.046 A 
ATOM     29  C   UNL     1      -7.152  -6.266   0.460  0.00  0.00    +0.016 A 
BRANCH  27  30
ATOM     30  O   UNL     1      -5.460  -9.377  -0.357  0.00  0.00    -0.488 OA
BRANCH  30  31
ATOM     31  C   UNL     1      -4.131  -9.773  -0.703  0.00  0.00    +0.256 C 
BRANCH  31  32
ATOM     32  C   UNL     1      -4.093 -11.263  -0.927  0.00  0.00    +0.006 C 
ATOM     33  C   UNL     1      -3.462 -11.754  -1.964  0.00  0.00    +0.007 C 
ENDBRANCH  31  32
ENDBRANCH  30  31
ENDBRANCH  27  30
ENDBRANCH  21  24
ENDBRANCH  18  20
ENDBRANCH   1  18
TORSDOF 10
