REMARK  Name = ZINC35057985
REMARK  12 active torsions:
REMARK  status: ('A' for Active; 'I' for Inactive)
REMARK    1  A    between atoms: C_1  and  C_2
REMARK    2  A    between atoms: C_2  and  C_3
REMARK    3  A    between atoms: C_3  and  C_5
REMARK    4  A    between atoms: C_3  and  C_6
REMARK    5  A    between atoms: C_9  and  O_12
REMARK    6  A    between atoms: O_12  and  C_13
REMARK    7  A    between atoms: C_15  and  N_39
REMARK    8  A    between atoms: C_17  and  O_34
REMARK    9  A    between atoms: C_26  and  C_29
REMARK   10  A    between atoms: O_34  and  C_35
REMARK   11  A    between atoms: C_35  and  C_36
REMARK   12  A    between atoms: C_40  and  C_42
REMARK                            x       y       z     vdW  Elec       q    Type
REMARK                         _______ _______ _______ _____ _____    ______ ____
ROOT
ATOM      1  C   UNL     1       2.543  -6.656   0.986  0.00  0.00    +0.331 C 
ATOM      2  C   UNL     1       2.470  -8.183   1.043  0.00  0.00    +0.173 C 
ATOM      3  C   UNL     1       1.794  -8.715  -0.227  0.00  0.00    +0.176 C 
ATOM      4  C   UNL     1       2.572  -8.203  -1.439  0.00  0.00    +0.183 C 
ATOM      5  C   UNL     1       2.586  -6.670  -1.401  0.00  0.00    +0.179 C 
ATOM      6  O   UNL     1       3.227  -6.245  -0.203  0.00  0.00    -0.332 OA
ATOM      7  C   UNL     1       3.328  -6.161  -2.637  0.00  0.00    +0.197 C 
ATOM      8  O   UNL     1       2.696  -6.710  -3.800  0.00  0.00    -0.342 OA
ATOM      9  C   UNL     1       2.640  -8.137  -3.823  0.00  0.00    +0.319 C 
ATOM     10  O   UNL     1       1.960  -8.622  -2.659  0.00  0.00    -0.336 OA
ENDROOT
BRANCH   9  11
ATOM     11  C   UNL     1       1.899  -8.589  -5.055  0.00  0.00    +0.161 A 
ATOM     12  C   UNL     1       2.257  -8.334  -6.326  0.00  0.00    +0.050 A 
ATOM     13  C   UNL     1       1.287  -8.941  -7.155  0.00  0.00    +0.041 A 
ATOM     14  C   UNL     1       0.393  -9.532  -6.341  0.00  0.00    +0.195 A 
ATOM     15  O   UNL     1       0.773  -9.320  -5.070  0.00  0.00    -0.463 OA
ENDBRANCH   9  11
BRANCH   2  16
ATOM     16  N   UNL     1       3.824  -8.733   1.141  0.00  0.00    -0.304 N 
ATOM     17  C   UNL     1       4.420  -8.846   2.345  0.00  0.00    +0.210 C 
ATOM     18  O   UNL     1       3.835  -8.491   3.347  0.00  0.00    -0.276 OA
ATOM     19  C   UNL     1       5.813  -9.412   2.446  0.00  0.00    +0.109 C 
ATOM     20  H   UNL     1       4.291  -9.017   0.340  0.00  0.00    +0.149 HD
ENDBRANCH   2  16
BRANCH   1  21
ATOM     21  O   UNL     1       1.220  -6.117   0.983  0.00  0.00    -0.462 OA
BRANCH  21  25
ATOM     22  C   UNL     1       0.870  -2.011   1.172  0.00  0.00    -0.044 A 
ATOM     23  C   UNL     1      -0.265  -2.798   1.109  0.00  0.00    +0.007 A 
ATOM     24  C   UNL     1      -0.150  -4.173   1.045  0.00  0.00    +0.046 A 
ATOM     25  C   UNL     1       1.105  -4.764   1.044  0.00  0.00    +0.124 A 
ATOM     26  C   UNL     1       2.242  -3.972   1.108  0.00  0.00    +0.046 A 
ATOM     27  C   UNL     1       2.122  -2.597   1.166  0.00  0.00    +0.007 A 
BRANCH  22  28
ATOM     28  C   UNL     1       0.742  -0.511   1.242  0.00  0.00    +0.016 C 
ATOM     29  C   UNL     1      -0.042  -0.124   2.497  0.00  0.00    +0.012 C 
BRANCH  28  31
ATOM     30  C   UNL     1      -0.019   1.526   0.010  0.00  0.00    +0.004 C 
ATOM     31  C   UNL     1       0.002  -0.004   0.002  0.00  0.00    +0.004 C 
ENDBRANCH  28  31
ENDBRANCH  22  28
ENDBRANCH  21  25
ENDBRANCH   1  21
BRANCH   3  32
ATOM     32  O   UNL     1       1.804 -10.144  -0.213  0.00  0.00    -0.361 OA
BRANCH  32  33
ATOM     33  C   UNL     1       0.656 -10.727   0.406  0.00  0.00    +0.285 C 
BRANCH  33  34
ATOM     34  C   UNL     1       0.771 -12.229   0.364  0.00  0.00    +0.381 C 
ATOM     35  O   UNL     1       1.746 -12.752  -0.148  0.00  0.00    -0.244 OA
ATOM     36  O   UNL     1      -0.111 -12.922   0.842  0.00  0.00    -0.244 OA
ENDBRANCH  33  34
ENDBRANCH  32  33
ENDBRANCH   3  32
TORSDOF 9
