REMARK  Name = ZINC64150876
REMARK  10 active torsions:
REMARK  status: ('A' for Active; 'I' for Inactive)
REMARK    1  A    between atoms: C_1  and  C_2
REMARK    2  A    between atoms: C_5  and  C_8
REMARK    3  A    between atoms: N_10  and  C_13
REMARK    4  A    between atoms: C_13  and  C_14
REMARK    5  A    between atoms: C_14  and  O_16
REMARK    6  A    between atoms: O_16  and  C_17
REMARK    7  A    between atoms: C_17  and  C_19
REMARK    8  A    between atoms: C_17  and  C_20
REMARK    9  A    between atoms: C_20  and  C_22
REMARK   10  A    between atoms: C_30  and  C_32
REMARK                            x       y       z     vdW  Elec       q    Type
REMARK                         _______ _______ _______ _____ _____    ______ ____
ROOT
ATOM      1  C   UNL     1       1.529  -7.891  -1.873  0.00  0.00    +0.329 C 
ATOM      2  O   UNL     1       2.439  -7.255  -1.397  0.00  0.00    -0.249 OA
ENDROOT
BRANCH   1   3
ATOM      3  C   UNL     1       0.103  -7.510  -1.570  0.00  0.00    +0.267 C 
BRANCH   3   6
ATOM      4  C   UNL     1       0.059  -4.251  -0.021  0.00  0.00    +0.160 C 
ATOM      5  N   UNL     1       0.070  -5.001  -1.083  0.00  0.00    -0.150 NA
ATOM      6  N   UNL     1       0.087  -6.344  -0.683  0.00  0.00    -0.160 N 
ATOM      7  N   UNL     1       0.087  -6.369   0.684  0.00  0.00    -0.143 NA
ATOM      8  N   UNL     1       0.076  -5.069   1.109  0.00  0.00    -0.246 N 
ATOM      9  H   UNL     1      -0.712  -6.875   1.036  0.00  0.00    +0.169 HD
ATOM     10  H   UNL     1       0.077  -4.769   2.031  0.00  0.00    +0.169 HD
BRANCH   4  15
ATOM     11  C   UNL     1      -0.018   1.503   0.010  0.00  0.00    +0.044 C 
ATOM     12  C   UNL     1       0.002  -0.004   0.002  0.00  0.00    -0.050 A 
ATOM     13  C   UNL     1       0.006  -0.686  -1.202  0.00  0.00    +0.004 A 
ATOM     14  C   UNL     1       0.024  -2.066  -1.216  0.00  0.00    +0.011 A 
ATOM     15  C   UNL     1       0.040  -2.773  -0.013  0.00  0.00    +0.018 A 
ATOM     16  C   UNL     1       0.036  -2.079   1.198  0.00  0.00    +0.011 A 
ATOM     17  C   UNL     1       0.023  -0.699   1.198  0.00  0.00    +0.004 A 
ENDBRANCH   4  15
ENDBRANCH   3   6
ENDBRANCH   1   3
BRANCH   1  18
ATOM     18  O   UNL     1       1.788  -8.939  -2.671  0.00  0.00    -0.452 OA
BRANCH  18  19
ATOM     19  C   UNL     1       3.163  -9.243  -2.916  0.00  0.00    +0.244 C 
ATOM     20  C   UNL     1       3.664 -10.225  -1.854  0.00  0.00    +0.061 C 
BRANCH  19  21
ATOM     21  C   UNL     1       3.305  -9.864  -4.281  0.00  0.00    +0.202 C 
ATOM     22  O   UNL     1       2.324 -10.280  -4.864  0.00  0.00    -0.288 OA
BRANCH  21  23
ATOM     23  C   UNL     1       4.578  -9.963  -4.883  0.00  0.00    +0.030 C 
ATOM     24  C   UNL     1       5.787  -9.547  -4.355  0.00  0.00    +0.007 A 
ATOM     25  C   UNL     1       6.142  -8.930  -3.132  0.00  0.00    +0.010 A 
ATOM     26  C   UNL     1       7.433  -8.626  -2.872  0.00  0.00    +0.001 A 
ATOM     27  C   UNL     1       8.469  -8.900  -3.779  0.00  0.00    +0.002 A 
ATOM     28  C   UNL     1       8.238  -9.487  -4.973  0.00  0.00    +0.026 A 
ATOM     29  C   UNL     1       6.858  -9.851  -5.336  0.00  0.00    +0.043 A 
ATOM     30  N   UNL     1       6.358 -10.415  -6.398  0.00  0.00    -0.377 N 
ATOM     31  C   UNL     1       4.907 -10.552  -6.237  0.00  0.00    +0.111 C 
ATOM     32  C   UNL     1       4.182  -9.776  -7.339  0.00  0.00    +0.035 C 
ATOM     33  H   UNL     1       6.866 -10.702  -7.173  0.00  0.00    +0.160 HD
ENDBRANCH  21  23
ENDBRANCH  19  21
ENDBRANCH  18  19
ENDBRANCH   1  18
TORSDOF 7
