REMARK  Name = ZINC64344203
REMARK  7 active torsions:
REMARK  status: ('A' for Active; 'I' for Inactive)
REMARK    1  A    between atoms: C_1  and  C_2
REMARK    2  A    between atoms: C_2  and  C_3
REMARK    3  A    between atoms: C_2  and  C_4
REMARK    4  A    between atoms: C_2  and  N_13
REMARK    5  A    between atoms: N_13  and  C_14
REMARK    6  A    between atoms: C_14  and  C_15
REMARK    7  A    between atoms: C_20  and  N_21
REMARK                            x       y       z     vdW  Elec       q    Type
REMARK                         _______ _______ _______ _____ _____    ______ ____
ROOT
ATOM      1  C   UNL     1      -0.019   1.526   0.010  0.00  0.00    +0.032 C 
ATOM      2  C   UNL     1       0.002  -0.004   0.002  0.00  0.00    +0.039 C 
ATOM      3  C   UNL     1       0.742  -0.511   1.242  0.00  0.00    +0.032 C 
ENDROOT
BRANCH   2   4
ATOM      4  C   UNL     1      -1.412  -0.526   0.013  0.00  0.00    -0.024 A 
ATOM      5  C   UNL     1      -1.860  -1.326  -1.022  0.00  0.00    +0.009 A 
ATOM      6  C   UNL     1      -3.155  -1.807  -1.016  0.00  0.00    +0.050 A 
ATOM      7  C   UNL     1      -4.009  -1.488   0.027  0.00  0.00    +0.166 A 
ATOM      8  C   UNL     1      -3.558  -0.682   1.069  0.00  0.00    +0.167 A 
ATOM      9  C   UNL     1      -2.256  -0.208   1.060  0.00  0.00    +0.055 A 
ATOM     10  O   UNL     1      -4.575  -0.515   1.964  0.00  0.00    -0.453 OA
ATOM     11  C   UNL     1      -5.774  -0.888   1.257  0.00  0.00    +0.466 C 
ATOM     12  O   UNL     1      -5.309  -1.826   0.268  0.00  0.00    -0.453 OA
ENDBRANCH   2   4
BRANCH   2  13
ATOM     13  N   UNL     1       0.690  -0.478  -1.207  0.00  0.00    -0.303 NA
ATOM     14  H   UNL     1       0.660  -1.484  -1.268  0.00  0.00    +0.123 HD
BRANCH  13  15
ATOM     15  C   UNL     1       2.074   0.012  -1.251  0.00  0.00    +0.119 C 
BRANCH  15  16
ATOM     16  C   UNL     1       2.746  -0.493  -2.502  0.00  0.00    -0.003 A 
ATOM     17  C   UNL     1       3.583  -1.591  -2.441  0.00  0.00    +0.007 A 
ATOM     18  C   UNL     1       4.199  -2.054  -3.588  0.00  0.00    +0.000 A 
ATOM     19  C   UNL     1       3.978  -1.420  -4.797  0.00  0.00    +0.002 A 
ATOM     20  C   UNL     1       3.139  -0.323  -4.857  0.00  0.00    +0.033 A 
ATOM     21  C   UNL     1       2.520   0.138  -3.711  0.00  0.00    +0.131 A 
BRANCH  21  22
ATOM     22  N   UNL     1       1.618   1.310  -3.777  0.00  0.00    +0.057 N 
ATOM     23  O   UNL     1       1.421   1.862  -4.834  0.00  0.00    -0.126 OA
ATOM     24  O   UNL     1       1.079   1.715  -2.773  0.00  0.00    -0.126 OA
ENDBRANCH  21  22
ENDBRANCH  15  16
ENDBRANCH  13  15
ENDBRANCH   2  13
TORSDOF 5
