REMARK  Name = ZINC41970526
REMARK  7 active torsions:
REMARK  status: ('A' for Active; 'I' for Inactive)
REMARK    1  A    between atoms: C_1  and  C_2
REMARK    2  A    between atoms: C_6  and  S_8
REMARK    3  A    between atoms: S_8  and  N_11
REMARK    4  A    between atoms: N_11  and  C_12
REMARK    5  A    between atoms: C_15  and  N_18
REMARK    6  A    between atoms: N_21  and  C_22
REMARK    7  A    between atoms: C_22  and  C_23
REMARK                            x       y       z     vdW  Elec       q    Type
REMARK                         _______ _______ _______ _____ _____    ______ ____
ROOT
ATOM      1  C   UNL     1       2.387  -1.916   3.402  0.00  0.00    +0.048 A 
ATOM      2  C   UNL     1       2.283  -0.778   2.612  0.00  0.00    +0.026 A 
ATOM      3  C   UNL     1       2.985   0.362   2.950  0.00  0.00    +0.025 A 
ATOM      4  C   UNL     1       3.792   0.372   4.079  0.00  0.00    +0.035 A 
ATOM      5  C   UNL     1       3.896  -0.765   4.869  0.00  0.00    +0.025 A 
ATOM      6  C   UNL     1       3.191  -1.904   4.535  0.00  0.00    +0.026 A 
ENDROOT
BRANCH   4   7
ATOM      7  N   UNL     1       4.505   1.530   4.421  0.00  0.00    -0.269 N 
ATOM      8  C   UNL     1       3.980   2.745   4.165  0.00  0.00    +0.304 C 
ATOM      9  O   UNL     1       2.850   2.838   3.724  0.00  0.00    -0.253 OA
ATOM     10  N   UNL     1       4.707   3.856   4.396  0.00  0.00    -0.297 N 
ATOM     11  H   UNL     1       5.375   1.457   4.843  0.00  0.00    +0.156 HD
ATOM     12  H   UNL     1       5.608   3.781   4.747  0.00  0.00    +0.150 HD
BRANCH  10  13
ATOM     13  C   UNL     1       4.136   5.176   4.117  0.00  0.00    +0.137 C 
BRANCH  13  14
ATOM     14  C   UNL     1       5.160   6.258   4.464  0.00  0.00    +0.135 C 
ATOM     15  C   UNL     1       4.526   7.655   4.288  0.00  0.00    +0.035 C 
ATOM     16  C   UNL     1       5.694   8.471   3.671  0.00  0.00    +0.031 C 
ATOM     17  C   UNL     1       6.388   7.386   2.810  0.00  0.00    +0.160 C 
ATOM     18  O   UNL     1       6.278   6.173   3.574  0.00  0.00    -0.375 OA
ENDBRANCH  13  14
ENDBRANCH  10  13
ENDBRANCH   4   7
BRANCH   1  19
ATOM     19  N   UNL     1       1.676  -3.072   3.060  0.00  0.00    -0.216 N 
ATOM     20  H   UNL     1       2.119  -3.935   3.076  0.00  0.00    +0.174 HD
BRANCH  19  21
ATOM     21  S   UNL     1       0.081  -2.966   2.629  0.00  0.00    +0.072 S 
ATOM     22  O   UNL     1      -0.378  -4.298   2.441  0.00  0.00    -0.150 OA
ATOM     23  O   UNL     1       0.001  -1.982   1.608  0.00  0.00    -0.150 OA
BRANCH  21  29
ATOM     24  C   UNL     1      -2.730  -3.622   6.987  0.00  0.00    +0.044 C 
ATOM     25  C   UNL     1      -2.078  -2.682   6.006  0.00  0.00    -0.049 A 
ATOM     26  C   UNL     1      -2.164  -1.315   6.196  0.00  0.00    +0.003 A 
ATOM     27  C   UNL     1      -1.566  -0.453   5.297  0.00  0.00    +0.002 A 
ATOM     28  C   UNL     1      -0.880  -0.957   4.207  0.00  0.00    +0.029 A 
ATOM     29  C   UNL     1      -0.792  -2.324   4.018  0.00  0.00    +0.109 A 
ATOM     30  C   UNL     1      -1.387  -3.186   4.920  0.00  0.00    +0.032 A 
ENDBRANCH  21  29
ENDBRANCH  19  21
ENDBRANCH   1  19
TORSDOF 6
