REMARK  Name = ZINC14743771
REMARK  10 active torsions:
REMARK  status: ('A' for Active; 'I' for Inactive)
REMARK    1  A    between atoms: C_1  and  C_2
REMARK    2  A    between atoms: C_2  and  N_3
REMARK    3  A    between atoms: C_6  and  C_8
REMARK    4  A    between atoms: C_16  and  N_64
REMARK    5  A    between atoms: C_18  and  N_66
REMARK    6  A    between atoms: C_22  and  C_23
REMARK    7  A    between atoms: C_22  and  N_66
REMARK    8  A    between atoms: C_24  and  C_25
REMARK    9  A    between atoms: C_24  and  N_66
REMARK   10  A    between atoms: C_25  and  C_27
REMARK                            x       y       z     vdW  Elec       q    Type
REMARK                         _______ _______ _______ _____ _____    ______ ____
ROOT
ATOM      1  N   UNL     1      -0.345  -1.435   6.757  0.00  0.00    -0.268 N 
ATOM      2  C   UNL     1      -0.148  -1.027   5.493  0.00  0.00    +0.043 A 
ATOM      3  C   UNL     1      -0.380   0.308   5.462  0.00  0.00    +0.004 A 
ATOM      4  C   UNL     1      -0.729   0.670   6.774  0.00  0.00    +0.151 A 
ATOM      5  N   UNL     1      -0.685  -0.436   7.496  0.00  0.00    -0.166 NA
ATOM      6  C   UNL     1      -0.268   1.167   4.232  0.00  0.00    +0.024 C 
ATOM      7  C   UNL     1       0.523   0.389   3.172  0.00  0.00    -0.063 C 
ATOM      8  C   UNL     1      -0.062  -1.019   3.029  0.00  0.00    -0.009 C 
ATOM      9  C   UNL     1       0.251  -1.838   4.287  0.00  0.00    +0.054 C 
ENDROOT
BRANCH   4  10
ATOM     10  C   UNL     1      -1.076   2.024   7.253  0.00  0.00    +0.267 C 
ATOM     11  O   UNL     1      -1.181   2.941   6.462  0.00  0.00    -0.268 OA
ATOM     12  N   UNL     1      -1.276   2.242   8.568  0.00  0.00    -0.298 N 
ATOM     13  C   UNL     1      -1.733   3.576   9.005  0.00  0.00    +0.106 C 
ATOM     14  C   UNL     1      -2.816   3.462  10.096  0.00  0.00    +0.000 C 
ATOM     15  C   UNL     1      -3.755   2.321   9.768  0.00  0.00    -0.078 C 
ATOM     16  C   UNL     1      -2.325   0.340   9.701  0.00  0.00    -0.060 C 
ATOM     17  C   UNL     1      -1.029   1.160   9.500  0.00  0.00    +0.089 C 
ATOM     18  C   UNL     1      -4.396   0.267  10.865  0.00  0.00    -0.096 C 
ATOM     19  N   UNL     1      -3.257   1.113  10.485  0.00  0.00    +0.379 N 
ATOM     20  H   UNL     1      -2.776   1.422  11.338  0.00  0.00    -0.082 HD
ENDBRANCH   4  10
BRANCH   1  22
ATOM     21  C   UNL     1      -1.534  -3.546   7.092  0.00  0.00    +0.029 C 
ATOM     22  C   UNL     1      -0.197  -2.815   7.226  0.00  0.00    +0.140 C 
ENDBRANCH   1  22
BRANCH   7  23
ATOM     23  N   UNL     1       0.441   1.117   1.889  0.00  0.00    +0.384 N 
ATOM     24  H   UNL     1       0.617   2.114   2.059  0.00  0.00    -0.081 HD
BRANCH  23  25
ATOM     25  C   UNL     1       1.460   0.602   0.950  0.00  0.00    -0.081 C 
ATOM     26  C   UNL     1       2.846   1.006   1.456  0.00  0.00    -0.017 C 
ENDBRANCH  23  25
BRANCH  23  27
ATOM     27  C   UNL     1      -0.908   0.961   1.305  0.00  0.00    -0.048 C 
BRANCH  27  28
ATOM     28  C   UNL     1      -1.104   2.019   0.250  0.00  0.00    -0.096 C 
ATOM     29  C   UNL     1      -0.876   1.739  -1.009  0.00  0.00    +0.005 C 
ATOM     30  C   UNL     1      -1.562   3.400   0.644  0.00  0.00    +0.036 C 
ENDBRANCH  27  28
ENDBRANCH  23  27
ENDBRANCH   7  23
TORSDOF 6
