REMARK  Name = ZINC19859285
REMARK  13 active torsions:
REMARK  status: ('A' for Active; 'I' for Inactive)
REMARK    1  A    between atoms: C_1  and  C_2
REMARK    2  A    between atoms: N_8  and  C_9
REMARK    3  A    between atoms: C_9  and  C_10
REMARK    4  A    between atoms: C_10  and  N_11
REMARK    5  A    between atoms: C_17  and  C_25
REMARK    6  A    between atoms: C_19  and  C_23
REMARK    7  A    between atoms: C_20  and  N_22
REMARK    8  A    between atoms: C_28  and  O_35
REMARK    9  A    between atoms: C_29  and  O_33
REMARK   10  A    between atoms: C_30  and  O_31
REMARK   11  A    between atoms: O_31  and  C_32
REMARK   12  A    between atoms: O_33  and  C_34
REMARK   13  A    between atoms: O_35  and  C_36
REMARK                            x       y       z     vdW  Elec       q    Type
REMARK                         _______ _______ _______ _____ _____    ______ ____
ROOT
ATOM      1  C   UNL     1       2.396   4.499  -0.687  0.00  0.00    +0.064 C 
ATOM      2  C   UNL     1       1.462   3.331  -0.497  0.00  0.00    +0.022 A 
ATOM      3  C   UNL     1       1.971   2.094  -0.313  0.00  0.00    +0.068 A 
ATOM      4  C   UNL     1       1.101   0.998  -0.135  0.00  0.00    +0.141 A 
ATOM      5  C   UNL     1      -0.260   1.216  -0.155  0.00  0.00    +0.072 A 
ATOM      6  C   UNL     1      -0.742   2.517  -0.349  0.00  0.00    +0.259 A 
ATOM      7  O   UNL     1      -1.946   2.724  -0.373  0.00  0.00    -0.267 OA
ATOM      8  N   UNL     1       0.119   3.538  -0.514  0.00  0.00    -0.311 N 
ATOM      9  C   UNL     1      -1.224   0.076   0.029  0.00  0.00    +0.107 C 
ATOM     10  C   UNL     1      -0.511  -1.115   0.609  0.00  0.00    +0.098 C 
ATOM     11  C   UNL     1       0.840  -1.204   0.587  0.00  0.00    +0.199 C 
ATOM     12  O   UNL     1       1.607  -0.239   0.051  0.00  0.00    -0.441 OA
ENDROOT
BRANCH   9  13
ATOM     13  C   UNL     1      -1.817  -0.297  -1.305  0.00  0.00    +0.011 A 
ATOM     14  C   UNL     1      -1.004  -0.790  -2.308  0.00  0.00    +0.012 A 
ATOM     15  C   UNL     1      -1.544  -1.139  -3.532  0.00  0.00    +0.050 A 
ATOM     16  C   UNL     1      -2.903  -0.985  -3.761  0.00  0.00    +0.165 A 
ATOM     17  C   UNL     1      -3.723  -0.484  -2.757  0.00  0.00    +0.204 A 
ATOM     18  C   UNL     1      -3.177  -0.140  -1.526  0.00  0.00    +0.169 A 
BRANCH  18  19
ATOM     19  O   UNL     1      -3.975   0.350  -0.539  0.00  0.00    -0.491 OA
ATOM     20  C   UNL     1      -4.656  -0.604   0.277  0.00  0.00    +0.277 C 
ENDBRANCH  18  19
BRANCH  17  21
ATOM     21  O   UNL     1      -5.057  -0.331  -2.978  0.00  0.00    -0.488 OA
ATOM     22  C   UNL     1      -5.488   0.928  -3.498  0.00  0.00    +0.277 C 
ENDBRANCH  17  21
BRANCH  16  23
ATOM     23  O   UNL     1      -3.433  -1.323  -4.967  0.00  0.00    -0.491 OA
ATOM     24  C   UNL     1      -2.531  -1.831  -5.952  0.00  0.00    +0.277 C 
ENDBRANCH  16  23
ENDBRANCH   9  13
BRANCH  11  25
ATOM     25  N   UNL     1       1.443  -2.311   1.129  0.00  0.00    -0.328 N 
ATOM     26  H   UNL     1       2.539  -2.400   1.120  0.00  0.00    +0.145 HD
ATOM     27  H   UNL     1       0.830  -3.110   1.572  0.00  0.00    +0.145 HD
ENDBRANCH  11  25
BRANCH  10  28
ATOM     28  C   UNL     1      -1.276  -2.175   1.194  0.00  0.00    +0.101 C 
ATOM     29  N   UNL     1      -1.883  -3.015   1.659  0.00  0.00    -0.191 NA
ENDBRANCH  10  28
BRANCH   8  30
ATOM     30  C   UNL     1      -0.400   4.893  -0.716  0.00  0.00    +0.140 C 
BRANCH  30  31
ATOM     31  C   UNL     1      -0.565   5.583   0.640  0.00  0.00    +0.106 C 
BRANCH  31  32
ATOM     32  N   UNL     1      -1.085   6.942   0.437  0.00  0.00    -0.296 NA
ATOM     33  C   UNL     1      -0.101   7.784  -0.259  0.00  0.00    +0.112 C 
ATOM     34  C   UNL     1      -0.705   9.170  -0.501  0.00  0.00    +0.175 C 
ATOM     35  O   UNL     1      -1.112   9.733   0.749  0.00  0.00    -0.377 OA
ATOM     36  C   UNL     1      -2.070   8.939   1.453  0.00  0.00    +0.175 C 
ATOM     37  C   UNL     1      -1.480   7.551   1.716  0.00  0.00    +0.112 C 
ENDBRANCH  31  32
ENDBRANCH  30  31
ENDBRANCH   8  30
TORSDOF 9
