REMARK  Name = ZINC21469163
REMARK  14 active torsions:
REMARK  status: ('A' for Active; 'I' for Inactive)
REMARK    1  A    between atoms: C_1  and  C_2
REMARK    2  A    between atoms: C_2  and  C_4
REMARK    3  A    between atoms: C_2  and  S_20
REMARK    4  A    between atoms: N_6  and  C_7
REMARK    5  A    between atoms: C_10  and  S_13
REMARK    6  A    between atoms: S_13  and  N_16
REMARK    7  A    between atoms: N_16  and  C_17
REMARK    8  A    between atoms: C_17  and  C_18
REMARK    9  A    between atoms: C_17  and  C_19
REMARK   10  A    between atoms: S_20  and  C_21
REMARK   11  A    between atoms: C_24  and  C_27
REMARK   12  A    between atoms: N_25  and  C_26
REMARK   13  A    between atoms: C_30  and  O_33
REMARK   14  A    between atoms: O_33  and  C_34
REMARK                            x       y       z     vdW  Elec       q    Type
REMARK                         _______ _______ _______ _____ _____    ______ ____
ROOT
ATOM      1  C   UNL     1      -1.826  -0.753   0.579  0.00  0.00    +0.230 C 
ATOM      2  O   UNL     1      -2.221  -0.999   1.699  0.00  0.00    -0.274 OA
ATOM      3  N   UNL     1      -2.623  -0.983  -0.483  0.00  0.00    -0.285 N 
ATOM      4  H   UNL     1      -2.330  -0.732  -1.373  0.00  0.00    +0.155 HD
ENDROOT
BRANCH   3   5
ATOM      5  C   UNL     1      -3.873  -1.585  -0.302  0.00  0.00    +0.034 A 
ATOM      6  C   UNL     1      -4.368  -2.463  -1.257  0.00  0.00    +0.025 A 
ATOM      7  C   UNL     1      -5.602  -3.055  -1.075  0.00  0.00    +0.030 A 
ATOM      8  C   UNL     1      -6.346  -2.774   0.057  0.00  0.00    +0.105 A 
ATOM      9  C   UNL     1      -5.856  -1.899   1.009  0.00  0.00    +0.030 A 
ATOM     10  C   UNL     1      -4.620  -1.309   0.836  0.00  0.00    +0.025 A 
BRANCH   8  11
ATOM     11  S   UNL     1      -7.920  -3.532   0.285  0.00  0.00    +0.059 S 
ATOM     12  O   UNL     1      -8.655  -2.685   1.158  0.00  0.00    -0.153 OA
ATOM     13  O   UNL     1      -8.392  -3.886  -1.008  0.00  0.00    -0.153 OA
BRANCH  11  14
ATOM     14  N   UNL     1      -7.668  -4.950   1.102  0.00  0.00    -0.187 NA
ATOM     15  H   UNL     1      -7.862  -5.798   0.673  0.00  0.00    +0.148 HD
BRANCH  14  16
ATOM     16  C   UNL     1      -7.151  -4.923   2.472  0.00  0.00    +0.070 C 
ATOM     17  C   UNL     1      -8.318  -4.988   3.459  0.00  0.00    +0.025 C 
ATOM     18  C   UNL     1      -6.229  -6.125   2.693  0.00  0.00    +0.025 C 
ENDBRANCH  14  16
ENDBRANCH  11  14
ENDBRANCH   8  11
ENDBRANCH   3   5
BRANCH   1  20
ATOM     19  C   UNL     1      -0.523   1.337   0.289  0.00  0.00    +0.029 C 
ATOM     20  C   UNL     1      -0.444  -0.189   0.375  0.00  0.00    +0.137 C 
BRANCH  20  21
ATOM     21  S   UNL     1       0.614  -0.661   1.771  0.00  0.00    -0.074 S 
BRANCH  21  22
ATOM     22  C   UNL     1       2.209  -0.063   1.318  0.00  0.00    +0.192 A 
ATOM     23  N   UNL     1       2.516   0.580   0.214  0.00  0.00    -0.122 NA
ATOM     24  N   UNL     1       3.768   0.870   0.206  0.00  0.00    -0.128 NA
ATOM     25  C   UNL     1       4.337   0.430   1.304  0.00  0.00    +0.165 A 
ATOM     26  N   UNL     1       3.355  -0.176   2.053  0.00  0.00    -0.305 N 
ATOM     27  C   UNL     1       3.508  -0.814   3.363  0.00  0.00    +0.153 C 
BRANCH  25  28
ATOM     28  C   UNL     1       5.763   0.565   1.669  0.00  0.00    +0.019 A 
ATOM     29  C   UNL     1       6.324  -0.283   2.626  0.00  0.00    +0.015 A 
ATOM     30  C   UNL     1       7.654  -0.154   2.963  0.00  0.00    +0.046 A 
ATOM     31  C   UNL     1       8.436   0.818   2.353  0.00  0.00    +0.120 A 
ATOM     32  C   UNL     1       7.882   1.663   1.401  0.00  0.00    +0.046 A 
ATOM     33  C   UNL     1       6.554   1.537   1.054  0.00  0.00    +0.015 A 
BRANCH  31  34
ATOM     34  O   UNL     1       9.747   0.942   2.689  0.00  0.00    -0.495 OA
ATOM     35  C   UNL     1      10.493   1.963   2.023  0.00  0.00    +0.277 C 
ENDBRANCH  31  34
ENDBRANCH  25  28
ENDBRANCH  21  22
ENDBRANCH  20  21
ENDBRANCH   1  20
TORSDOF 9
