REMARK  Name = ZINC36214561
REMARK  8 active torsions:
REMARK  status: ('A' for Active; 'I' for Inactive)
REMARK    1  A    between atoms: C_6  and  N_7
REMARK    2  A    between atoms: N_7  and  C_8
REMARK    3  A    between atoms: C_8  and  N_10
REMARK    4  A    between atoms: C_13  and  C_16
REMARK    5  A    between atoms: C_16  and  C_18
REMARK    6  A    between atoms: C_16  and  N_24
REMARK    7  A    between atoms: N_20  and  C_21
REMARK    8  A    between atoms: C_25  and  C_27
REMARK                            x       y       z     vdW  Elec       q    Type
REMARK                         _______ _______ _______ _____ _____    ______ ____
ROOT
ATOM      1  C   UNL     1      -5.641  -4.591   1.763  0.00  0.00    +0.162 C 
ENDROOT
BRANCH   1   5
ATOM      2  N   UNL     1      -2.343  -2.747  -0.193  0.00  0.00    -0.312 N 
ATOM      3  C   UNL     1      -3.624  -2.036  -0.293  0.00  0.00    +0.107 C 
ATOM      4  C   UNL     1      -4.562  -2.553   0.802  0.00  0.00    +0.025 C 
ATOM      5  C   UNL     1      -4.678  -4.075   0.692  0.00  0.00    +0.021 C 
ATOM      6  C   UNL     1      -3.300  -4.709   0.897  0.00  0.00    +0.025 C 
ATOM      7  C   UNL     1      -2.347  -4.216  -0.202  0.00  0.00    +0.107 C 
BRANCH   2   8
ATOM      8  C   UNL     1      -1.184  -2.065  -0.099  0.00  0.00    +0.137 C 
ATOM      9  S   UNL     1       0.308  -2.903  -0.132  0.00  0.00    -0.018 S 
BRANCH   8  10
ATOM     10  N   UNL     1      -1.200  -0.722   0.021  0.00  0.00    -0.297 N 
ATOM     11  H   UNL     1      -2.044  -0.255   0.126  0.00  0.00    +0.154 HD
BRANCH  10  17
ATOM     12  C   UNL     1       1.000  -0.352  -0.905  0.00  0.00    +0.026 A 
ATOM     13  C   UNL     1       2.183   0.360  -0.931  0.00  0.00    +0.040 A 
ATOM     14  C   UNL     1       2.373   1.421  -0.062  0.00  0.00    +0.124 A 
ATOM     15  C   UNL     1       1.378   1.771   0.835  0.00  0.00    +0.040 A 
ATOM     16  C   UNL     1       0.193   1.062   0.864  0.00  0.00    +0.026 A 
ATOM     17  C   UNL     1      -0.000  -0.002  -0.007  0.00  0.00    +0.033 A 
ATOM     18  F   UNL     1       3.531   2.116  -0.089  0.00  0.00    -0.205 F 
ENDBRANCH  10  17
ENDBRANCH   8  10
ENDBRANCH   2   8
ENDBRANCH   1   5
BRANCH   1  19
ATOM     19  C   UNL     1      -5.755  -6.090   1.655  0.00  0.00    +0.234 C 
ATOM     20  O   UNL     1      -5.443  -6.791   2.594  0.00  0.00    -0.274 OA
ATOM     21  N   UNL     1      -6.204  -6.652   0.515  0.00  0.00    -0.311 N 
ATOM     22  H   UNL     1      -6.454  -6.091  -0.236  0.00  0.00    +0.149 HD
BRANCH  21  23
ATOM     23  C   UNL     1      -6.315  -8.109   0.410  0.00  0.00    +0.073 C 
ATOM     24  C   UNL     1      -5.825  -8.764  -0.883  0.00  0.00    +0.024 C 
ATOM     25  C   UNL     1      -7.325  -8.671  -0.592  0.00  0.00    +0.024 C 
ENDBRANCH  21  23
ENDBRANCH   1  19
BRANCH   1  26
ATOM     26  N   UNL     1      -5.134  -4.234   3.090  0.00  0.00    -0.300 N 
ATOM     27  C   UNL     1      -5.986  -4.115   4.127  0.00  0.00    +0.245 C 
ATOM     28  O   UNL     1      -7.175  -4.303   3.962  0.00  0.00    -0.270 OA
ATOM     29  H   UNL     1      -4.185  -4.084   3.222  0.00  0.00    +0.150 HD
BRANCH  27  30
ATOM     30  C   UNL     1      -5.474  -3.755   5.464  0.00  0.00    +0.040 A 
ATOM     31  C   UNL     1      -4.108  -3.532   5.655  0.00  0.00    +0.017 A 
ATOM     32  C   UNL     1      -3.633  -3.195   6.903  0.00  0.00    +0.050 A 
ATOM     33  C   UNL     1      -4.507  -3.076   7.976  0.00  0.00    +0.166 A 
ATOM     34  C   UNL     1      -5.872  -3.298   7.792  0.00  0.00    +0.167 A 
ATOM     35  C   UNL     1      -6.356  -3.630   6.541  0.00  0.00    +0.062 A 
ATOM     36  O   UNL     1      -6.507  -3.120   8.988  0.00  0.00    -0.453 OA
ATOM     37  C   UNL     1      -5.472  -3.189   9.986  0.00  0.00    +0.466 C 
ATOM     38  O   UNL     1      -4.290  -2.760   9.284  0.00  0.00    -0.453 OA
ENDBRANCH  27  30
ENDBRANCH   1  26
TORSDOF 8
