REMARK  Name = ZINC02739132
REMARK  7 active torsions:
REMARK  status: ('A' for Active; 'I' for Inactive)
REMARK    1  A    between atoms: C_1  and  C_2
REMARK    2  A    between atoms: C_2  and  C_3
REMARK    3  A    between atoms: C_2  and  C_4
REMARK    4  A    between atoms: C_2  and  C_5
REMARK    5  A    between atoms: C_12  and  N_17
REMARK    6  A    between atoms: C_13  and  C_14
REMARK    7  A    between atoms: C_18  and  C_20
REMARK                            x       y       z     vdW  Elec       q    Type
REMARK                         _______ _______ _______ _____ _____    ______ ____
ROOT
ATOM      1  C   UNL     1       6.732  -1.185   0.313  0.00  0.00    -0.000 C 
ATOM      2  C   UNL     1       7.061   0.057  -0.520  0.00  0.00    +0.009 C 
ATOM      3  C   UNL     1       6.211   1.239  -0.050  0.00  0.00    +0.037 C 
ATOM      4  C   UNL     1       4.747   0.817  -0.038  0.00  0.00    -0.023 A 
ATOM      5  C   UNL     1       4.400  -0.488  -0.042  0.00  0.00    -0.004 A 
ATOM      6  S   UNL     1       2.629  -0.485  -0.026  0.00  0.00    -0.077 S 
ATOM      7  C   UNL     1       2.353   1.225  -0.014  0.00  0.00    +0.085 A 
ATOM      8  C   UNL     1       3.636   1.753  -0.029  0.00  0.00    +0.068 A 
ATOM      9  C   UNL     1       5.322  -1.669  -0.057  0.00  0.00    +0.046 C 
ENDROOT
BRANCH   8  10
ATOM     10  C   UNL     1       3.862   3.201  -0.031  0.00  0.00    +0.244 C 
ATOM     11  O   UNL     1       3.969   3.802   1.022  0.00  0.00    -0.270 OA
ATOM     12  N   UNL     1       3.952   3.868  -1.199  0.00  0.00    -0.325 N 
ATOM     13  H   UNL     1       3.867   3.389  -2.038  0.00  0.00    +0.145 HD
ATOM     14  H   UNL     1       4.101   4.826  -1.200  0.00  0.00    +0.145 HD
ENDBRANCH   8  10
BRANCH   1  16
ATOM     15  C   UNL     1       9.153  -1.798   0.365  0.00  0.00    +0.011 C 
ATOM     16  C   UNL     1       7.747  -2.289   0.012  0.00  0.00    -0.035 C 
ATOM     17  C   UNL     1       7.416  -3.528   0.846  0.00  0.00    +0.011 C 
ATOM     18  C   UNL     1       7.689  -2.644  -1.475  0.00  0.00    +0.011 C 
ENDBRANCH   1  16
BRANCH   7  19
ATOM     19  N   UNL     1       1.143   1.901   0.001  0.00  0.00    -0.275 N 
ATOM     20  C   UNL     1      -0.014   1.212   0.009  0.00  0.00    +0.250 C 
ATOM     21  O   UNL     1       0.002  -0.004   0.002  0.00  0.00    -0.270 OA
ATOM     22  H   UNL     1       1.130   2.871   0.007  0.00  0.00    +0.156 HD
BRANCH  20  23
ATOM     23  C   UNL     1      -1.304   1.933   0.019  0.00  0.00    +0.051 A 
ATOM     24  C   UNL     1      -1.326   3.329   0.026  0.00  0.00    +0.014 A 
ATOM     25  C   UNL     1      -2.533   3.996   0.036  0.00  0.00    +0.001 A 
ATOM     26  C   UNL     1      -3.721   3.285   0.038  0.00  0.00    +0.001 A 
ATOM     27  C   UNL     1      -3.707   1.902   0.030  0.00  0.00    +0.016 A 
ATOM     28  C   UNL     1      -2.506   1.221   0.015  0.00  0.00    +0.030 A 
ATOM     29 BR   UNL     1      -2.488  -0.670  -0.003  0.00  0.00    -0.050 Br
ENDBRANCH  20  23
ENDBRANCH   7  19
TORSDOF 4
