REMARK  Name = ZINC39709829
REMARK  13 active torsions:
REMARK  status: ('A' for Active; 'I' for Inactive)
REMARK    1  A    between atoms: C_1  and  C_2
REMARK    2  A    between atoms: C_2  and  O_3
REMARK    3  A    between atoms: O_3  and  C_4
REMARK    4  A    between atoms: C_7  and  C_10
REMARK    5  A    between atoms: C_13  and  S_19
REMARK    6  A    between atoms: N_14  and  C_15
REMARK    7  A    between atoms: C_15  and  C_16
REMARK    8  A    between atoms: S_19  and  C_20
REMARK    9  A    between atoms: C_20  and  C_22
REMARK   10  A    between atoms: C_20  and  C_23
REMARK   11  A    between atoms: N_25  and  C_26
REMARK   12  A    between atoms: C_31  and  C_36
REMARK   13  A    between atoms: C_33  and  C_35
REMARK                            x       y       z     vdW  Elec       q    Type
REMARK                         _______ _______ _______ _____ _____    ______ ____
ROOT
ATOM      1  C   UNL     1       1.108  -6.034   1.803  0.00  0.00    +0.165 A 
ATOM      2  N   UNL     1       0.382  -6.945   1.198  0.00  0.00    -0.128 NA
ATOM      3  N   UNL     1       0.797  -8.119   1.515  0.00  0.00    -0.122 NA
ATOM      4  C   UNL     1       1.814  -8.030   2.341  0.00  0.00    +0.193 A 
ATOM      5  N   UNL     1       2.052  -6.701   2.550  0.00  0.00    -0.291 N 
ENDROOT
BRANCH   1   9
ATOM      6  C   UNL     1       0.643  -1.822   1.500  0.00  0.00    +0.121 A 
ATOM      7  C   UNL     1       0.106  -2.650   0.523  0.00  0.00    +0.046 A 
ATOM      8  C   UNL     1       0.255  -4.017   0.618  0.00  0.00    +0.015 A 
ATOM      9  C   UNL     1       0.947  -4.569   1.697  0.00  0.00    +0.020 A 
ATOM     10  C   UNL     1       1.485  -3.733   2.677  0.00  0.00    +0.015 A 
ATOM     11  C   UNL     1       1.336  -2.366   2.573  0.00  0.00    +0.046 A 
BRANCH   6  12
ATOM     12  O   UNL     1       0.494  -0.474   1.403  0.00  0.00    -0.492 OA
BRANCH  12  14
ATOM     13  C   UNL     1      -0.293   1.546   0.336  0.00  0.00    +0.048 C 
ATOM     14  C   UNL     1      -0.230   0.019   0.274  0.00  0.00    +0.225 C 
ENDBRANCH  12  14
ENDBRANCH   6  12
ENDBRANCH   1   9
BRANCH   5  15
ATOM     15  C   UNL     1       3.092  -6.109   3.394  0.00  0.00    +0.250 C 
BRANCH  15  16
ATOM     16  C   UNL     1       2.579  -5.975   4.805  0.00  0.00    +0.375 C 
ATOM     17  O   UNL     1       1.448  -6.340   5.079  0.00  0.00    -0.244 OA
ATOM     18  O   UNL     1       3.293  -5.502   5.671  0.00  0.00    -0.244 OA
ENDBRANCH  15  16
ENDBRANCH   5  15
BRANCH   4  19
ATOM     19  S   UNL     1       2.710  -9.375   3.045  0.00  0.00    -0.074 S 
BRANCH  19  20
ATOM     20  C   UNL     1       1.900 -10.847   2.361  0.00  0.00    +0.137 C 
ATOM     21  C   UNL     1       2.109 -10.887   0.846  0.00  0.00    +0.029 C 
BRANCH  20  22
ATOM     22  C   UNL     1       2.496 -12.083   2.983  0.00  0.00    +0.226 C 
ATOM     23  O   UNL     1       3.587 -12.031   3.510  0.00  0.00    -0.275 OA
ATOM     24  N   UNL     1       1.817 -13.247   2.954  0.00  0.00    -0.311 N 
ATOM     25  H   UNL     1       0.945 -13.289   2.533  0.00  0.00    +0.149 HD
BRANCH  24  26
ATOM     26  C   UNL     1       2.397 -14.449   3.559  0.00  0.00    +0.076 C 
ATOM     27  C   UNL     1       2.080 -14.470   5.056  0.00  0.00    +0.022 C 
ATOM     28  C   UNL     1       2.686 -15.726   5.687  0.00  0.00    +0.002 C 
ATOM     29  C   UNL     1       2.092 -16.969   5.022  0.00  0.00    +0.003 C 
ATOM     30  C   UNL     1       2.409 -16.947   3.525  0.00  0.00    -0.009 C 
ATOM     31  C   UNL     1       1.804 -15.692   2.894  0.00  0.00    +0.009 C 
ATOM     32  C   UNL     1       2.121 -15.670   1.397  0.00  0.00    +0.009 C 
ATOM     33  C   UNL     1       3.926 -16.937   3.326  0.00  0.00    +0.008 C 
ENDBRANCH  24  26
ENDBRANCH  20  22
ENDBRANCH  19  20
ENDBRANCH   4  19
TORSDOF 9
