REMARK  Name = ZINC13988432
REMARK  9 active torsions:
REMARK  status: ('A' for Active; 'I' for Inactive)
REMARK    1  A    between atoms: C_4  and  C_7
REMARK    2  A    between atoms: C_7  and  O_8
REMARK    3  A    between atoms: O_8  and  C_9
REMARK    4  A    between atoms: C_9  and  C_11
REMARK    5  A    between atoms: C_11  and  C_12
REMARK    6  A    between atoms: N_19  and  C_20
REMARK    7  A    between atoms: C_20  and  N_22
REMARK    8  A    between atoms: C_23  and  C_25
REMARK    9  A    between atoms: C_29  and  N_31
REMARK                            x       y       z     vdW  Elec       q    Type
REMARK                         _______ _______ _______ _____ _____    ______ ____
ROOT
ATOM      1  C   UNL     1      -4.881  -3.151   0.115  0.00  0.00    +0.171 C 
ATOM      2  C   UNL     1      -4.619  -4.358  -0.744  0.00  0.00    +0.234 C 
ATOM      3  O   UNL     1      -5.558  -5.057  -1.061  0.00  0.00    -0.274 OA
ATOM      4  N   UNL     1      -3.402  -4.695  -1.171  0.00  0.00    -0.312 N 
ATOM      5  C   UNL     1      -2.198  -3.907  -0.946  0.00  0.00    +0.123 C 
ATOM      6  C   UNL     1      -2.378  -2.973   0.247  0.00  0.00    +0.126 C 
ATOM      7  N   UNL     1      -3.682  -2.301   0.120  0.00  0.00    -0.299 N 
ATOM      8  H   UNL     1      -3.312  -5.524  -1.667  0.00  0.00    +0.149 HD
ENDROOT
BRANCH   7   9
ATOM      9  C   UNL     1      -3.771  -0.961   0.007  0.00  0.00    +0.140 C 
ATOM     10  S   UNL     1      -2.349  -0.008  -0.039  0.00  0.00    -0.018 S 
BRANCH   9  11
ATOM     11  N   UNL     1      -4.980  -0.370  -0.069  0.00  0.00    -0.264 N 
ATOM     12  C   UNL     1      -5.074   0.975  -0.075  0.00  0.00    +0.250 C 
ATOM     13  O   UNL     1      -4.069   1.654  -0.012  0.00  0.00    -0.270 OA
ATOM     14  H   UNL     1      -5.783  -0.913  -0.118  0.00  0.00    +0.157 HD
BRANCH  12  15
ATOM     15  C   UNL     1      -6.400   1.622  -0.158  0.00  0.00    +0.039 A 
ATOM     16  C   UNL     1      -7.557   0.844  -0.230  0.00  0.00    +0.013 A 
ATOM     17  C   UNL     1      -8.792   1.455  -0.302  0.00  0.00    +0.003 A 
ATOM     18  C   UNL     1      -8.885   2.835  -0.309  0.00  0.00    +0.033 A 
ATOM     19  C   UNL     1      -7.742   3.612  -0.242  0.00  0.00    +0.127 A 
ATOM     20  C   UNL     1      -6.501   3.014  -0.169  0.00  0.00    +0.045 A 
BRANCH  19  21
ATOM     21  N   UNL     1      -7.851   5.088  -0.249  0.00  0.00    +0.056 N 
ATOM     22  O   UNL     1      -8.947   5.618  -0.313  0.00  0.00    -0.126 OA
ATOM     23  O   UNL     1      -6.846   5.774  -0.191  0.00  0.00    -0.126 OA
ENDBRANCH  19  21
ENDBRANCH  12  15
ENDBRANCH   9  11
ENDBRANCH   7   9
BRANCH   1  24
ATOM     24  C   UNL     1      -5.199  -3.597   1.544  0.00  0.00    +0.152 C 
BRANCH  24  25
ATOM     25  C   UNL     1      -5.604  -2.401   2.366  0.00  0.00    +0.310 C 
ATOM     26  O   UNL     1      -5.548  -1.292   1.888  0.00  0.00    -0.251 OA
BRANCH  25  27
ATOM     27  O   UNL     1      -6.027  -2.566   3.629  0.00  0.00    -0.460 OA
BRANCH  27  28
ATOM     28  C   UNL     1      -6.400  -1.369   4.361  0.00  0.00    +0.267 C 
BRANCH  28  32
ATOM     29  C   UNL     1      -7.663  -2.444   8.298  0.00  0.00    +0.000 A 
ATOM     30  C   UNL     1      -6.333  -2.158   8.053  0.00  0.00    +0.000 A 
ATOM     31  C   UNL     1      -5.924  -1.811   6.778  0.00  0.00    +0.007 A 
ATOM     32  C   UNL     1      -6.846  -1.749   5.750  0.00  0.00    -0.010 A 
ATOM     33  C   UNL     1      -8.177  -2.029   5.997  0.00  0.00    +0.007 A 
ATOM     34  C   UNL     1      -8.584  -2.382   7.269  0.00  0.00    +0.000 A 
ENDBRANCH  28  32
ENDBRANCH  27  28
ENDBRANCH  25  27
ENDBRANCH  24  25
ENDBRANCH   1  24
TORSDOF 9
