REMARK  Name = ZINC02902014
REMARK  12 active torsions:
REMARK  status: ('A' for Active; 'I' for Inactive)
REMARK    1  A    between atoms: C_1  and  O_2
REMARK    2  A    between atoms: O_2  and  C_3
REMARK    3  A    between atoms: C_6  and  N_9
REMARK    4  A    between atoms: N_9  and  C_10
REMARK    5  A    between atoms: N_9  and  S_26
REMARK    6  A    between atoms: C_10  and  C_11
REMARK    7  A    between atoms: N_13  and  N_14
REMARK    8  A    between atoms: C_15  and  C_16
REMARK    9  A    between atoms: C_19  and  C_22
REMARK   10  A    between atoms: C_22  and  O_24
REMARK   11  A    between atoms: O_24  and  C_25
REMARK   12  A    between atoms: S_26  and  C_29
REMARK                            x       y       z     vdW  Elec       q    Type
REMARK                         _______ _______ _______ _____ _____    ______ ____
ROOT
ATOM      1  N   UNL     1      -7.339   9.494   0.079  0.00  0.00    -0.194 N 
ENDROOT
BRANCH   1   5
ATOM      2  C   UNL     1      -6.691  11.434   3.711  0.00  0.00    +0.120 A 
ATOM      3  C   UNL     1      -6.321  10.106   3.559  0.00  0.00    +0.047 A 
ATOM      4  C   UNL     1      -6.536   9.462   2.356  0.00  0.00    +0.028 A 
ATOM      5  C   UNL     1      -7.122  10.145   1.298  0.00  0.00    +0.052 A 
ATOM      6  C   UNL     1      -7.486  11.476   1.450  0.00  0.00    +0.028 A 
ATOM      7  C   UNL     1      -7.276  12.117   2.655  0.00  0.00    +0.047 A 
BRANCH   2   9
ATOM      8  C   UNL     1      -6.884  13.435   4.981  0.00  0.00    +0.277 C 
ATOM      9  O   UNL     1      -6.479  12.068   4.896  0.00  0.00    -0.495 OA
ENDBRANCH   2   9
ENDBRANCH   1   5
BRANCH   1  10
ATOM     10  S   UNL     1      -6.673  10.096  -1.312  0.00  0.00    +0.075 S 
ATOM     11  O   UNL     1      -5.632  10.978  -0.915  0.00  0.00    -0.150 OA
ATOM     12  O   UNL     1      -6.445   8.985  -2.167  0.00  0.00    -0.150 OA
BRANCH  10  13
ATOM     13  C   UNL     1      -7.903  11.088  -2.092  0.00  0.00    +0.109 A 
ATOM     14  C   UNL     1      -8.848  10.499  -2.911  0.00  0.00    +0.029 A 
ATOM     15  C   UNL     1      -9.816  11.277  -3.519  0.00  0.00    +0.002 A 
ATOM     16  C   UNL     1      -9.832  12.644  -3.316  0.00  0.00    +0.000 A 
ATOM     17  C   UNL     1      -8.884  13.233  -2.501  0.00  0.00    +0.002 A 
ATOM     18  C   UNL     1      -7.919  12.455  -1.889  0.00  0.00    +0.029 A 
ENDBRANCH  10  13
ENDBRANCH   1  10
BRANCH   1  19
ATOM     19  C   UNL     1      -8.156   8.279   0.034  0.00  0.00    +0.228 C 
BRANCH  19  20
ATOM     20  C   UNL     1      -7.297   7.083   0.354  0.00  0.00    +0.251 C 
ATOM     21  O   UNL     1      -6.118   7.231   0.597  0.00  0.00    -0.272 OA
ATOM     22  N   UNL     1      -7.839   5.849   0.371  0.00  0.00    -0.206 N 
ATOM     23  H   UNL     1      -8.782   5.730   0.177  0.00  0.00    +0.177 HD
BRANCH  22  24
ATOM     24  N   UNL     1      -7.040   4.737   0.669  0.00  0.00    -0.188 NA
ATOM     25  C   UNL     1      -7.562   3.548   0.685  0.00  0.00    +0.138 C 
BRANCH  25  26
ATOM     26  C   UNL     1      -6.722   2.379   0.999  0.00  0.00    -0.005 A 
ATOM     27  C   UNL     1      -7.284   1.099   1.016  0.00  0.00    +0.010 A 
ATOM     28  C   UNL     1      -6.505   0.015   1.306  0.00  0.00    +0.015 A 
ATOM     29  C   UNL     1      -5.145   0.186   1.585  0.00  0.00    +0.059 A 
ATOM     30  C   UNL     1      -4.584   1.466   1.573  0.00  0.00    +0.015 A 
ATOM     31  C   UNL     1      -5.362   2.550   1.278  0.00  0.00    +0.010 A 
BRANCH  29  32
ATOM     32  C   UNL     1      -4.304  -0.985   1.898  0.00  0.00    +0.339 C 
ATOM     33  O   UNL     1      -4.792  -2.097   1.914  0.00  0.00    -0.245 OA
BRANCH  32  34
ATOM     34  O   UNL     1      -2.992  -0.821   2.162  0.00  0.00    -0.464 OA
ATOM     35  C   UNL     1      -2.225  -2.018   2.456  0.00  0.00    +0.280 C 
ENDBRANCH  32  34
ENDBRANCH  29  32
ENDBRANCH  25  26
ENDBRANCH  22  24
ENDBRANCH  19  20
ENDBRANCH   1  19
TORSDOF 10
