REMARK  Name = ZINC04689069
REMARK  5 active torsions:
REMARK  status: ('A' for Active; 'I' for Inactive)
REMARK    1  A    between atoms: C_6  and  N_7
REMARK    2  A    between atoms: C_8  and  C_10
REMARK    3  A    between atoms: C_10  and  O_11
REMARK    4  A    between atoms: O_11  and  C_12
REMARK    5  A    between atoms: C_15  and  N_18
REMARK                            x       y       z     vdW  Elec       q    Type
REMARK                         _______ _______ _______ _____ _____    ______ ____
ROOT
ATOM      1  N   UNL     1       3.270   6.433   0.006  0.00  0.00    -0.283 N 
ATOM      2  C   UNL     1       2.211   5.600   0.010  0.00  0.00    +0.255 C 
ATOM      3  O   UNL     1       1.085   6.050   0.015  0.00  0.00    -0.272 OA
ATOM      4  H   UNL     1       4.169   6.075   0.070  0.00  0.00    +0.155 HD
ENDROOT
BRANCH   1  10
ATOM      5  C   UNL     1       3.982   8.602  -0.785  0.00  0.00    +0.025 A 
ATOM      6  C   UNL     1       3.781   9.965  -0.883  0.00  0.00    +0.022 A 
ATOM      7  C   UNL     1       2.682  10.549  -0.279  0.00  0.00    +0.041 A 
ATOM      8  C   UNL     1       1.778   9.769   0.420  0.00  0.00    +0.022 A 
ATOM      9  C   UNL     1       1.970   8.404   0.516  0.00  0.00    +0.025 A 
ATOM     10  C   UNL     1       3.072   7.816  -0.089  0.00  0.00    +0.034 A 
ATOM     11 CL   UNL     1       2.437  12.263  -0.397  0.00  0.00    -0.084 Cl
ENDBRANCH   1  10
BRANCH   2  12
ATOM     12  C   UNL     1       2.426   4.108   0.008  0.00  0.00    +0.324 C 
BRANCH  12  13
ATOM     13  O   UNL     1       1.161   3.445   0.013  0.00  0.00    -0.483 OA
BRANCH  13  14
ATOM     14  C   UNL     1       1.177   2.086   0.012  0.00  0.00    +0.121 A 
ATOM     15  C   UNL     1      -0.016   1.377   0.016  0.00  0.00    +0.048 A 
ATOM     16  C   UNL     1       0.003  -0.004   0.016  0.00  0.00    +0.036 A 
ATOM     17  C   UNL     1       1.209  -0.680   0.011  0.00  0.00    +0.126 A 
ATOM     18  C   UNL     1       2.399   0.024   0.007  0.00  0.00    +0.036 A 
ATOM     19  C   UNL     1       2.385   1.405   0.008  0.00  0.00    +0.048 A 
BRANCH  17  20
ATOM     20  N   UNL     1       1.226  -2.160   0.010  0.00  0.00    +0.056 N 
ATOM     21  O   UNL     1       0.179  -2.782   0.014  0.00  0.00    -0.126 OA
ATOM     22  O   UNL     1       2.288  -2.757   0.005  0.00  0.00    -0.126 OA
ENDBRANCH  17  20
ENDBRANCH  13  14
ENDBRANCH  12  13
ENDBRANCH   2  12
TORSDOF 5
