REMARK  Name = ZINC06797989
REMARK  8 active torsions:
REMARK  status: ('A' for Active; 'I' for Inactive)
REMARK    1  A    between atoms: C_1  and  C_2
REMARK    2  A    between atoms: C_5  and  C_8
REMARK    3  A    between atoms: C_8  and  O_10
REMARK    4  A    between atoms: O_10  and  C_11
REMARK    5  A    between atoms: C_14  and  C_17
REMARK    6  A    between atoms: N_18  and  N_19
REMARK    7  A    between atoms: C_24  and  C_27
REMARK    8  A    between atoms: C_27  and  C_28
REMARK                            x       y       z     vdW  Elec       q    Type
REMARK                         _______ _______ _______ _____ _____    ______ ____
ROOT
ATOM      1  C   UNL     1       6.021  10.976   5.402  0.00  0.00    +0.132 A 
ATOM      2  C   UNL     1       6.406  10.035   6.349  0.00  0.00    +0.047 A 
ATOM      3  C   UNL     1       6.210   8.693   6.109  0.00  0.00    +0.013 A 
ATOM      4  C   UNL     1       5.622   8.278   4.911  0.00  0.00    -0.005 A 
ATOM      5  C   UNL     1       5.241   9.227   3.959  0.00  0.00    +0.013 A 
ATOM      6  C   UNL     1       5.437  10.568   4.210  0.00  0.00    +0.047 A 
ENDROOT
BRANCH   4   7
ATOM      7  C   UNL     1       5.410   6.843   4.649  0.00  0.00    +0.138 C 
ATOM      8  N   UNL     1       4.864   6.460   3.536  0.00  0.00    -0.188 NA
BRANCH   8   9
ATOM      9  N   UNL     1       4.662   5.096   3.287  0.00  0.00    -0.217 N 
ATOM     10  C   UNL     1       4.088   4.693   2.117  0.00  0.00    +0.166 C 
ATOM     11  N   UNL     1       3.663   5.446   1.111  0.00  0.00    -0.157 NA
ATOM     12  C   UNL     1       3.122   4.979   0.019  0.00  0.00    +0.252 C 
ATOM     13  O   UNL     1       2.745   5.704  -0.881  0.00  0.00    -0.272 OA
ATOM     14  C   UNL     1       2.995   3.462  -0.049  0.00  0.00    +0.152 C 
ATOM     15  S   UNL     1       3.732   3.026   1.578  0.00  0.00    -0.078 S 
ATOM     16  H   UNL     1       4.931   4.437   3.947  0.00  0.00    +0.176 HD
BRANCH  14  17
ATOM     17  C   UNL     1       1.531   3.027  -0.135  0.00  0.00    +0.149 C 
BRANCH  17  18
ATOM     18  C   UNL     1       1.453   1.522  -0.113  0.00  0.00    +0.358 C 
ATOM     19  O   UNL     1       2.464   0.865  -0.036  0.00  0.00    -0.246 OA
ATOM     20  O   UNL     1       0.259   0.911  -0.177  0.00  0.00    -0.246 OA
ENDBRANCH  17  18
ENDBRANCH  14  17
ENDBRANCH   8   9
ENDBRANCH   4   7
BRANCH   1  21
ATOM     21  O   UNL     1       6.217  12.299   5.643  0.00  0.00    -0.422 OA
BRANCH  21  22
ATOM     22  C   UNL     1       7.491  12.736   5.657  0.00  0.00    +0.344 C 
ATOM     23  O   UNL     1       8.396  11.982   5.358  0.00  0.00    -0.245 OA
BRANCH  22  28
ATOM     24  C   UNL     1       8.651  18.173   7.138  0.00  0.00    +0.044 C 
ATOM     25  C   UNL     1       8.347  16.749   6.750  0.00  0.00    -0.050 A 
ATOM     26  C   UNL     1       9.379  15.893   6.410  0.00  0.00    +0.004 A 
ATOM     27  C   UNL     1       9.109  14.588   6.054  0.00  0.00    +0.015 A 
ATOM     28  C   UNL     1       7.789  14.132   6.038  0.00  0.00    +0.059 A 
ATOM     29  C   UNL     1       6.752  15.002   6.377  0.00  0.00    +0.015 A 
ATOM     30  C   UNL     1       7.037  16.303   6.736  0.00  0.00    +0.004 A 
ENDBRANCH  22  28
ENDBRANCH  21  22
ENDBRANCH   1  21
TORSDOF 7
