REMARK  Name = ZINC00943839
REMARK  10 active torsions:
REMARK  status: ('A' for Active; 'I' for Inactive)
REMARK    1  A    between atoms: C_1  and  C_2
REMARK    2  A    between atoms: C_9  and  N_15
REMARK    3  A    between atoms: C_10  and  C_11
REMARK    4  A    between atoms: C_11  and  O_13
REMARK    5  A    between atoms: O_13  and  C_14
REMARK    6  A    between atoms: C_16  and  C_18
REMARK    7  A    between atoms: C_18  and  C_20
REMARK    8  A    between atoms: C_18  and  N_23
REMARK    9  A    between atoms: C_20  and  C_21
REMARK   10  A    between atoms: C_20  and  C_22
REMARK                            x       y       z     vdW  Elec       q    Type
REMARK                         _______ _______ _______ _____ _____    ______ ____
ROOT
ATOM      1  N   UNL     1      -0.657   2.444  -4.909  0.00  0.00    -0.278 N 
ATOM      2  C   UNL     1      -1.541   2.885  -5.825  0.00  0.00    +0.239 C 
ATOM      3  O   UNL     1      -2.684   3.126  -5.498  0.00  0.00    -0.273 OA
ATOM      4  H   UNL     1       0.236   2.182  -5.184  0.00  0.00    +0.155 HD
ENDROOT
BRANCH   1  12
ATOM      5  C   UNL     1      -3.144   2.056   2.497  0.00  0.00    +0.008 C 
ATOM      6  C   UNL     1      -2.432   1.709   1.188  0.00  0.00    -0.009 C 
ATOM      7  C   UNL     1      -0.948   2.081   1.296  0.00  0.00    +0.008 C 
ATOM      8  C   UNL     1      -0.185   1.518   0.097  0.00  0.00    +0.037 C 
ATOM      9  C   UNL     1      -0.888   1.953  -1.184  0.00  0.00    -0.021 A 
ATOM     10  C   UNL     1      -2.167   2.384  -1.163  0.00  0.00    -0.004 A 
ATOM     11  S   UNL     1      -2.543   2.771  -2.849  0.00  0.00    -0.077 S 
ATOM     12  C   UNL     1      -1.023   2.365  -3.575  0.00  0.00    +0.086 A 
ATOM     13  C   UNL     1      -0.260   1.940  -2.495  0.00  0.00    +0.091 A 
ATOM     14  C   UNL     1      -3.060   2.504   0.034  0.00  0.00    +0.046 C 
BRANCH  13  15
ATOM     15  C   UNL     1       1.125   1.496  -2.670  0.00  0.00    +0.342 C 
ATOM     16  O   UNL     1       1.364   0.325  -2.893  0.00  0.00    -0.245 OA
BRANCH  15  17
ATOM     17  O   UNL     1       2.134   2.387  -2.583  0.00  0.00    -0.464 OA
ATOM     18  C   UNL     1       3.481   1.876  -2.768  0.00  0.00    +0.280 C 
ENDBRANCH  15  17
ENDBRANCH  13  15
ENDBRANCH   1  12
BRANCH   2  19
ATOM     19  C   UNL     1      -1.111   3.079  -7.256  0.00  0.00    +0.173 C 
BRANCH  19  20
ATOM     20  N   UNL     1      -1.915   4.139  -7.869  0.00  0.00    -0.222 N 
ATOM     21  C   UNL     1      -3.253   4.100  -7.999  0.00  0.00    +0.255 C 
ATOM     22  O   UNL     1      -3.975   3.196  -7.632  0.00  0.00    -0.270 OA
ATOM     23  C   UNL     1      -3.699   5.345  -8.661  0.00  0.00    +0.049 A 
ATOM     24  C   UNL     1      -4.931   5.850  -9.044  0.00  0.00    +0.014 A 
ATOM     25  C   UNL     1      -5.003   7.086  -9.667  0.00  0.00    +0.001 A 
ATOM     26  C   UNL     1      -3.856   7.817  -9.908  0.00  0.00    +0.001 A 
ATOM     27  C   UNL     1      -2.616   7.325  -9.530  0.00  0.00    +0.014 A 
ATOM     28  C   UNL     1      -2.528   6.091  -8.906  0.00  0.00    +0.049 A 
ATOM     29  C   UNL     1      -1.412   5.277  -8.382  0.00  0.00    +0.255 C 
ATOM     30  O   UNL     1      -0.237   5.583  -8.408  0.00  0.00    -0.270 OA
ENDBRANCH  19  20
BRANCH  19  31
ATOM     31  C   UNL     1      -1.311   1.774  -8.030  0.00  0.00    +0.013 C 
ATOM     32  C   UNL     1      -0.856   1.966  -9.479  0.00  0.00    +0.009 C 
ATOM     33  C   UNL     1      -0.486   0.663  -7.379  0.00  0.00    +0.009 C 
ENDBRANCH  19  31
ENDBRANCH   2  19
TORSDOF 6
