REMARK  Name = ZINC13635887
REMARK  4 active torsions:
REMARK  status: ('A' for Active; 'I' for Inactive)
REMARK    1  A    between atoms: C_1  and  C_2
REMARK    2  A    between atoms: C_9  and  C_11
REMARK    3  A    between atoms: C_11  and  S_12
REMARK    4  A    between atoms: S_12  and  C_13
REMARK                            x       y       z     vdW  Elec       q    Type
REMARK                         _______ _______ _______ _____ _____    ______ ____
ROOT
ATOM      1  C   UNL     1      -2.241   2.035   3.705  0.00  0.00    +0.066 C 
ATOM      2  C   UNL     1      -2.943   1.738   2.405  0.00  0.00    +0.054 A 
ATOM      3  C   UNL     1      -2.225   1.280   1.293  0.00  0.00    +0.060 A 
ATOM      4  C   UNL     1      -2.913   1.011   0.104  0.00  0.00    +0.057 A 
ATOM      5  N   UNL     1      -4.221   1.204   0.075  0.00  0.00    -0.218 NA
ATOM      6  C   UNL     1      -4.867   1.640   1.147  0.00  0.00    +0.222 A 
ATOM      7  N   UNL     1      -4.249   1.903   2.290  0.00  0.00    -0.219 NA
ATOM      8  N   UNL     1      -6.237   1.829   1.070  0.00  0.00    -0.254 N 
ATOM      9  C   UNL     1      -6.918   2.272   2.146  0.00  0.00    +0.230 C 
ATOM     10  O   UNL     1      -6.331   2.504   3.181  0.00  0.00    -0.274 OA
ATOM     11  C   UNL     1      -2.202   0.513  -1.121  0.00  0.00    +0.057 C 
ATOM     12  C   UNL     1      -0.718   0.871  -1.082  0.00  0.00    +0.014 C 
ATOM     13  C   UNL     1      -0.101   0.352   0.224  0.00  0.00    +0.080 C 
ATOM     14  C   UNL     1      -0.768   1.089   1.368  0.00  0.00    +0.167 C 
ATOM     15  O   UNL     1      -0.125   1.505   2.308  0.00  0.00    -0.292 OA
ATOM     16  H   UNL     1      -6.706   1.643   0.242  0.00  0.00    +0.158 HD
ENDROOT
BRANCH   9  17
ATOM     17  C   UNL     1      -8.408   2.477   2.062  0.00  0.00    +0.172 C 
BRANCH  17  18
ATOM     18  S   UNL     1      -9.027   3.073   3.659  0.00  0.00    -0.088 S 
BRANCH  18  19
ATOM     19  C   UNL     1     -10.760   3.262   3.402  0.00  0.00    +0.160 A 
ATOM     20  N   UNL     1     -11.474   3.032   2.316  0.00  0.00    -0.133 NA
ATOM     21  N   UNL     1     -12.832   3.248   2.332  0.00  0.00    -0.125 NA
ATOM     22  C   UNL     1     -13.415   3.682   3.432  0.00  0.00    +0.180 A 
ATOM     23  S   UNL     1     -12.021   3.807   4.543  0.00  0.00    -0.025 S 
ATOM     24  N   UNL     1     -14.756   3.963   3.667  0.00  0.00    -0.336 N 
ATOM     25  H   UNL     1     -15.408   3.843   2.958  0.00  0.00    +0.144 HD
ATOM     26  H   UNL     1     -15.040   4.280   4.538  0.00  0.00    +0.144 HD
ENDBRANCH  18  19
ENDBRANCH  17  18
ENDBRANCH   9  17
TORSDOF 3
