REMARK  Name = ZINC30265836
REMARK  8 active torsions:
REMARK  status: ('A' for Active; 'I' for Inactive)
REMARK    1  A    between atoms: C_1  and  C_2
REMARK    2  A    between atoms: C_2  and  C_4
REMARK    3  A    between atoms: C_2  and  N_18
REMARK    4  A    between atoms: N_6  and  C_7
REMARK    5  A    between atoms: C_8  and  C_15
REMARK    6  A    between atoms: C_24  and  C_26
REMARK    7  A    between atoms: C_31  and  O_32
REMARK    8  A    between atoms: O_32  and  C_33
REMARK                            x       y       z     vdW  Elec       q    Type
REMARK                         _______ _______ _______ _____ _____    ______ ____
ROOT
ATOM      1  C   UNL     1      -6.800  -1.877   2.943  0.00  0.00    -0.004 C 
ATOM      2  C   UNL     1      -6.973  -2.624   1.619  0.00  0.00    +0.017 C 
ENDROOT
BRANCH   2   3
ATOM      3  N   UNL     1      -5.946  -2.177   0.668  0.00  0.00    +0.389 N 
ATOM      4  C   UNL     1      -5.888  -0.711   0.607  0.00  0.00    -0.058 C 
ATOM      5  C   UNL     1      -4.941  -0.287  -0.520  0.00  0.00    +0.089 C 
ATOM      6  N   UNL     1      -3.645  -0.953  -0.317  0.00  0.00    -0.301 N 
ATOM      7  C   UNL     1      -3.636  -2.410  -0.117  0.00  0.00    +0.089 C 
ATOM      8  C   UNL     1      -4.635  -2.749   1.001  0.00  0.00    -0.058 C 
ATOM      9  C   UNL     1      -2.497  -0.247  -0.320  0.00  0.00    +0.250 C 
ATOM     10  O   UNL     1      -2.528   0.965  -0.415  0.00  0.00    -0.270 OA
ATOM     11  H   UNL     1      -6.227  -2.543  -0.331  0.00  0.00    -0.081 HD
BRANCH   9  12
ATOM     12  C   UNL     1      -1.202  -0.945  -0.207  0.00  0.00    +0.079 A 
ATOM     13  C   UNL     1      -1.021  -2.192  -0.812  0.00  0.00    +0.017 A 
ATOM     14  C   UNL     1       0.191  -2.838  -0.704  0.00  0.00    +0.001 A 
ATOM     15  C   UNL     1       1.232  -2.258   0.002  0.00  0.00    +0.004 A 
ATOM     16  C   UNL     1       1.069  -1.024   0.600  0.00  0.00    +0.046 A 
ATOM     17  C   UNL     1      -0.146  -0.362   0.506  0.00  0.00    +0.139 A 
BRANCH  17  18
ATOM     18  O   UNL     1      -0.310   0.848   1.097  0.00  0.00    -0.433 OA
BRANCH  18  19
ATOM     19  C   UNL     1       0.810   1.380   1.807  0.00  0.00    +0.541 C 
ATOM     20  F   UNL     1       1.169   0.504   2.837  0.00  0.00    -0.166 F 
ATOM     21  F   UNL     1       1.889   1.534   0.929  0.00  0.00    -0.166 F 
ENDBRANCH  18  19
ENDBRANCH  17  18
ENDBRANCH   9  12
ENDBRANCH   2   3
BRANCH   2  22
ATOM     22  C   UNL     1      -8.340  -2.337   1.055  0.00  0.00    +0.204 C 
ATOM     23  O   UNL     1      -8.455  -1.638   0.071  0.00  0.00    -0.277 OA
ATOM     24  N   UNL     1      -9.435  -2.858   1.643  0.00  0.00    -0.281 N 
ATOM     25  H   UNL     1      -9.330  -3.493   2.536  0.00  0.00    +0.155 HD
BRANCH  24  26
ATOM     26  C   UNL     1     -10.693  -2.595   1.124  0.00  0.00    +0.084 A 
ATOM     27  C   UNL     1     -11.922  -3.038   1.580  0.00  0.00    +0.068 A 
ATOM     28  C   UNL     1     -13.113  -2.608   0.847  0.00  0.00    -0.023 A 
ATOM     29  C   UNL     1     -12.874  -1.819  -0.216  0.00  0.00    -0.004 A 
ATOM     30  S   UNL     1     -11.108  -1.636  -0.256  0.00  0.00    -0.077 S 
ATOM     31  C   UNL     1     -14.143  -1.421  -0.919  0.00  0.00    +0.043 C 
ATOM     32  C   UNL     1     -15.263  -1.715   0.103  0.00  0.00    +0.010 C 
ATOM     33  C   UNL     1     -14.622  -2.825   0.961  0.00  0.00    +0.037 C 
BRANCH  27  34
ATOM     34  C   UNL     1     -12.028  -3.906   2.757  0.00  0.00    +0.244 C 
ATOM     35  O   UNL     1     -12.150  -3.416   3.865  0.00  0.00    -0.270 OA
ATOM     36  N   UNL     1     -11.990  -5.245   2.614  0.00  0.00    -0.325 N 
ATOM     37  H   UNL     1     -12.069  -5.896   3.497  0.00  0.00    +0.145 HD
ATOM     38  H   UNL     1     -11.880  -5.688   1.613  0.00  0.00    +0.145 HD
ENDBRANCH  27  34
ENDBRANCH  24  26
ENDBRANCH   2  22
TORSDOF 7
