REMARK  Name = ZINC39687191
REMARK  6 active torsions:
REMARK  status: ('A' for Active; 'I' for Inactive)
REMARK    1  A    between atoms: C_1  and  C_2
REMARK    2  A    between atoms: C_2  and  C_4
REMARK    3  A    between atoms: C_2  and  N_12
REMARK    4  A    between atoms: C_4  and  C_5
REMARK    5  A    between atoms: C_13  and  C_15
REMARK    6  A    between atoms: C_26  and  C_28
REMARK                            x       y       z     vdW  Elec       q    Type
REMARK                         _______ _______ _______ _____ _____    ______ ____
ROOT
ATOM      1  C   UNL     1       0.709  -1.089  -3.599  0.00  0.00    +0.100 C 
ATOM      2  C   UNL     1       1.732  -0.038  -4.085  0.00  0.00    +0.121 C 
ATOM      3  N   UNL     1       1.653  -0.095  -5.564  0.00  0.00    -0.295 N 
ATOM      4  C   UNL     1       0.208  -0.265  -5.849  0.00  0.00    +0.115 C 
ATOM      5  C   UNL     1      -0.290  -1.234  -4.759  0.00  0.00    -0.004 C 
ATOM      6  C   UNL     1      -1.691  -0.839  -4.303  0.00  0.00    -0.010 C 
ATOM      7  C   UNL     1      -2.677  -1.048  -5.456  0.00  0.00    -0.082 C 
ATOM      8  N   UNL     1      -2.655  -2.455  -5.873  0.00  0.00    +0.379 N 
ATOM      9  C   UNL     1      -1.328  -2.801  -6.397  0.00  0.00    -0.082 C 
ATOM     10  C   UNL     1      -0.286  -2.667  -5.283  0.00  0.00    -0.010 C 
ATOM     11  C   UNL     1       2.666  -0.012  -6.449  0.00  0.00    +0.265 C 
ATOM     12  O   UNL     1       2.431   0.011  -7.641  0.00  0.00    -0.268 OA
ATOM     13  H   UNL     1      -2.865  -3.042  -5.080  0.00  0.00    -0.086 HD
ATOM     14  H   UNL     1      -3.348  -2.603  -6.591  0.00  0.00    -0.086 HD
ENDROOT
BRANCH  11  15
ATOM     15  C   UNL     1       4.067   0.050  -5.968  0.00  0.00    +0.126 A 
ATOM     16  C   UNL     1       5.101   0.252  -6.895  0.00  0.00    +0.033 A 
ATOM     17  C   UNL     1       6.395   0.311  -6.465  0.00  0.00    +0.012 A 
ATOM     18  C   UNL     1       6.647   0.167  -5.088  0.00  0.00    +0.000 A 
ATOM     19  C   UNL     1       7.954   0.219  -4.576  0.00  0.00    +0.010 A 
ATOM     20  C   UNL     1       8.160   0.075  -3.238  0.00  0.00    +0.001 A 
ATOM     21  C   UNL     1       7.090  -0.123  -2.366  0.00  0.00    +0.002 A 
ATOM     22  C   UNL     1       5.811  -0.178  -2.825  0.00  0.00    +0.028 A 
ATOM     23  C   UNL     1       5.556  -0.034  -4.203  0.00  0.00    +0.072 A 
ATOM     24  N   UNL     1       4.312  -0.079  -4.679  0.00  0.00    -0.242 NA
ENDBRANCH  11  15
BRANCH   1  26
ATOM     25  N   UNL     1      -0.393  -1.482  -1.419  0.00  0.00    -0.312 N 
ATOM     26  C   UNL     1       0.005  -0.601  -2.358  0.00  0.00    +0.218 C 
ATOM     27  O   UNL     1      -0.204   0.584  -2.206  0.00  0.00    -0.275 OA
ATOM     28  H   UNL     1      -0.226  -2.429  -1.540  0.00  0.00    +0.149 HD
BRANCH  25  30
ATOM     29  C   UNL     1      -0.039  -0.586   0.830  0.00  0.00    +0.028 C 
ATOM     30  C   UNL     1      -1.077  -1.007  -0.213  0.00  0.00    +0.074 C 
BRANCH  30  31
ATOM     31  C   UNL     1      -1.945  -2.131   0.356  0.00  0.00    +0.060 C 
BRANCH  31  32
ATOM     32  C   UNL     1      -3.043  -2.462  -0.621  0.00  0.00    -0.010 A 
ATOM     33  C   UNL     1      -4.287  -1.874  -0.489  0.00  0.00    +0.006 A 
ATOM     34  C   UNL     1      -5.294  -2.177  -1.385  0.00  0.00    +0.000 A 
ATOM     35  C   UNL     1      -5.059  -3.069  -2.416  0.00  0.00    +0.003 A 
ATOM     36  C   UNL     1      -3.816  -3.657  -2.551  0.00  0.00    +0.038 A 
ATOM     37  C   UNL     1      -2.805  -3.350  -1.656  0.00  0.00    +0.127 A 
ATOM     38  F   UNL     1      -1.588  -3.921  -1.790  0.00  0.00    -0.205 F 
ENDBRANCH  31  32
ENDBRANCH  30  31
ENDBRANCH  25  30
ENDBRANCH   1  26
TORSDOF 5
