REMARK  Name = ZINC66881590
REMARK  9 active torsions:
REMARK  status: ('A' for Active; 'I' for Inactive)
REMARK    1  A    between atoms: C_1  and  C_2
REMARK    2  A    between atoms: C_2  and  C_4
REMARK    3  A    between atoms: C_2  and  O_13
REMARK    4  A    between atoms: O_13  and  C_14
REMARK    5  A    between atoms: C_14  and  C_16
REMARK    6  A    between atoms: C_17  and  C_18
REMARK    7  A    between atoms: N_23  and  C_29
REMARK    8  A    between atoms: C_29  and  C_30
REMARK    9  A    between atoms: C_29  and  C_31
REMARK                            x       y       z     vdW  Elec       q    Type
REMARK                         _______ _______ _______ _____ _____    ______ ____
ROOT
ATOM      1  C   UNL     1       0.472  -1.339  -3.425  0.00  0.00    +0.092 C 
ATOM      2  C   UNL     1      -0.256  -1.339  -4.567  0.00  0.00    +0.020 C 
ENDROOT
BRANCH   2   3
ATOM      3  C   UNL     1       0.375  -1.705  -5.837  0.00  0.00    +0.040 A 
ATOM      4  C   UNL     1      -0.385  -1.822  -6.997  0.00  0.00    +0.026 A 
ATOM      5  C   UNL     1       0.256  -2.175  -8.196  0.00  0.00    +0.037 A 
ATOM      6  C   UNL     1      -0.222  -2.381  -9.562  0.00  0.00    +0.144 A 
ATOM      7  N   UNL     1       0.811  -2.700 -10.289  0.00  0.00    -0.177 NA
ATOM      8  N   UNL     1       1.960  -2.722  -9.494  0.00  0.00    -0.245 N 
ATOM      9  C   UNL     1       1.637  -2.405  -8.222  0.00  0.00    +0.139 A 
ATOM     10  N   UNL     1       2.386  -2.290  -7.082  0.00  0.00    -0.307 N 
ATOM     11  H   UNL     1       3.341  -2.453  -7.121  0.00  0.00    +0.170 HD
ATOM     12  C   UNL     1       1.819  -1.950  -5.910  0.00  0.00    +0.257 A 
ATOM     13  O   UNL     1       2.505  -1.849  -4.908  0.00  0.00    -0.267 OA
BRANCH   8  14
ATOM     14  C   UNL     1       3.309  -3.040  -9.969  0.00  0.00    +0.103 C 
ATOM     15  C   UNL     1       3.325  -4.455 -10.551  0.00  0.00    +0.032 C 
ATOM     16  C   UNL     1       3.718  -2.039 -11.051  0.00  0.00    +0.032 C 
ENDBRANCH   8  14
ENDBRANCH   2   3
BRANCH   1  17
ATOM     17  C   UNL     1      -0.115  -0.909  -2.212  0.00  0.00    +0.333 C 
ATOM     18  O   UNL     1      -1.274  -0.538  -2.195  0.00  0.00    -0.246 OA
BRANCH  17  19
ATOM     19  O   UNL     1       0.610  -0.909  -1.074  0.00  0.00    -0.454 OA
BRANCH  19  21
ATOM     20  C   UNL     1       0.147   1.048   0.266  0.00  0.00    +0.057 C 
ATOM     21  C   UNL     1      -0.047  -0.462   0.114  0.00  0.00    +0.204 C 
BRANCH  21  22
ATOM     22  C   UNL     1       0.542  -1.166   1.309  0.00  0.00    -0.004 A 
ATOM     23  C   UNL     1       1.906  -1.377   1.383  0.00  0.00    +0.011 A 
ATOM     24  C   UNL     1       2.451  -2.022   2.477  0.00  0.00    +0.050 A 
ATOM     25  C   UNL     1       1.630  -2.460   3.504  0.00  0.00    +0.166 A 
ATOM     26  C   UNL     1       0.255  -2.248   3.429  0.00  0.00    +0.167 A 
ATOM     27  C   UNL     1      -0.283  -1.595   2.332  0.00  0.00    +0.056 A 
ATOM     28  O   UNL     1      -0.327  -2.765   4.550  0.00  0.00    -0.453 OA
ATOM     29  C   UNL     1       0.652  -3.656   5.116  0.00  0.00    +0.466 C 
ATOM     30  O   UNL     1       1.909  -3.111   4.671  0.00  0.00    -0.453 OA
ENDBRANCH  21  22
ENDBRANCH  19  21
ENDBRANCH  17  19
ENDBRANCH   1  17
TORSDOF 6
