REMARK  Name = ZINC09358030
REMARK  10 active torsions:
REMARK  status: ('A' for Active; 'I' for Inactive)
REMARK    1  A    between atoms: C_1  and  C_2
REMARK    2  A    between atoms: C_2  and  N_3
REMARK    3  A    between atoms: C_7  and  C_30
REMARK    4  A    between atoms: C_8  and  C_29
REMARK    5  A    between atoms: C_12  and  S_13
REMARK    6  A    between atoms: S_13  and  C_14
REMARK    7  A    between atoms: C_14  and  C_16
REMARK    8  A    between atoms: C_14  and  C_17
REMARK    9  A    between atoms: N_19  and  C_20
REMARK   10  A    between atoms: C_23  and  N_26
REMARK                            x       y       z     vdW  Elec       q    Type
REMARK                         _______ _______ _______ _____ _____    ______ ____
ROOT
ATOM      1  S   UNL     1      -1.872  -3.440   0.000  0.00  0.00    -0.075 S 
ENDROOT
BRANCH   1  11
ATOM      2  N   UNL     1       0.703  -2.598  -0.009  0.00  0.00    -0.288 N 
ATOM      3  C   UNL     1       1.696  -1.690  -0.004  0.00  0.00    +0.263 A 
ATOM      4  O   UNL     1       2.861  -2.050  -0.018  0.00  0.00    -0.267 OA
ATOM      5  C   UNL     1       1.368  -0.298   0.015  0.00  0.00    +0.075 A 
ATOM      6  C   UNL     1       2.252   0.855   0.022  0.00  0.00    -0.026 A 
ATOM      7  C   UNL     1       1.721   2.087   0.042  0.00  0.00    -0.008 A 
ATOM      8  S   UNL     1      -0.035   1.781   0.052  0.00  0.00    -0.073 S 
ATOM      9  C   UNL     1      -0.006   0.007   0.030  0.00  0.00    +0.117 A 
ATOM     10  N   UNL     1      -0.938  -0.939   0.025  0.00  0.00    -0.216 NA
ATOM     11  C   UNL     1      -0.607  -2.214   0.006  0.00  0.00    +0.173 A 
ATOM     12  C   UNL     1       2.438   3.412   0.052  0.00  0.00    +0.052 C 
ATOM     13  C   UNL     1       3.747   0.669   0.008  0.00  0.00    +0.045 C 
BRANCH   2  15
ATOM     14  C   UNL     1       1.137  -4.503  -1.479  0.00  0.00    +0.027 C 
ATOM     15  C   UNL     1       1.033  -4.025  -0.029  0.00  0.00    +0.124 C 
ENDBRANCH   2  15
ENDBRANCH   1  11
BRANCH   1  16
ATOM     16  C   UNL     1      -3.338  -2.379   0.025  0.00  0.00    +0.137 C 
ATOM     17  C   UNL     1      -3.384  -1.603   1.342  0.00  0.00    +0.029 C 
BRANCH  16  18
ATOM     18  C   UNL     1      -4.576  -3.229  -0.101  0.00  0.00    +0.230 C 
ATOM     19  O   UNL     1      -4.552  -4.390   0.249  0.00  0.00    -0.274 OA
ATOM     20  N   UNL     1      -5.710  -2.700  -0.602  0.00  0.00    -0.285 N 
ATOM     21  H   UNL     1      -5.749  -1.755  -0.819  0.00  0.00    +0.155 HD
BRANCH  20  22
ATOM     22  C   UNL     1      -6.830  -3.512  -0.809  0.00  0.00    +0.034 A 
ATOM     23  C   UNL     1      -7.672  -3.275  -1.887  0.00  0.00    +0.025 A 
ATOM     24  C   UNL     1      -8.774  -4.082  -2.092  0.00  0.00    +0.034 A 
ATOM     25  C   UNL     1      -9.045  -5.119  -1.218  0.00  0.00    +0.126 A 
ATOM     26  C   UNL     1      -8.212  -5.354  -0.140  0.00  0.00    +0.034 A 
ATOM     27  C   UNL     1      -7.105  -4.554   0.067  0.00  0.00    +0.025 A 
BRANCH  25  28
ATOM     28  N   UNL     1     -10.230  -5.978  -1.437  0.00  0.00    +0.056 N 
ATOM     29  O   UNL     1     -10.470  -6.892  -0.668  0.00  0.00    -0.126 OA
ATOM     30  O   UNL     1     -10.965  -5.772  -2.385  0.00  0.00    -0.126 OA
ENDBRANCH  25  28
ENDBRANCH  20  22
ENDBRANCH  16  18
ENDBRANCH   1  16
TORSDOF 6
