REMARK  Name = ZINC12754395
REMARK  10 active torsions:
REMARK  status: ('A' for Active; 'I' for Inactive)
REMARK    1  A    between atoms: C_1  and  C_2
REMARK    2  A    between atoms: C_7  and  O_8
REMARK    3  A    between atoms: O_8  and  C_9
REMARK    4  A    between atoms: C_9  and  C_10
REMARK    5  A    between atoms: C_10  and  C_11
REMARK    6  A    between atoms: C_11  and  C_12
REMARK    7  A    between atoms: N_14  and  N_15
REMARK    8  A    between atoms: C_16  and  C_18
REMARK    9  A    between atoms: C_22  and  C_27
REMARK   10  A    between atoms: C_27  and  C_28
REMARK                            x       y       z     vdW  Elec       q    Type
REMARK                         _______ _______ _______ _____ _____    ______ ____
ROOT
ATOM      1  N   UNL     1       3.725  -1.686   0.300  0.00  0.00    -0.233 N 
ATOM      2  C   UNL     1       3.082  -0.513   0.461  0.00  0.00    +0.250 C 
ATOM      3  O   UNL     1       2.889  -0.076   1.576  0.00  0.00    -0.272 OA
ATOM      4  H   UNL     1       3.879  -2.036  -0.592  0.00  0.00    +0.173 HD
ENDROOT
BRANCH   2   5
ATOM      5  C   UNL     1       2.602   0.256  -0.743  0.00  0.00    +0.170 C 
ATOM      6  C   UNL     1       1.292  -0.360  -1.233  0.00  0.00    +0.101 C 
ATOM      7  S   UNL     1       0.002  -0.004   0.002  0.00  0.00    -0.145 S 
ATOM      8  C   UNL     1      -0.023   1.815   0.012  0.00  0.00    +0.136 C 
ATOM      9  C   UNL     1       1.392   2.320   0.001  0.00  0.00    +0.227 C 
ATOM     10  O   UNL     1       1.569   3.459   0.380  0.00  0.00    -0.275 OA
ATOM     11  N   UNL     1       2.458   1.647  -0.380  0.00  0.00    -0.302 N 
ATOM     12  H   UNL     1       3.276   2.168  -0.423  0.00  0.00    +0.150 HD
BRANCH   8  13
ATOM     13  C   UNL     1      -0.734   2.311   1.272  0.00  0.00    +0.061 C 
BRANCH  13  14
ATOM     14  C   UNL     1      -2.182   1.894   1.229  0.00  0.00    -0.011 A 
ATOM     15  C   UNL     1      -2.605   0.788   1.943  0.00  0.00    +0.006 A 
ATOM     16  C   UNL     1      -3.932   0.406   1.903  0.00  0.00    +0.000 A 
ATOM     17  C   UNL     1      -4.839   1.129   1.150  0.00  0.00    +0.003 A 
ATOM     18  C   UNL     1      -4.419   2.235   0.436  0.00  0.00    +0.038 A 
ATOM     19  C   UNL     1      -3.090   2.621   0.478  0.00  0.00    +0.127 A 
ATOM     20  F   UNL     1      -2.679   3.705  -0.215  0.00  0.00    -0.205 F 
ENDBRANCH  13  14
ENDBRANCH   8  13
ENDBRANCH   2   5
BRANCH   1  23
ATOM     21  C   UNL     1       4.813  -3.575   1.257  0.00  0.00    +0.229 C 
ATOM     22  O   UNL     1       5.006  -4.012   0.142  0.00  0.00    -0.274 OA
ATOM     23  N   UNL     1       4.170  -2.401   1.419  0.00  0.00    -0.234 N 
ATOM     24  H   UNL     1       4.016  -2.051   2.311  0.00  0.00    +0.173 HD
BRANCH  21  25
ATOM     25  C   UNL     1       5.293  -4.343   2.462  0.00  0.00    +0.100 C 
BRANCH  25  26
ATOM     26  C   UNL     1       5.985  -5.629   2.003  0.00  0.00    +0.050 C 
BRANCH  26  27
ATOM     27  C   UNL     1       6.471  -6.409   3.226  0.00  0.00    +0.229 C 
BRANCH  27  28
ATOM     28  O   UNL     1       7.117  -7.610   2.798  0.00  0.00    -0.492 OA
BRANCH  28  35
ATOM     29  C   UNL     1       8.398  -9.989   1.974  0.00  0.00    +0.047 C 
ATOM     30  C   UNL     1       8.251  -9.606   3.424  0.00  0.00    -0.007 A 
ATOM     31  C   UNL     1       8.753 -10.432   4.411  0.00  0.00    +0.027 A 
ATOM     32  C   UNL     1       8.619 -10.081   5.742  0.00  0.00    +0.041 A 
ATOM     33  C   UNL     1       7.981  -8.902   6.088  0.00  0.00    +0.023 A 
ATOM     34  C   UNL     1       7.482  -8.071   5.104  0.00  0.00    +0.047 A 
ATOM     35  C   UNL     1       7.612  -8.424   3.768  0.00  0.00    +0.123 A 
ATOM     36 CL   UNL     1       9.251 -11.120   6.981  0.00  0.00    -0.084 Cl
ENDBRANCH  28  35
ENDBRANCH  27  28
ENDBRANCH  26  27
ENDBRANCH  25  26
ENDBRANCH  21  25
ENDBRANCH   1  23
TORSDOF 9
