REMARK  Name = ZINC36151403
REMARK  7 active torsions:
REMARK  status: ('A' for Active; 'I' for Inactive)
REMARK    1  A    between atoms: C_1  and  C_2
REMARK    2  A    between atoms: C_2  and  C_3
REMARK    3  A    between atoms: C_2  and  C_4
REMARK    4  A    between atoms: C_2  and  C_5
REMARK    5  A    between atoms: C_12  and  C_15
REMARK    6  A    between atoms: C_18  and  O_21
REMARK    7  A    between atoms: O_21  and  C_22
REMARK                            x       y       z     vdW  Elec       q    Type
REMARK                         _______ _______ _______ _____ _____    ______ ____
ROOT
ATOM      1  C   UNL     1       0.503  -0.248  -1.619  0.00  0.00    +0.103 C 
ATOM      2  C   UNL     1       0.424  -1.781  -1.543  0.00  0.00    +0.101 C 
ATOM      3  S   UNL     1       1.183  -2.432  -3.072  0.00  0.00    -0.083 S 
ATOM      4  C   UNL     1       2.573  -1.350  -3.231  0.00  0.00    +0.209 A 
ATOM      5  N   UNL     1       3.594  -1.438  -4.031  0.00  0.00    -0.121 NA
ATOM      6  N   UNL     1       4.380  -0.434  -3.838  0.00  0.00    -0.127 NA
ATOM      7  C   UNL     1       3.895   0.346  -2.897  0.00  0.00    +0.182 A 
ATOM      8  N   UNL     1       2.721  -0.222  -2.468  0.00  0.00    -0.221 N 
ATOM      9  N   UNL     1       1.885   0.211  -1.491  0.00  0.00    -0.277 N 
ATOM     10  H   UNL     1       1.926   1.215  -1.400  0.00  0.00    +0.167 HD
ENDROOT
BRANCH   7  11
ATOM     11  C   UNL     1       4.500   1.597  -2.394  0.00  0.00    +0.021 A 
ATOM     12  C   UNL     1       5.464   2.263  -3.154  0.00  0.00    +0.015 A 
ATOM     13  C   UNL     1       6.025   3.430  -2.682  0.00  0.00    +0.046 A 
ATOM     14  C   UNL     1       5.633   3.944  -1.453  0.00  0.00    +0.120 A 
ATOM     15  C   UNL     1       4.675   3.285  -0.694  0.00  0.00    +0.046 A 
ATOM     16  C   UNL     1       4.105   2.120  -1.162  0.00  0.00    +0.015 A 
BRANCH  14  17
ATOM     17  O   UNL     1       6.190   5.094  -0.991  0.00  0.00    -0.495 OA
ATOM     18  C   UNL     1       5.742   5.567   0.281  0.00  0.00    +0.277 C 
ENDBRANCH  14  17
ENDBRANCH   7  11
BRANCH   1  20
ATOM     19  C   UNL     1      -0.274   1.882  -0.569  0.00  0.00    +0.012 C 
ATOM     20  C   UNL     1      -0.334   0.355  -0.489  0.00  0.00    -0.017 C 
ATOM     21  C   UNL     1       0.223  -0.106   0.860  0.00  0.00    +0.012 C 
ATOM     22  C   UNL     1      -1.786  -0.107  -0.627  0.00  0.00    +0.012 C 
ENDBRANCH   1  20
TORSDOF 3
