REMARK  Name = ZINC13271201
REMARK  11 active torsions:
REMARK  status: ('A' for Active; 'I' for Inactive)
REMARK    1  A    between atoms: C_1  and  C_2
REMARK    2  A    between atoms: C_2  and  C_3
REMARK    3  A    between atoms: C_2  and  C_4
REMARK    4  A    between atoms: C_4  and  C_6
REMARK    5  A    between atoms: C_4  and  N_8
REMARK    6  A    between atoms: C_9  and  C_27
REMARK    7  A    between atoms: C_12  and  S_13
REMARK    8  A    between atoms: S_13  and  C_14
REMARK    9  A    between atoms: C_14  and  C_15
REMARK   10  A    between atoms: N_17  and  C_18
REMARK   11  A    between atoms: C_23  and  C_24
REMARK                            x       y       z     vdW  Elec       q    Type
REMARK                         _______ _______ _______ _____ _____    ______ ____
ROOT
ATOM      1  N   UNL     1       1.384   1.580   2.539  0.00  0.00    -0.287 N 
ATOM      2  C   UNL     1       2.544   0.838   2.538  0.00  0.00    +0.172 A 
ATOM      3  N   UNL     1       3.545   1.691   2.526  0.00  0.00    -0.128 NA
ATOM      4  N   UNL     1       3.096   2.894   2.527  0.00  0.00    -0.122 NA
ATOM      5  C   UNL     1       1.782   2.888   2.535  0.00  0.00    +0.193 A 
ENDROOT
BRANCH   2   6
ATOM      6  C   UNL     1       2.645  -0.630   2.546  0.00  0.00    +0.056 A 
ATOM      7  C   UNL     1       3.729  -1.424   2.270  0.00  0.00    +0.019 A 
ATOM      8  C   UNL     1       3.583  -2.791   2.343  0.00  0.00    +0.008 A 
ATOM      9  C   UNL     1       2.376  -3.311   2.684  0.00  0.00    +0.046 A 
ATOM     10  S   UNL     1       1.390  -1.842   2.925  0.00  0.00    -0.094 S 
ENDBRANCH   2   6
BRANCH   1  11
ATOM     11  C   UNL     1       0.009   1.073   2.548  0.00  0.00    +0.206 C 
BRANCH  11  13
ATOM     12  C   UNL     1      -0.007   1.069   0.050  0.00  0.00    +0.010 C 
ATOM     13  C   UNL     1      -0.727   1.571   1.303  0.00  0.00    +0.017 C 
ATOM     14  C   UNL     1      -2.162   1.042   1.313  0.00  0.00    +0.010 C 
ENDBRANCH  11  13
BRANCH  11  15
ATOM     15  C   UNL     1      -0.700   1.568   3.782  0.00  0.00    +0.379 C 
ATOM     16  O   UNL     1      -1.692   2.249   3.677  0.00  0.00    -0.244 OA
ATOM     17  O   UNL     1      -0.229   1.251   4.999  0.00  0.00    -0.244 OA
ENDBRANCH  11  15
ENDBRANCH   1  11
BRANCH   5  18
ATOM     18  S   UNL     1       0.730   4.301   2.538  0.00  0.00    -0.077 S 
BRANCH  18  19
ATOM     19  C   UNL     1       1.972   5.617   2.530  0.00  0.00    +0.173 C 
BRANCH  19  20
ATOM     20  C   UNL     1       1.283   6.958   2.532  0.00  0.00    +0.228 C 
ATOM     21  O   UNL     1       0.072   7.017   2.538  0.00  0.00    -0.275 OA
ATOM     22  N   UNL     1       2.013   8.091   2.526  0.00  0.00    -0.284 N 
ATOM     23  H   UNL     1       2.980   8.045   2.587  0.00  0.00    +0.155 HD
BRANCH  22  24
ATOM     24  C   UNL     1       1.379   9.328   2.433  0.00  0.00    +0.052 A 
ATOM     25  C   UNL     1       0.144   9.525   3.035  0.00  0.00    +0.044 A 
ATOM     26  C   UNL     1      -0.483  10.754   2.942  0.00  0.00    +0.043 A 
ATOM     27  C   UNL     1       0.114  11.796   2.249  0.00  0.00    +0.021 A 
ATOM     28  C   UNL     1       1.340  11.617   1.645  0.00  0.00    +0.022 A 
ATOM     29  C   UNL     1       1.988  10.382   1.735  0.00  0.00    +0.073 A 
ATOM     30 CL   UNL     1      -2.028  10.993   3.698  0.00  0.00    -0.083 Cl
BRANCH  29  31
ATOM     31  C   UNL     1       3.264  10.192   1.115  0.00  0.00    +0.101 C 
ATOM     32  N   UNL     1       4.277  10.041   0.622  0.00  0.00    -0.191 NA
ENDBRANCH  29  31
ENDBRANCH  22  24
ENDBRANCH  19  20
ENDBRANCH  18  19
ENDBRANCH   5  18
TORSDOF 9
