REMARK  Name = ZINC37397705
REMARK  10 active torsions:
REMARK  status: ('A' for Active; 'I' for Inactive)
REMARK    1  A    between atoms: C_2  and  C_3
REMARK    2  A    between atoms: C_3  and  N_4
REMARK    3  A    between atoms: C_5  and  C_26
REMARK    4  A    between atoms: C_8  and  S_9
REMARK    5  A    between atoms: S_9  and  C_10
REMARK    6  A    between atoms: C_10  and  C_11
REMARK    7  A    between atoms: C_14  and  C_17
REMARK    8  A    between atoms: N_19  and  C_20
REMARK    9  A    between atoms: C_20  and  C_21
REMARK   10  A    between atoms: C_29  and  N_32
REMARK                            x       y       z     vdW  Elec       q    Type
REMARK                         _______ _______ _______ _____ _____    ______ ____
ROOT
ATOM      1  S   UNL     1       1.060  -4.087  -0.679  0.00  0.00    -0.081 S 
ENDROOT
BRANCH   1   6
ATOM      2  N   UNL     1       1.840  -1.895   0.875  0.00  0.00    -0.298 N 
ATOM      3  C   UNL     1       1.843  -1.580   2.214  0.00  0.00    +0.165 A 
ATOM      4  N   UNL     1       1.352  -2.614   2.855  0.00  0.00    -0.128 NA
ATOM      5  N   UNL     1       1.046  -3.542   2.020  0.00  0.00    -0.122 NA
ATOM      6  C   UNL     1       1.317  -3.154   0.794  0.00  0.00    +0.192 A 
BRANCH   3   7
ATOM      7  C   UNL     1       2.312  -0.314   2.817  0.00  0.00    +0.019 A 
ATOM      8  C   UNL     1       2.927  -0.320   4.070  0.00  0.00    +0.014 A 
ATOM      9  C   UNL     1       3.363   0.864   4.627  0.00  0.00    +0.033 A 
ATOM     10  C   UNL     1       3.192   2.056   3.947  0.00  0.00    +0.126 A 
ATOM     11  C   UNL     1       2.583   2.070   2.704  0.00  0.00    +0.033 A 
ATOM     12  C   UNL     1       2.148   0.892   2.133  0.00  0.00    +0.014 A 
BRANCH  10  13
ATOM     13  N   UNL     1       3.662   3.324   4.551  0.00  0.00    +0.056 N 
ATOM     14  O   UNL     1       4.194   3.316   5.636  0.00  0.00    -0.126 OA
ATOM     15  O   UNL     1       3.514   4.367   3.958  0.00  0.00    -0.126 OA
ENDBRANCH  10  13
ENDBRANCH   3   7
BRANCH   2  16
ATOM     16  C   UNL     1       2.296  -1.054  -0.234  0.00  0.00    +0.152 C 
BRANCH  16  18
ATOM     17  C   UNL     1       1.146   0.969  -0.975  0.00  0.00    +0.005 C 
ATOM     18  C   UNL     1       1.117  -0.334  -0.836  0.00  0.00    -0.013 C 
ENDBRANCH  16  18
ENDBRANCH   2  16
ENDBRANCH   1   6
BRANCH   1  19
ATOM     19  C   UNL     1       0.348  -5.648  -0.090  0.00  0.00    +0.112 C 
BRANCH  19  20
ATOM     20  C   UNL     1       0.076  -6.551  -1.266  0.00  0.00    -0.037 A 
ATOM     21  C   UNL     1      -1.149  -6.495  -1.908  0.00  0.00    +0.005 A 
ATOM     22  C   UNL     1      -1.405  -7.318  -2.985  0.00  0.00    +0.013 A 
ATOM     23  C   UNL     1      -0.425  -8.209  -3.427  0.00  0.00    +0.037 A 
ATOM     24  C   UNL     1       0.809  -8.260  -2.776  0.00  0.00    +0.013 A 
ATOM     25  C   UNL     1       1.054  -7.427  -1.703  0.00  0.00    +0.005 A 
BRANCH  23  26
ATOM     26  C   UNL     1      -0.692  -9.094  -4.580  0.00  0.00    +0.244 C 
ATOM     27  O   UNL     1      -1.767  -9.048  -5.146  0.00  0.00    -0.270 OA
ATOM     28  N   UNL     1       0.256  -9.953  -5.005  0.00  0.00    -0.304 N 
ATOM     29  H   UNL     1       1.114  -9.990  -4.554  0.00  0.00    +0.149 HD
BRANCH  28  30
ATOM     30  C   UNL     1      -0.009 -10.830  -6.148  0.00  0.00    +0.179 C 
BRANCH  30  31
ATOM     31  C   UNL     1       1.203 -11.685  -6.417  0.00  0.00    +0.122 A 
ATOM     32  C   UNL     1       1.444 -12.897  -5.885  0.00  0.00    +0.046 A 
ATOM     33  C   UNL     1       2.684 -13.333  -6.406  0.00  0.00    +0.041 A 
ATOM     34  C   UNL     1       3.126 -12.362  -7.225  0.00  0.00    +0.195 A 
ATOM     35  O   UNL     1       2.222 -11.368  -7.232  0.00  0.00    -0.466 OA
ENDBRANCH  30  31
ENDBRANCH  28  30
ENDBRANCH  23  26
ENDBRANCH  19  20
ENDBRANCH   1  19
TORSDOF 10
