REMARK  Name = ZINC08930273
REMARK  12 active torsions:
REMARK  status: ('A' for Active; 'I' for Inactive)
REMARK    1  A    between atoms: C_1  and  C_2
REMARK    2  A    between atoms: C_2  and  C_3
REMARK    3  A    between atoms: C_2  and  C_4
REMARK    4  A    between atoms: C_2  and  N_5
REMARK    5  A    between atoms: C_6  and  C_8
REMARK    6  A    between atoms: C_8  and  N_9
REMARK    7  A    between atoms: C_12  and  C_16
REMARK    8  A    between atoms: C_12  and  C_24
REMARK    9  A    between atoms: C_19  and  O_22
REMARK   10  A    between atoms: O_22  and  C_23
REMARK   11  A    between atoms: C_27  and  O_30
REMARK   12  A    between atoms: O_30  and  C_31
REMARK                            x       y       z     vdW  Elec       q    Type
REMARK                         _______ _______ _______ _____ _____    ______ ____
ROOT
ATOM      1  N   UNL     1       0.948   1.847  -0.603  0.00  0.00    -0.215 N 
ATOM      2  C   UNL     1      -0.245   1.233  -0.726  0.00  0.00    +0.256 C 
ATOM      3  O   UNL     1      -0.479   0.200  -1.315  0.00  0.00    -0.272 OA
ATOM      4  C   UNL     1      -1.235   2.107   0.018  0.00  0.00    +0.164 C 
ATOM      5  N   UNL     1      -0.405   3.212   0.530  0.00  0.00    -0.278 N 
ATOM      6  C   UNL     1       0.852   2.974   0.113  0.00  0.00    +0.310 C 
ATOM      7  O   UNL     1       1.794   3.700   0.360  0.00  0.00    -0.252 OA
ATOM      8  H   UNL     1      -0.707   3.966   1.060  0.00  0.00    +0.152 HD
ENDROOT
BRANCH   4   9
ATOM      9  C   UNL     1      -2.294   2.627  -0.919  0.00  0.00    -0.011 A 
ATOM     10  C   UNL     1      -2.618   3.971  -0.918  0.00  0.00    +0.010 A 
ATOM     11  C   UNL     1      -3.584   4.450  -1.781  0.00  0.00    +0.046 A 
ATOM     12  C   UNL     1      -4.239   3.580  -2.640  0.00  0.00    +0.120 A 
ATOM     13  C   UNL     1      -3.916   2.231  -2.635  0.00  0.00    +0.046 A 
ATOM     14  C   UNL     1      -2.945   1.757  -1.775  0.00  0.00    +0.010 A 
BRANCH  12  15
ATOM     15  O   UNL     1      -5.194   4.048  -3.485  0.00  0.00    -0.495 OA
ATOM     16  C   UNL     1      -5.474   5.449  -3.436  0.00  0.00    +0.277 C 
ENDBRANCH  12  15
ENDBRANCH   4   9
BRANCH   4  17
ATOM     17  C   UNL     1      -1.861   1.346   1.159  0.00  0.00    -0.011 A 
ATOM     18  C   UNL     1      -2.429   0.106   0.931  0.00  0.00    +0.010 A 
ATOM     19  C   UNL     1      -2.999  -0.596   1.975  0.00  0.00    +0.046 A 
ATOM     20  C   UNL     1      -3.011  -0.051   3.251  0.00  0.00    +0.120 A 
ATOM     21  C   UNL     1      -2.445   1.196   3.476  0.00  0.00    +0.046 A 
ATOM     22  C   UNL     1      -1.871   1.891   2.429  0.00  0.00    +0.010 A 
BRANCH  20  23
ATOM     23  O   UNL     1      -3.576  -0.737   4.279  0.00  0.00    -0.495 OA
ATOM     24  C   UNL     1      -4.140  -2.014   3.974  0.00  0.00    +0.277 C 
ENDBRANCH  20  23
ENDBRANCH   4  17
BRANCH   1  25
ATOM     25  C   UNL     1       2.196   1.345  -1.182  0.00  0.00    +0.213 C 
BRANCH  25  27
ATOM     26  N   UNL     1       3.454   1.580  -3.299  0.00  0.00    -0.309 N 
ATOM     27  C   UNL     1       2.369   1.907  -2.569  0.00  0.00    +0.231 C 
ATOM     28  O   UNL     1       1.532   2.655  -3.029  0.00  0.00    -0.274 OA
ATOM     29  H   UNL     1       4.124   0.982  -2.931  0.00  0.00    +0.149 HD
BRANCH  26  31
ATOM     30  C   UNL     1       3.672   3.654  -4.575  0.00  0.00    +0.031 C 
ATOM     31  C   UNL     1       3.622   2.127  -4.647  0.00  0.00    +0.026 C 
ATOM     32  C   UNL     1       4.926   1.602  -5.252  0.00  0.00    +0.031 C 
ATOM     33  C   UNL     1       2.444   1.696  -5.523  0.00  0.00    +0.031 C 
ENDBRANCH  26  31
ENDBRANCH  25  27
ENDBRANCH   1  25
TORSDOF 7
