REMARK  Name = ZINC09015742
REMARK  8 active torsions:
REMARK  status: ('A' for Active; 'I' for Inactive)
REMARK    1  A    between atoms: C_3  and  N_29
REMARK    2  A    between atoms: C_6  and  C_7
REMARK    3  A    between atoms: C_10  and  C_12
REMARK    4  A    between atoms: C_12  and  C_27
REMARK    5  A    between atoms: C_13  and  N_14
REMARK    6  A    between atoms: N_14  and  C_15
REMARK    7  A    between atoms: C_18  and  S_21
REMARK    8  A    between atoms: S_21  and  N_24
REMARK                            x       y       z     vdW  Elec       q    Type
REMARK                         _______ _______ _______ _____ _____    ______ ____
ROOT
ATOM      1  N   UNL     1      -2.347   7.348   0.355  0.00  0.00    -0.319 N 
ATOM      2  H   UNL     1      -1.858   8.102   0.719  0.00  0.00    +0.152 HD
ENDROOT
BRANCH   1   3
ATOM      3  C   UNL     1      -3.703   7.468   0.073  0.00  0.00    +0.031 A 
ATOM      4  C   UNL     1      -4.334   8.704   0.195  0.00  0.00    +0.025 A 
ATOM      5  C   UNL     1      -5.679   8.820  -0.090  0.00  0.00    +0.031 A 
ATOM      6  C   UNL     1      -6.403   7.709  -0.486  0.00  0.00    +0.111 A 
ATOM      7  C   UNL     1      -5.781   6.478  -0.604  0.00  0.00    +0.031 A 
ATOM      8  C   UNL     1      -4.435   6.353  -0.326  0.00  0.00    +0.025 A 
BRANCH   6   9
ATOM      9  S   UNL     1      -8.122   7.862  -0.843  0.00  0.00    +0.080 S 
ATOM     10  O   UNL     1      -8.346   9.223  -1.185  0.00  0.00    -0.148 OA
ATOM     11  O   UNL     1      -8.452   6.793  -1.718  0.00  0.00    -0.148 OA
BRANCH   9  12
ATOM     12  N   UNL     1      -8.941   7.588   0.569  0.00  0.00    -0.228 N 
ATOM     13  C   UNL     1      -8.799   8.456   1.627  0.00  0.00    +0.186 C 
ATOM     14  N   UNL     1      -9.479   8.228   2.799  0.00  0.00    -0.370 N 
ATOM     15  H   UNL     1      -9.522   6.815   0.651  0.00  0.00    +0.191 HD
ATOM     16  H   UNL     1      -7.853  10.164   2.207  0.00  0.00    +0.159 HD
ATOM     17  H   UNL     1     -10.060   7.455   2.881  0.00  0.00    +0.159 HD
ATOM     18  H   UNL     1      -9.379   8.840   3.545  0.00  0.00    +0.159 HD
ATOM     19  N   UNL     1      -7.991   9.492   1.452  0.00  0.00    -0.370 N 
ATOM     20  H   UNL     1      -7.505   9.618   0.556  0.00  0.00    +0.159 HD
ENDBRANCH   9  12
ENDBRANCH   6   9
ENDBRANCH   1   3
BRANCH   1  22
ATOM     21  C   UNL     1      -0.317   6.106   0.305  0.00  0.00    +0.098 C 
ATOM     22  C   UNL     1      -1.720   6.197   0.125  0.00  0.00    +0.093 C 
BRANCH  21  26
ATOM     23  C   UNL     1       2.107   3.436  -0.087  0.00  0.00    +0.079 A 
ATOM     24  C   UNL     1       1.122   2.420  -0.514  0.00  0.00    +0.075 A 
ATOM     25  S   UNL     1      -0.350   3.342  -0.479  0.00  0.00    -0.074 S 
ATOM     26  C   UNL     1       0.343   4.895   0.063  0.00  0.00    +0.120 A 
ATOM     27  N   UNL     1       1.651   4.620   0.178  0.00  0.00    -0.238 NA
BRANCH  23  33
ATOM     28  C   UNL     1       4.002   1.826  -0.254  0.00  0.00    +0.012 A 
ATOM     29  C   UNL     1       5.345   1.537  -0.144  0.00  0.00    +0.033 A 
ATOM     30  C   UNL     1       6.237   2.517   0.260  0.00  0.00    +0.126 A 
ATOM     31  C   UNL     1       5.789   3.795   0.552  0.00  0.00    +0.033 A 
ATOM     32  C   UNL     1       4.450   4.101   0.442  0.00  0.00    +0.012 A 
ATOM     33  C   UNL     1       3.542   3.117   0.034  0.00  0.00    +0.001 A 
BRANCH  30  34
ATOM     34  N   UNL     1       7.678   2.197   0.381  0.00  0.00    +0.056 N 
ATOM     35  O   UNL     1       8.529   3.125   0.765  0.00  0.00    -0.126 OA
ATOM     36  O   UNL     1       8.108   0.983   0.104  0.00  0.00    -0.126 OA
ENDBRANCH  30  34
ENDBRANCH  23  33
ENDBRANCH  21  26
BRANCH  21  37
ATOM     37  C   UNL     1       0.426   7.253   0.734  0.00  0.00    +0.103 C 
ATOM     38  N   UNL     1       1.015   8.162   1.074  0.00  0.00    -0.191 NA
ENDBRANCH  21  37
ENDBRANCH   1  22
TORSDOF 8
