REMARK  Name = ZINC08618046
REMARK  9 active torsions:
REMARK  status: ('A' for Active; 'I' for Inactive)
REMARK    1  A    between atoms: C_1  and  C_2
REMARK    2  A    between atoms: C_3  and  N_27
REMARK    3  A    between atoms: C_4  and  N_8
REMARK    4  A    between atoms: N_5  and  C_7
REMARK    5  A    between atoms: N_8  and  N_9
REMARK    6  A    between atoms: N_9  and  S_10
REMARK    7  A    between atoms: S_10  and  C_13
REMARK    8  A    between atoms: C_15  and  C_23
REMARK    9  A    between atoms: C_17  and  C_19
REMARK                            x       y       z     vdW  Elec       q    Type
REMARK                         _______ _______ _______ _____ _____    ______ ____
ROOT
ATOM      1  S   UNL     1      -3.181  -0.840  -1.604  0.00  0.00    +0.074 S 
ATOM      2  O   UNL     1      -4.321   0.001  -1.719  0.00  0.00    -0.152 OA
ATOM      3  O   UNL     1      -2.329  -1.123  -2.705  0.00  0.00    -0.152 OA
ENDROOT
BRANCH   1   4
ATOM      4  C   UNL     1      -3.759  -2.392  -1.002  0.00  0.00    +0.108 A 
ATOM      5  C   UNL     1      -3.031  -3.542  -1.245  0.00  0.00    +0.041 A 
ATOM      6  C   UNL     1      -3.482  -4.759  -0.769  0.00  0.00    +0.057 A 
ATOM      7  C   UNL     1      -4.666  -4.828  -0.059  0.00  0.00    +0.024 A 
ATOM      8  C   UNL     1      -5.396  -3.679   0.180  0.00  0.00    +0.057 A 
ATOM      9  C   UNL     1      -4.943  -2.461  -0.292  0.00  0.00    +0.041 A 
BRANCH   8  10
ATOM     10  C   UNL     1      -6.687  -3.753   0.955  0.00  0.00    +0.417 C 
ATOM     11  F   UNL     1      -7.750  -3.965   0.070  0.00  0.00    -0.166 F 
ATOM     12  F   UNL     1      -6.622  -4.811   1.868  0.00  0.00    -0.166 F 
ATOM     13  F   UNL     1      -6.886  -2.553   1.645  0.00  0.00    -0.166 F 
ENDBRANCH   8  10
BRANCH   6  14
ATOM     14  C   UNL     1      -2.685  -6.011  -1.029  0.00  0.00    +0.417 C 
ATOM     15  F   UNL     1      -3.340  -7.108  -0.457  0.00  0.00    -0.166 F 
ATOM     16  F   UNL     1      -2.563  -6.209  -2.408  0.00  0.00    -0.166 F 
ATOM     17  F   UNL     1      -1.413  -5.881  -0.462  0.00  0.00    -0.166 F 
ENDBRANCH   6  14
ENDBRANCH   1   4
BRANCH   1  18
ATOM     18  N   UNL     1      -2.225  -0.182  -0.422  0.00  0.00    -0.109 NA
ATOM     19  H   UNL     1      -2.458   0.674  -0.031  0.00  0.00    +0.172 HD
BRANCH  18  20
ATOM     20  N   UNL     1      -1.109  -0.846   0.001  0.00  0.00    -0.244 N 
ATOM     21  H   UNL     1      -0.977  -1.700  -0.519  0.00  0.00    +0.169 HD
BRANCH  20  25
ATOM     22  C   UNL     1       2.162   2.586  -1.552  0.00  0.00    +0.070 C 
ATOM     23  C   UNL     1       1.498   1.496  -0.752  0.00  0.00    +0.092 A 
ATOM     24  C   UNL     1       0.262   0.908  -1.037  0.00  0.00    +0.189 A 
ATOM     25  C   UNL     1       0.017  -0.032  -0.082  0.00  0.00    +0.163 A 
ATOM     26  N   UNL     1       1.067  -0.029   0.771  0.00  0.00    -0.250 N 
ATOM     27  N   UNL     1       1.980   0.936   0.329  0.00  0.00    -0.173 NA
ATOM     28  C   UNL     1       1.218  -0.881   1.953  0.00  0.00    +0.174 C 
BRANCH  24  29
ATOM     29  N   UNL     1      -0.623   1.246  -2.175  0.00  0.00    +0.062 N 
ATOM     30  O   UNL     1      -1.469   2.113  -2.051  0.00  0.00    -0.126 OA
ATOM     31  O   UNL     1      -0.504   0.657  -3.234  0.00  0.00    -0.126 OA
ENDBRANCH  24  29
ENDBRANCH  20  25
ENDBRANCH  18  20
ENDBRANCH   1  18
TORSDOF 7
