REMARK  Name = ZINC38599349
REMARK  7 active torsions:
REMARK  status: ('A' for Active; 'I' for Inactive)
REMARK    1  A    between atoms: C_1  and  C_2
REMARK    2  A    between atoms: N_8  and  C_9
REMARK    3  A    between atoms: C_9  and  C_10
REMARK    4  A    between atoms: N_12  and  C_13
REMARK    5  A    between atoms: C_21  and  C_23
REMARK    6  A    between atoms: C_23  and  O_25
REMARK    7  A    between atoms: O_25  and  C_26
REMARK                            x       y       z     vdW  Elec       q    Type
REMARK                         _______ _______ _______ _____ _____    ______ ____
ROOT
ATOM      1  C   UNL     1       1.459  -0.258   6.664  0.00  0.00    +0.053 C 
ATOM      2  C   UNL     1       1.485  -0.587   8.008  0.00  0.00    +0.019 A 
ATOM      3  C   UNL     1       0.833  -0.038   9.139  0.00  0.00    +0.031 A 
ATOM      4  C   UNL     1       1.050  -0.575  10.366  0.00  0.00    +0.042 A 
ATOM      5  C   UNL     1       1.908  -1.664  10.548  0.00  0.00    +0.022 A 
ATOM      6  C   UNL     1       2.564  -2.239   9.512  0.00  0.00    +0.027 A 
ATOM      7  C   UNL     1       2.389  -1.735   8.197  0.00  0.00    +0.045 A 
ATOM      8  N   UNL     1       2.903  -2.110   7.043  0.00  0.00    -0.367 N 
ATOM      9  C   UNL     1       2.380  -1.244   5.982  0.00  0.00    +0.234 C 
ATOM     10 CL   UNL     1       0.244   0.109  11.743  0.00  0.00    -0.084 Cl
ATOM     11  H   UNL     1       3.525  -2.844   6.916  0.00  0.00    +0.161 HD
ENDROOT
BRANCH   1  14
ATOM     12  C   UNL     1       0.696   0.837   4.733  0.00  0.00    +0.200 C 
ATOM     13  O   UNL     1       1.315   0.052   4.048  0.00  0.00    -0.278 OA
ATOM     14  N   UNL     1       0.746   0.744   6.077  0.00  0.00    -0.288 N 
ATOM     15  H   UNL     1       0.275   1.391   6.625  0.00  0.00    +0.155 HD
BRANCH  12  16
ATOM     16  C   UNL     1      -0.131   1.917   4.083  0.00  0.00    +0.019 C 
BRANCH  16  23
ATOM     17  C   UNL     1      -0.156   4.246   2.515  0.00  0.00    -0.013 C 
ATOM     18  C   UNL     1      -0.727   2.926   1.992  0.00  0.00    -0.071 C 
ATOM     19  C   UNL     1      -0.547   2.859   0.474  0.00  0.00    -0.016 C 
ATOM     20  C   UNL     1      -1.119   1.537  -0.044  0.00  0.00    -0.003 C 
ATOM     21  C   UNL     1      -0.427   0.375   0.674  0.00  0.00    -0.019 C 
ATOM     22  C   UNL     1      -0.612   0.534   2.185  0.00  0.00    -0.078 C 
ATOM     23  N   UNL     1      -0.020   1.805   2.622  0.00  0.00    +0.387 N 
ATOM     24  H   UNL     1       0.953   1.830   2.357  0.00  0.00    -0.081 HD
ENDBRANCH  16  23
ENDBRANCH  12  16
ENDBRANCH   1  14
BRANCH   9  25
ATOM     25  C   UNL     1       3.512  -0.515   5.305  0.00  0.00    +0.335 C 
ATOM     26  O   UNL     1       4.387  -0.011   5.968  0.00  0.00    -0.248 OA
BRANCH  25  27
ATOM     27  O   UNL     1       3.549  -0.427   3.966  0.00  0.00    -0.466 OA
ATOM     28  C   UNL     1       4.651   0.279   3.393  0.00  0.00    +0.280 C 
ENDBRANCH  25  27
ENDBRANCH   9  25
TORSDOF 5
