REMARK  Name = ZINC21348098
REMARK  10 active torsions:
REMARK  status: ('A' for Active; 'I' for Inactive)
REMARK    1  A    between atoms: C_1  and  C_2
REMARK    2  A    between atoms: C_5  and  N_9
REMARK    3  A    between atoms: C_11  and  C_16
REMARK    4  A    between atoms: N_18  and  C_19
REMARK    5  A    between atoms: C_21  and  C_29
REMARK    6  A    between atoms: C_24  and  C_25
REMARK    7  A    between atoms: C_25  and  O_27
REMARK    8  A    between atoms: O_27  and  C_28
REMARK    9  A    between atoms: C_29  and  O_31
REMARK   10  A    between atoms: O_31  and  C_32
REMARK                            x       y       z     vdW  Elec       q    Type
REMARK                         _______ _______ _______ _____ _____    ______ ____
ROOT
ATOM      1  C   UNL     1      -0.059   4.208   0.102  0.00  0.00    +0.222 C 
ATOM      2  O   UNL     1      -1.085   3.590   0.287  0.00  0.00    -0.275 OA
ATOM      3  N   UNL     1       1.114   3.552  -0.002  0.00  0.00    -0.284 N 
ATOM      4  H   UNL     1       2.055   4.117  -0.081  0.00  0.00    +0.155 HD
ENDROOT
BRANCH   1   7
ATOM      5  N   UNL     1      -2.066   6.330  -1.227  0.00  0.00    -0.271 N 
ATOM      6  C   UNL     1      -1.536   6.243   0.139  0.00  0.00    +0.127 C 
ATOM      7  C   UNL     1      -0.094   5.711  -0.011  0.00  0.00    +0.102 C 
ATOM      8  C   UNL     1       0.262   6.166  -1.445  0.00  0.00    +0.110 C 
ATOM      9  C   UNL     1      -1.077   6.295  -2.137  0.00  0.00    +0.221 C 
ATOM     10  O   UNL     1      -1.235   6.358  -3.338  0.00  0.00    -0.275 OA
BRANCH   5  15
ATOM     11  C   UNL     1      -7.578   6.764  -2.501  0.00  0.00    +0.045 C 
ATOM     12  C   UNL     1      -6.114   6.649  -2.163  0.00  0.00    -0.032 A 
ATOM     13  C   UNL     1      -5.721   6.461  -0.851  0.00  0.00    +0.006 A 
ATOM     14  C   UNL     1      -4.380   6.354  -0.537  0.00  0.00    +0.024 A 
ATOM     15  C   UNL     1      -3.425   6.437  -1.542  0.00  0.00    +0.038 A 
ATOM     16  C   UNL     1      -3.821   6.631  -2.859  0.00  0.00    +0.043 A 
ATOM     17  C   UNL     1      -5.165   6.731  -3.167  0.00  0.00    +0.046 A 
ATOM     18 CL   UNL     1      -5.662   6.967  -4.813  0.00  0.00    -0.083 Cl
ENDBRANCH   5  15
ENDBRANCH   1   7
BRANCH   3  19
ATOM     19  C   UNL     1       1.135   2.159  -0.010  0.00  0.00    +0.048 A 
ATOM     20  C   UNL     1       0.105   1.452  -0.614  0.00  0.00    +0.039 A 
ATOM     21  C   UNL     1       0.130   0.059  -0.620  0.00  0.00    +0.061 A 
ATOM     22  C   UNL     1       1.189  -0.626  -0.019  0.00  0.00    +0.016 A 
ATOM     23  C   UNL     1       2.213   0.071   0.581  0.00  0.00    +0.017 A 
ATOM     24  C   UNL     1       2.196   1.468   0.592  0.00  0.00    +0.080 A 
BRANCH  24  25
ATOM     25  C   UNL     1       3.295   2.216   1.235  0.00  0.00    +0.341 C 
ATOM     26  O   UNL     1       3.326   3.428   1.167  0.00  0.00    -0.245 OA
BRANCH  25  27
ATOM     27  O   UNL     1       4.262   1.553   1.898  0.00  0.00    -0.464 OA
ATOM     28  C   UNL     1       5.311   2.353   2.506  0.00  0.00    +0.280 C 
ENDBRANCH  25  27
ENDBRANCH  24  25
BRANCH  21  29
ATOM     29  C   UNL     1      -0.968  -0.696  -1.264  0.00  0.00    +0.339 C 
ATOM     30  O   UNL     1      -1.889  -0.102  -1.787  0.00  0.00    -0.245 OA
BRANCH  29  31
ATOM     31  O   UNL     1      -0.945  -2.043  -1.270  0.00  0.00    -0.464 OA
ATOM     32  C   UNL     1      -2.055  -2.717  -1.920  0.00  0.00    +0.280 C 
ENDBRANCH  29  31
ENDBRANCH  21  29
ENDBRANCH   3  19
TORSDOF 7
