REMARK  Name = ZINC28382169
REMARK  7 active torsions:
REMARK  status: ('A' for Active; 'I' for Inactive)
REMARK    1  A    between atoms: C_6  and  C_7
REMARK    2  A    between atoms: C_9  and  C_13
REMARK    3  A    between atoms: C_16  and  S_19
REMARK    4  A    between atoms: N_17  and  N_18
REMARK    5  A    between atoms: S_19  and  C_20
REMARK    6  A    between atoms: C_20  and  C_21
REMARK    7  A    between atoms: C_21  and  C_23
REMARK                            x       y       z     vdW  Elec       q    Type
REMARK                         _______ _______ _______ _____ _____    ______ ____
ROOT
ATOM      1  C   UNL     1      -1.125   2.179   0.018  0.00  0.00    +0.199 A 
ATOM      2  N   UNL     1      -0.689   3.419   0.027  0.00  0.00    -0.125 NA
ATOM      3  N   UNL     1       0.596   3.432   0.015  0.00  0.00    -0.120 NA
ATOM      4  C   UNL     1       1.061   2.202   0.004  0.00  0.00    +0.209 A 
ATOM      5  N   UNL     1      -0.016   1.362   0.009  0.00  0.00    -0.223 N 
ENDROOT
BRANCH   1   8
ATOM      6  C   UNL     1      -4.766   1.723  -0.138  0.00  0.00    +0.093 A 
ATOM      7  C   UNL     1      -3.621   2.528  -0.250  0.00  0.00    +0.061 A 
ATOM      8  C   UNL     1      -2.533   1.745   0.022  0.00  0.00    +0.105 A 
ATOM      9  N   UNL     1      -2.991   0.490   0.302  0.00  0.00    -0.273 N 
ATOM     10  H   UNL     1      -2.281  -0.311   0.555  0.00  0.00    +0.189 HD
ATOM     11  N   UNL     1      -4.387   0.506   0.194  0.00  0.00    -0.173 NA
BRANCH   6  17
ATOM     12  C   UNL     1      -6.432   3.492  -0.698  0.00  0.00    +0.011 A 
ATOM     13  C   UNL     1      -7.734   3.901  -0.901  0.00  0.00    +0.020 A 
ATOM     14  C   UNL     1      -8.776   3.001  -0.753  0.00  0.00    +0.041 A 
ATOM     15  C   UNL     1      -8.516   1.686  -0.406  0.00  0.00    +0.020 A 
ATOM     16  C   UNL     1      -7.217   1.267  -0.206  0.00  0.00    +0.011 A 
ATOM     17  C   UNL     1      -6.165   2.169  -0.353  0.00  0.00    +0.002 A 
ATOM     18 CL   UNL     1     -10.412   3.523  -1.004  0.00  0.00    -0.084 Cl
ENDBRANCH   6  17
ENDBRANCH   1   8
BRANCH   5  19
ATOM     19  N   UNL     1       0.002  -0.004   0.002  0.00  0.00    -0.295 N 
ATOM     20  H   UNL     1       0.962  -0.541  -0.005  0.00  0.00    +0.163 HD
ATOM     21  H   UNL     1      -0.943  -0.567   0.003  0.00  0.00    +0.163 HD
ENDBRANCH   5  19
BRANCH   4  22
ATOM     22  S   UNL     1       2.757   1.726  -0.015  0.00  0.00    -0.077 S 
BRANCH  22  23
ATOM     23  C   UNL     1       3.541   3.357  -0.013  0.00  0.00    +0.157 C 
BRANCH  23  24
ATOM     24  C   UNL     1       5.039   3.195  -0.028  0.00  0.00    +0.173 C 
ATOM     25  O   UNL     1       5.529   2.085  -0.038  0.00  0.00    -0.291 OA
BRANCH  24  26
ATOM     26  C   UNL     1       5.908   4.381  -0.030  0.00  0.00    +0.018 A 
ATOM     27  C   UNL     1       5.347   5.663  -0.025  0.00  0.00    +0.013 A 
ATOM     28  C   UNL     1       6.167   6.771  -0.021  0.00  0.00    +0.020 A 
ATOM     29  C   UNL     1       7.544   6.617  -0.035  0.00  0.00    +0.041 A 
ATOM     30  C   UNL     1       8.107   5.351  -0.046  0.00  0.00    +0.020 A 
ATOM     31  C   UNL     1       7.299   4.234  -0.044  0.00  0.00    +0.013 A 
ATOM     32 CL   UNL     1       8.570   8.018  -0.037  0.00  0.00    -0.084 Cl
ENDBRANCH  24  26
ENDBRANCH  23  24
ENDBRANCH  22  23
ENDBRANCH   4  22
TORSDOF 7
