REMARK  Name = ZINC24834127
REMARK  8 active torsions:
REMARK  status: ('A' for Active; 'I' for Inactive)
REMARK    1  A    between atoms: C_1  and  C_2
REMARK    2  A    between atoms: N_13  and  C_16
REMARK    3  A    between atoms: C_16  and  C_17
REMARK    4  A    between atoms: C_17  and  C_19
REMARK    5  A    between atoms: C_17  and  O_30
REMARK    6  A    between atoms: C_19  and  O_20
REMARK    7  A    between atoms: O_20  and  C_21
REMARK    8  A    between atoms: C_25  and  N_27
REMARK                            x       y       z     vdW  Elec       q    Type
REMARK                         _______ _______ _______ _____ _____    ______ ____
ROOT
ATOM      1  C   UNL     1       0.379  -4.310   0.062  0.00  0.00    +0.008 C 
ATOM      2  C   UNL     1       0.216  -2.818   0.360  0.00  0.00    -0.009 C 
ATOM      3  C   UNL     1      -0.945  -2.253  -0.464  0.00  0.00    +0.008 C 
ATOM      4  C   UNL     1      -1.276  -0.837   0.008  0.00  0.00    +0.037 C 
ATOM      5  C   UNL     1       0.002  -0.004   0.002  0.00  0.00    -0.023 A 
ATOM      6  C   UNL     1       1.213  -0.600  -0.012  0.00  0.00    -0.004 A 
ATOM      7  S   UNL     1       2.381   0.734  -0.016  0.00  0.00    -0.073 S 
ATOM      8  C   UNL     1       1.236   2.090   0.002  0.00  0.00    +0.116 A 
ATOM      9  C   UNL     1      -0.018   1.458   0.010  0.00  0.00    +0.076 A 
ATOM     10  C   UNL     1      -1.153   2.333   0.020  0.00  0.00    +0.262 A 
ATOM     11  O   UNL     1      -2.285   1.879   0.023  0.00  0.00    -0.267 OA
ATOM     12  N   UNL     1      -0.949   3.663   0.029  0.00  0.00    -0.296 N 
ATOM     13  C   UNL     1       0.304   4.186   0.020  0.00  0.00    +0.203 A 
ATOM     14  N   UNL     1       1.358   3.414   0.007  0.00  0.00    -0.230 NA
ATOM     15  C   UNL     1       1.501  -2.070  -0.021  0.00  0.00    +0.046 C 
ENDROOT
BRANCH  12  16
ATOM     16  C   UNL     1      -2.103   4.566   0.044  0.00  0.00    +0.161 C 
BRANCH  16  17
ATOM     17  C   UNL     1      -2.518   4.888  -1.393  0.00  0.00    +0.172 C 
BRANCH  17  18
ATOM     18  O   UNL     1      -1.430   5.516  -2.073  0.00  0.00    -0.387 OA
ATOM     19  H   UNL     1      -1.542   5.822  -3.124  0.00  0.00    +0.210 HD
ENDBRANCH  17  18
BRANCH  17  20
ATOM     20  C   UNL     1      -3.723   5.830  -1.377  0.00  0.00    +0.262 C 
BRANCH  20  21
ATOM     21  O   UNL     1      -4.182   6.038  -2.714  0.00  0.00    -0.489 OA
BRANCH  21  22
ATOM     22  C   UNL     1      -5.255   6.857  -2.878  0.00  0.00    +0.123 A 
ATOM     23  C   UNL     1      -5.852   7.449  -1.774  0.00  0.00    +0.046 A 
ATOM     24  C   UNL     1      -6.941   8.281  -1.943  0.00  0.00    +0.006 A 
ATOM     25  C   UNL     1      -7.436   8.525  -3.211  0.00  0.00    +0.033 A 
ATOM     26  C   UNL     1      -6.843   7.937  -4.312  0.00  0.00    +0.130 A 
ATOM     27  C   UNL     1      -5.750   7.107  -4.149  0.00  0.00    +0.078 A 
BRANCH  26  28
ATOM     28  N   UNL     1      -7.375   8.200  -5.668  0.00  0.00    +0.057 N 
ATOM     29  O   UNL     1      -8.336   8.935  -5.812  0.00  0.00    -0.126 OA
ATOM     30  O   UNL     1      -6.853   7.682  -6.638  0.00  0.00    -0.126 OA
ENDBRANCH  26  28
ENDBRANCH  21  22
ENDBRANCH  20  21
ENDBRANCH  17  20
ENDBRANCH  16  17
ENDBRANCH  12  16
TORSDOF 7
