REMARK  Name = ZINC52912888
REMARK  7 active torsions:
REMARK  status: ('A' for Active; 'I' for Inactive)
REMARK    1  A    between atoms: C_1  and  C_2
REMARK    2  A    between atoms: C_3  and  N_11
REMARK    3  A    between atoms: C_7  and  N_8
REMARK    4  A    between atoms: C_12  and  C_14
REMARK    5  A    between atoms: C_14  and  C_16
REMARK    6  A    between atoms: C_14  and  S_17
REMARK    7  A    between atoms: S_17  and  C_18
REMARK                            x       y       z     vdW  Elec       q    Type
REMARK                         _______ _______ _______ _____ _____    ______ ____
ROOT
ATOM      1  N   UNL     1      -0.410   0.193  -2.477  0.00  0.00    -0.284 N 
ATOM      2  C   UNL     1      -0.694  -0.487  -3.605  0.00  0.00    +0.230 C 
ATOM      3  O   UNL     1      -0.662  -1.700  -3.606  0.00  0.00    -0.274 OA
ATOM      4  H   UNL     1      -0.384   1.163  -2.489  0.00  0.00    +0.155 HD
ENDROOT
BRANCH   1   7
ATOM      5  C   UNL     1      -1.254   1.371  -0.027  0.00  0.00    +0.048 C 
ATOM      6  C   UNL     1      -0.550   0.040  -0.070  0.00  0.00    +0.001 A 
ATOM      7  C   UNL     1      -0.155  -0.499  -1.288  0.00  0.00    +0.039 A 
ATOM      8  C   UNL     1       0.495  -1.726  -1.323  0.00  0.00    +0.024 A 
ATOM      9  C   UNL     1       0.746  -2.406  -0.147  0.00  0.00    +0.004 A 
ATOM     10  C   UNL     1       0.350  -1.867   1.063  0.00  0.00    +0.033 A 
ATOM     11  C   UNL     1      -0.291  -0.643   1.102  0.00  0.00    +0.131 A 
BRANCH  11  12
ATOM     12  N   UNL     1      -0.707  -0.067   2.401  0.00  0.00    +0.057 N 
ATOM     13  O   UNL     1      -0.803   1.132   2.527  0.00  0.00    -0.126 OA
ATOM     14  O   UNL     1      -0.951  -0.795   3.335  0.00  0.00    -0.126 OA
ENDBRANCH  11  12
ENDBRANCH   1   7
BRANCH   2  15
ATOM     15  C   UNL     1      -1.050   0.258  -4.865  0.00  0.00    +0.136 C 
ATOM     16  C   UNL     1       0.230   0.656  -5.601  0.00  0.00    +0.029 C 
BRANCH  15  17
ATOM     17  S   UNL     1      -2.056  -0.808  -5.934  0.00  0.00    -0.084 S 
BRANCH  17  18
ATOM     18  C   UNL     1      -2.510   0.240  -7.276  0.00  0.00    +0.161 A 
ATOM     19  N   UNL     1      -2.203   1.505  -7.489  0.00  0.00    -0.133 NA
ATOM     20  N   UNL     1      -2.668   2.141  -8.617  0.00  0.00    -0.125 NA
ATOM     21  C   UNL     1      -3.418   1.484  -9.479  0.00  0.00    +0.185 A 
ATOM     22  S   UNL     1      -3.502  -0.128  -8.715  0.00  0.00    -0.024 S 
ATOM     23  N   UNL     1      -3.988   1.926 -10.667  0.00  0.00    -0.308 N 
ATOM     24  C   UNL     1      -4.823   1.119 -11.569  0.00  0.00    +0.107 C 
ATOM     25  C   UNL     1      -5.204   2.017 -12.766  0.00  0.00    +0.020 C 
ATOM     26  C   UNL     1      -4.097   3.103 -12.752  0.00  0.00    +0.020 C 
ATOM     27  C   UNL     1      -3.859   3.283 -11.229  0.00  0.00    +0.107 C 
ENDBRANCH  17  18
ENDBRANCH  15  17
ENDBRANCH   2  15
TORSDOF 5
