REMARK  Name = ZINC04399649
REMARK  12 active torsions:
REMARK  status: ('A' for Active; 'I' for Inactive)
REMARK    1  A    between atoms: C_1  and  C_2
REMARK    2  A    between atoms: C_2  and  C_3
REMARK    3  A    between atoms: C_3  and  C_4
REMARK    4  A    between atoms: C_4  and  C_6
REMARK    5  A    between atoms: C_4  and  N_15
REMARK    6  A    between atoms: N_8  and  C_9
REMARK    7  A    between atoms: C_9  and  C_10
REMARK    8  A    between atoms: N_15  and  C_16
REMARK    9  A    between atoms: C_21  and  C_23
REMARK   10  A    between atoms: C_23  and  N_24
REMARK   11  A    between atoms: N_24  and  S_25
REMARK   12  A    between atoms: S_25  and  C_28
REMARK                            x       y       z     vdW  Elec       q    Type
REMARK                         _______ _______ _______ _____ _____    ______ ____
ROOT
ATOM      1  N   UNL     1      -0.785  -2.537   1.261  0.00  0.00    -0.286 N 
ATOM      2  C   UNL     1       0.223  -3.432   1.273  0.00  0.00    +0.232 C 
ATOM      3  O   UNL     1       0.825  -3.682   0.251  0.00  0.00    -0.274 OA
ENDROOT
BRANCH   1   4
ATOM      4  C   UNL     1      -1.435  -2.148   2.515  0.00  0.00    +0.077 C 
ATOM      5  C   UNL     1      -0.401  -1.527   3.476  0.00  0.00    +0.022 C 
ATOM      6  C   UNL     1      -0.832  -2.032   4.875  0.00  0.00    +0.002 C 
ATOM      7  C   UNL     1      -1.291  -3.483   4.589  0.00  0.00    +0.002 C 
ATOM      8  C   UNL     1      -2.001  -3.392   3.222  0.00  0.00    +0.022 C 
ENDBRANCH   1   4
BRANCH   1   9
ATOM      9  C   UNL     1      -1.230  -1.953  -0.007  0.00  0.00    +0.162 C 
BRANCH   9  10
ATOM     10  C   UNL     1      -2.683  -2.288  -0.231  0.00  0.00    +0.234 C 
ATOM     11  O   UNL     1      -3.286  -2.948   0.587  0.00  0.00    -0.274 OA
ATOM     12  N   UNL     1      -3.311  -1.852  -1.341  0.00  0.00    -0.307 N 
ATOM     13  H   UNL     1      -2.828  -1.324  -1.996  0.00  0.00    +0.149 HD
BRANCH  12  14
ATOM     14  C   UNL     1      -4.722  -2.177  -1.559  0.00  0.00    +0.178 C 
BRANCH  14  15
ATOM     15  C   UNL     1      -5.181  -1.576  -2.863  0.00  0.00    +0.122 A 
ATOM     16  C   UNL     1      -5.134  -2.178  -4.066  0.00  0.00    +0.046 A 
ATOM     17  C   UNL     1      -5.661  -1.260  -5.003  0.00  0.00    +0.041 A 
ATOM     18  C   UNL     1      -5.997  -0.153  -4.318  0.00  0.00    +0.195 A 
ATOM     19  O   UNL     1      -5.710  -0.352  -3.021  0.00  0.00    -0.466 OA
ENDBRANCH  14  15
ENDBRANCH  12  14
ENDBRANCH   9  10
BRANCH   9  20
ATOM     20  C   UNL     1      -1.058  -0.434   0.043  0.00  0.00    +0.032 C 
BRANCH  20  22
ATOM     21  C   UNL     1       0.601   1.427   0.195  0.00  0.00    +0.004 C 
ATOM     22  C   UNL     1       0.429  -0.092   0.145  0.00  0.00    -0.001 C 
ENDBRANCH  20  22
ENDBRANCH   9  20
ENDBRANCH   1   9
BRANCH   2  23
ATOM     23  C   UNL     1       0.603  -4.121   2.559  0.00  0.00    +0.201 C 
BRANCH  23  24
ATOM     24  N   UNL     1       1.810  -4.923   2.345  0.00  0.00    -0.181 NA
ATOM     25  H   UNL     1       2.106  -5.122   1.443  0.00  0.00    +0.149 HD
BRANCH  24  26
ATOM     26  S   UNL     1       2.669  -5.489   3.643  0.00  0.00    +0.059 S 
ATOM     27  O   UNL     1       3.752  -6.242   3.115  0.00  0.00    -0.153 OA
ATOM     28  O   UNL     1       2.862  -4.384   4.515  0.00  0.00    -0.153 OA
BRANCH  26  29
ATOM     29  C   UNL     1       1.631  -6.629   4.496  0.00  0.00    +0.105 A 
ATOM     30  C   UNL     1       0.793  -6.182   5.500  0.00  0.00    +0.030 A 
ATOM     31  C   UNL     1      -0.021  -7.075   6.170  0.00  0.00    +0.022 A 
ATOM     32  C   UNL     1       0.004  -8.418   5.837  0.00  0.00    +0.041 A 
ATOM     33  C   UNL     1       0.843  -8.865   4.832  0.00  0.00    +0.022 A 
ATOM     34  C   UNL     1       1.653  -7.969   4.159  0.00  0.00    +0.030 A 
ATOM     35 CL   UNL     1      -1.018  -9.541   6.678  0.00  0.00    -0.084 Cl
ENDBRANCH  26  29
ENDBRANCH  24  26
ENDBRANCH  23  24
ENDBRANCH   2  23
TORSDOF 11
