REMARK  Name = ZINC39217349
REMARK  6 active torsions:
REMARK  status: ('A' for Active; 'I' for Inactive)
REMARK    1  A    between atoms: C_1  and  O_2
REMARK    2  A    between atoms: O_2  and  C_3
REMARK    3  A    between atoms: C_3  and  C_5
REMARK    4  A    between atoms: C_7  and  N_16
REMARK    5  A    between atoms: C_17  and  C_19
REMARK    6  A    between atoms: C_19  and  N_20
REMARK                            x       y       z     vdW  Elec       q    Type
REMARK                         _______ _______ _______ _____ _____    ______ ____
ROOT
ATOM      1  C   UNL     1       0.711  -2.012  -1.139  0.00  0.00    +0.234 C 
ATOM      2  C   UNL     1       1.869  -2.603  -0.366  0.00  0.00    +0.053 C 
ATOM      3  C   UNL     1       2.611  -3.319  -1.289  0.00  0.00    +0.020 A 
ATOM      4  C   UNL     1       3.797  -4.084  -1.174  0.00  0.00    +0.050 A 
ATOM      5  C   UNL     1       4.314  -4.691  -2.272  0.00  0.00    +0.124 A 
ATOM      6  C   UNL     1       3.703  -4.581  -3.527  0.00  0.00    +0.040 A 
ATOM      7  C   UNL     1       2.568  -3.865  -3.709  0.00  0.00    +0.029 A 
ATOM      8  C   UNL     1       1.966  -3.201  -2.608  0.00  0.00    +0.045 A 
ATOM      9  N   UNL     1       0.880  -2.456  -2.526  0.00  0.00    -0.367 N 
ATOM     10  F   UNL     1       5.446  -5.419  -2.152  0.00  0.00    -0.205 F 
ATOM     11  H   UNL     1       0.289  -2.238  -3.263  0.00  0.00    +0.161 HD
ENDROOT
BRANCH   2  12
ATOM     12  N   UNL     1       2.128  -2.460   0.965  0.00  0.00    -0.285 N 
ATOM     13  C   UNL     1       1.220  -1.873   1.769  0.00  0.00    +0.237 C 
ATOM     14  O   UNL     1       0.131  -1.568   1.332  0.00  0.00    -0.274 OA
ATOM     15  H   UNL     1       2.967  -2.780   1.332  0.00  0.00    +0.155 HD
BRANCH  13  16
ATOM     16  C   UNL     1       1.557  -1.598   3.212  0.00  0.00    +0.221 C 
BRANCH  16  17
ATOM     17  N   UNL     1       0.413  -0.960   3.868  0.00  0.00    -0.293 N 
ATOM     18  C   UNL     1       0.302   0.420   3.863  0.00  0.00    +0.060 A 
ATOM     19  C   UNL     1       1.182   1.351   3.286  0.00  0.00    +0.027 A 
ATOM     20  C   UNL     1       0.934   2.700   3.367  0.00  0.00    +0.002 A 
ATOM     21  C   UNL     1      -0.187   3.187   4.018  0.00  0.00    +0.001 A 
ATOM     22  C   UNL     1      -1.072   2.293   4.595  0.00  0.00    +0.017 A 
ATOM     23  C   UNL     1      -0.824   0.945   4.514  0.00  0.00    +0.041 A 
ATOM     24  S   UNL     1      -1.667  -0.506   5.096  0.00  0.00    -0.027 S 
ATOM     25  C   UNL     1      -0.524  -1.724   4.464  0.00  0.00    +0.292 A 
ATOM     26  O   UNL     1      -0.576  -2.936   4.551  0.00  0.00    -0.259 OA
ENDBRANCH  16  17
ENDBRANCH  13  16
ENDBRANCH   2  12
BRANCH   1  27
ATOM     27  C   UNL     1       0.752  -0.508  -1.067  0.00  0.00    +0.335 C 
ATOM     28  O   UNL     1       1.317   0.123  -1.929  0.00  0.00    -0.248 OA
BRANCH  27  30
ATOM     29  C   UNL     1       0.241   1.559  -0.040  0.00  0.00    +0.280 C 
ATOM     30  O   UNL     1       0.162   0.132  -0.045  0.00  0.00    -0.466 OA
ENDBRANCH  27  30
ENDBRANCH   1  27
TORSDOF 5
