REMARK  Name = ZINC10462887
REMARK  8 active torsions:
REMARK  status: ('A' for Active; 'I' for Inactive)
REMARK    1  A    between atoms: C_4  and  N_7
REMARK    2  A    between atoms: C_9  and  C_14
REMARK    3  A    between atoms: N_16  and  C_17
REMARK    4  A    between atoms: C_20  and  C_23
REMARK    5  A    between atoms: N_25  and  C_26
REMARK    6  A    between atoms: C_31  and  C_32
REMARK    7  A    between atoms: N_34  and  C_35
REMARK    8  A    between atoms: C_35  and  C_36
REMARK                            x       y       z     vdW  Elec       q    Type
REMARK                         _______ _______ _______ _____ _____    ______ ____
ROOT
ATOM      1  C   UNL     1      -8.585  -3.567  -6.177  0.00  0.00    +0.033 A 
ATOM      2  C   UNL     1      -9.853  -3.076  -5.880  0.00  0.00    +0.024 A 
ATOM      3  C   UNL     1     -10.016  -2.144  -4.880  0.00  0.00    +0.015 A 
ATOM      4  C   UNL     1      -8.905  -1.690  -4.163  0.00  0.00    +0.037 A 
ATOM      5  C   UNL     1      -7.633  -2.181  -4.468  0.00  0.00    +0.015 A 
ATOM      6  C   UNL     1      -7.478  -3.117  -5.465  0.00  0.00    +0.024 A 
ENDROOT
BRANCH   1   9
ATOM      7  C   UNL     1      -9.369  -5.451  -7.392  0.00  0.00    +0.222 C 
ATOM      8  O   UNL     1     -10.396  -5.426  -6.748  0.00  0.00    -0.275 OA
ATOM      9  N   UNL     1      -8.425  -4.511  -7.191  0.00  0.00    -0.285 N 
ATOM     10  H   UNL     1      -7.633  -4.490  -7.751  0.00  0.00    +0.155 HD
BRANCH   7  13
ATOM     11  N   UNL     1     -11.164  -6.791  -9.690  0.00  0.00    -0.271 N 
ATOM     12  C   UNL     1     -10.414  -7.402  -8.585  0.00  0.00    +0.127 C 
ATOM     13  C   UNL     1      -9.148  -6.533  -8.417  0.00  0.00    +0.102 C 
ATOM     14  C   UNL     1      -8.988  -5.931  -9.832  0.00  0.00    +0.110 C 
ATOM     15  C   UNL     1     -10.386  -5.964 -10.410  0.00  0.00    +0.221 C 
ATOM     16  O   UNL     1     -10.751  -5.337 -11.381  0.00  0.00    -0.275 OA
BRANCH  11  20
ATOM     17  C   UNL     1     -15.187  -7.524 -10.488  0.00  0.00    +0.000 A 
ATOM     18  C   UNL     1     -14.603  -8.047  -9.349  0.00  0.00    +0.002 A 
ATOM     19  C   UNL     1     -13.270  -7.806  -9.082  0.00  0.00    +0.023 A 
ATOM     20  C   UNL     1     -12.515  -7.037  -9.958  0.00  0.00    +0.036 A 
ATOM     21  C   UNL     1     -13.106  -6.508 -11.098  0.00  0.00    +0.023 A 
ATOM     22  C   UNL     1     -14.438  -6.758 -11.363  0.00  0.00    +0.002 A 
ENDBRANCH  11  20
ENDBRANCH   7  13
ENDBRANCH   1   9
BRANCH   4  23
ATOM     23  C   UNL     1      -9.076  -0.691  -3.090  0.00  0.00    +0.248 C 
ATOM     24  O   UNL     1     -10.183  -0.262  -2.830  0.00  0.00    -0.270 OA
ATOM     25  N   UNL     1      -8.004  -0.255  -2.400  0.00  0.00    -0.281 N 
ATOM     26  H   UNL     1      -7.114  -0.549  -2.648  0.00  0.00    +0.155 HD
BRANCH  25  27
ATOM     27  C   UNL     1      -8.174   0.618  -1.329  0.00  0.00    +0.046 A 
ATOM     28  C   UNL     1      -9.236   1.513  -1.320  0.00  0.00    +0.024 A 
ATOM     29  C   UNL     1      -9.399   2.382  -0.261  0.00  0.00    +0.002 A 
ATOM     30  C   UNL     1      -8.513   2.365   0.804  0.00  0.00    +0.001 A 
ATOM     31  C   UNL     1      -7.457   1.479   0.816  0.00  0.00    +0.015 A 
ATOM     32  C   UNL     1      -7.278   0.594  -0.250  0.00  0.00    +0.058 A 
BRANCH  32  33
ATOM     33  C   UNL     1      -6.150  -0.357  -0.244  0.00  0.00    +0.246 C 
ATOM     34  O   UNL     1      -6.065  -1.205  -1.110  0.00  0.00    -0.270 OA
ATOM     35  N   UNL     1      -5.213  -0.285   0.723  0.00  0.00    -0.309 N 
ATOM     36  H   UNL     1      -5.281   0.392   1.414  0.00  0.00    +0.149 HD
BRANCH  35  37
ATOM     37  C   UNL     1      -4.093  -1.229   0.729  0.00  0.00    +0.136 C 
BRANCH  37  38
ATOM     38  C   UNL     1      -3.183  -0.932   1.922  0.00  0.00    +0.135 C 
ATOM     39  C   UNL     1      -1.936  -1.836   1.868  0.00  0.00    +0.035 C 
ATOM     40  C   UNL     1      -1.977  -2.618   3.204  0.00  0.00    +0.031 C 
ATOM     41  C   UNL     1      -2.883  -1.718   4.081  0.00  0.00    +0.160 C 
ATOM     42  O   UNL     1      -3.872  -1.227   3.149  0.00  0.00    -0.375 OA
ENDBRANCH  37  38
ENDBRANCH  35  37
ENDBRANCH  32  33
ENDBRANCH  25  27
ENDBRANCH   4  23
TORSDOF 8
