REMARK  Name = ZINC16788382
REMARK  8 active torsions:
REMARK  status: ('A' for Active; 'I' for Inactive)
REMARK    1  A    between atoms: C_1  and  C_2
REMARK    2  A    between atoms: C_2  and  C_4
REMARK    3  A    between atoms: C_2  and  S_19
REMARK    4  A    between atoms: N_6  and  C_7
REMARK    5  A    between atoms: C_8  and  C_17
REMARK    6  A    between atoms: S_19  and  C_20
REMARK    7  A    between atoms: C_23  and  C_26
REMARK    8  A    between atoms: N_24  and  N_25
REMARK                            x       y       z     vdW  Elec       q    Type
REMARK                         _______ _______ _______ _____ _____    ______ ____
ROOT
ATOM      1  C   UNL     1       2.798   0.445   1.398  0.00  0.00    +0.029 C 
ATOM      2  C   UNL     1       2.462   0.920  -0.017  0.00  0.00    +0.137 C 
ENDROOT
BRANCH   2   3
ATOM      3  C   UNL     1       1.147   1.655   0.000  0.00  0.00    +0.231 C 
ATOM      4  O   UNL     1       1.130   2.868   0.007  0.00  0.00    -0.274 OA
ATOM      5  N   UNL     1      -0.011   0.966   0.007  0.00  0.00    -0.278 N 
ATOM      6  H   UNL     1       0.002  -0.004   0.002  0.00  0.00    +0.155 HD
BRANCH   5   7
ATOM      7  C   UNL     1      -1.222   1.643   0.017  0.00  0.00    +0.090 A 
ATOM      8  C   UNL     1      -2.503   1.117   0.020  0.00  0.00    +0.084 A 
ATOM      9  C   UNL     1      -3.621   2.051   0.034  0.00  0.00    -0.018 A 
ATOM     10  C   UNL     1      -3.272   3.356   0.032  0.00  0.00    -0.004 A 
ATOM     11  S   UNL     1      -1.500   3.353   0.035  0.00  0.00    -0.077 S 
ATOM     12  C   UNL     1      -4.179   4.546   0.029  0.00  0.00    +0.043 C 
ATOM     13  C   UNL     1      -5.245   4.372   1.119  0.00  0.00    +0.005 C 
ATOM     14  C   UNL     1      -6.440   3.642   0.515  0.00  0.00    +0.001 C 
ATOM     15  C   UNL     1      -5.969   2.657  -0.553  0.00  0.00    +0.005 C 
ATOM     16  C   UNL     1      -5.072   1.589   0.063  0.00  0.00    +0.037 C 
BRANCH   8  17
ATOM     17  C   UNL     1      -2.722  -0.298   0.011  0.00  0.00    +0.102 C 
ATOM     18  N   UNL     1      -2.895  -1.421   0.003  0.00  0.00    -0.191 NA
ENDBRANCH   8  17
ENDBRANCH   5   7
ENDBRANCH   2   3
BRANCH   2  19
ATOM     19  S   UNL     1       3.766   2.028  -0.607  0.00  0.00    -0.072 S 
BRANCH  19  20
ATOM     20  C   UNL     1       5.119   0.902  -0.669  0.00  0.00    +0.209 A 
ATOM     21  N   UNL     1       5.088  -0.374  -0.354  0.00  0.00    -0.121 NA
ATOM     22  N   UNL     1       6.250  -0.897  -0.515  0.00  0.00    -0.127 NA
ATOM     23  C   UNL     1       7.095   0.011  -0.944  0.00  0.00    +0.182 A 
ATOM     24  N   UNL     1       6.396   1.190  -1.061  0.00  0.00    -0.224 N 
BRANCH  23  25
ATOM     25  C   UNL     1       8.527  -0.195  -1.248  0.00  0.00    +0.021 A 
ATOM     26  C   UNL     1       9.376   0.902  -1.399  0.00  0.00    +0.014 A 
ATOM     27  C   UNL     1      10.712   0.704  -1.678  0.00  0.00    +0.039 A 
ATOM     28  C   UNL     1      11.210  -0.582  -1.820  0.00  0.00    +0.123 A 
ATOM     29  C   UNL     1      10.370  -1.675  -1.677  0.00  0.00    +0.039 A 
ATOM     30  C   UNL     1       9.033  -1.488  -1.392  0.00  0.00    +0.014 A 
ATOM     31  F   UNL     1      12.518  -0.770  -2.100  0.00  0.00    -0.205 F 
ENDBRANCH  23  25
BRANCH  24  32
ATOM     32  N   UNL     1       6.878   2.398  -1.478  0.00  0.00    -0.295 N 
ATOM     33  H   UNL     1       7.229   2.936  -0.700  0.00  0.00    +0.163 HD
ATOM     34  H   UNL     1       7.588   2.279  -2.185  0.00  0.00    +0.163 HD
ENDBRANCH  24  32
ENDBRANCH  19  20
ENDBRANCH   2  19
TORSDOF 7
