REMARK  Name = ZINC58228563
REMARK  4 active torsions:
REMARK  status: ('A' for Active; 'I' for Inactive)
REMARK    1  A    between atoms: C_1  and  C_2
REMARK    2  A    between atoms: C_5  and  C_7
REMARK    3  A    between atoms: C_13  and  C_15
REMARK    4  A    between atoms: C_21  and  C_23
REMARK                            x       y       z     vdW  Elec       q    Type
REMARK                         _______ _______ _______ _____ _____    ______ ____
ROOT
ATOM      1  C   UNL     1       1.037  -4.028  -0.025  0.00  0.00    +0.165 A 
ATOM      2  N   UNL     1       0.318  -5.136  -0.028  0.00  0.00    -0.193 NA
ATOM      3  C   UNL     1       1.127  -6.197  -0.038  0.00  0.00    +0.241 A 
ATOM      4  N   UNL     1       2.374  -5.789  -0.042  0.00  0.00    -0.136 NA
ATOM      5  N   UNL     1       2.349  -4.385  -0.039  0.00  0.00    -0.257 N 
ATOM      6  N   UNL     1       0.711  -7.531  -0.044  0.00  0.00    -0.248 N 
ATOM      7  C   UNL     1       1.625  -8.521  -0.054  0.00  0.00    +0.269 C 
ATOM      8  O   UNL     1       2.812  -8.254  -0.059  0.00  0.00    -0.268 OA
ATOM      9  H   UNL     1      -0.235  -7.744  -0.041  0.00  0.00    +0.158 HD
ATOM     10  H   UNL     1       3.114  -3.789  -0.043  0.00  0.00    +0.191 HD
ENDROOT
BRANCH   7  11
ATOM     11  C   UNL     1       1.188  -9.927  -0.060  0.00  0.00    +0.135 A 
ATOM     12  C   UNL     1       2.106 -10.940  -0.065  0.00  0.00    +0.081 A 
ATOM     13  S   UNL     1       1.134 -12.313  -0.070  0.00  0.00    -0.060 S 
ATOM     14  C   UNL     1      -0.456 -11.504  -0.065  0.00  0.00    +0.165 A 
ATOM     15  N   UNL     1      -0.113 -10.232  -0.055  0.00  0.00    -0.220 NA
ATOM     16  N   UNL     1      -1.725 -12.069  -0.066  0.00  0.00    -0.265 N 
ATOM     17  C   UNL     1      -1.867 -13.409  -0.071  0.00  0.00    +0.216 C 
ATOM     18  O   UNL     1      -0.886 -14.122  -0.075  0.00  0.00    -0.276 OA
ATOM     19  C   UNL     1      -3.244 -14.021  -0.073  0.00  0.00    +0.109 C 
ATOM     20  H   UNL     1      -2.510 -11.498  -0.063  0.00  0.00    +0.157 HD
ENDBRANCH   7  11
BRANCH   1  25
ATOM     21  C   UNL     1      -0.018   1.503   0.010  0.00  0.00    +0.051 C 
ATOM     22  C   UNL     1       0.002  -0.004   0.002  0.00  0.00    -0.013 A 
ATOM     23  C   UNL     1      -1.043  -0.873   0.002  0.00  0.00    +0.011 A 
ATOM     24  C   UNL     1      -0.792  -2.225  -0.007  0.00  0.00    +0.019 A 
ATOM     25  C   UNL     1       0.512  -2.653  -0.015  0.00  0.00    +0.056 A 
ATOM     26  S   UNL     1       1.406  -1.107  -0.018  0.00  0.00    -0.090 S 
ENDBRANCH   1  25
TORSDOF 2
