REMARK  Name = ZINC02344107
REMARK  7 active torsions:
REMARK  status: ('A' for Active; 'I' for Inactive)
REMARK    1  A    between atoms: C_1  and  C_2
REMARK    2  A    between atoms: C_2  and  C_3
REMARK    3  A    between atoms: C_6  and  C_9
REMARK    4  A    between atoms: N_10  and  N_11
REMARK    5  A    between atoms: C_12  and  C_14
REMARK    6  A    between atoms: C_15  and  C_25
REMARK    7  A    between atoms: C_25  and  N_54
REMARK                            x       y       z     vdW  Elec       q    Type
REMARK                         _______ _______ _______ _____ _____    ______ ____
ROOT
ATOM      1  C   UNL     1       0.764   5.914   0.053  0.00  0.00    +0.170 A 
ATOM      2  C   UNL     1      -0.497   5.389   0.046  0.00  0.00    +0.063 A 
ATOM      3  N   UNL     1      -0.360   4.045   0.038  0.00  0.00    -0.194 N 
ATOM      4  N   UNL     1       1.016   3.778   0.032  0.00  0.00    -0.058 NA
ATOM      5  N   UNL     1       1.647   4.901   0.041  0.00  0.00    -0.124 NA
ATOM      6  C   UNL     1      -1.393   3.100   0.031  0.00  0.00    +0.240 A 
ATOM      7  C   UNL     1      -1.224   1.645   0.017  0.00  0.00    +0.206 A 
ATOM      8  N   UNL     1      -2.408   1.094   0.020  0.00  0.00    -0.032 NA
ATOM      9  O   UNL     1      -3.369   2.134   0.030  0.00  0.00    -0.239 OA
ATOM     10  N   UNL     1      -2.669   3.366   0.033  0.00  0.00    -0.027 NA
ATOM     11  N   UNL     1      -0.011   0.966   0.007  0.00  0.00    -0.337 N 
ATOM     12  H   UNL     1       0.002  -0.004   0.002  0.00  0.00    +0.144 HD
ATOM     13  H   UNL     1       0.822   1.462   0.002  0.00  0.00    +0.144 HD
ENDROOT
BRANCH   1  15
ATOM     14  N   UNL     1       2.390   7.740   0.067  0.00  0.00    -0.202 N 
ATOM     15  C   UNL     1       1.100   7.350   0.066  0.00  0.00    +0.285 C 
ATOM     16  O   UNL     1       0.213   8.182   0.076  0.00  0.00    -0.267 OA
ATOM     17  H   UNL     1       3.097   7.077   0.059  0.00  0.00    +0.178 HD
BRANCH  14  19
ATOM     18  C   UNL     1       3.951   9.480   0.080  0.00  0.00    +0.138 C 
ATOM     19  N   UNL     1       2.709   9.105   0.079  0.00  0.00    -0.187 NA
BRANCH  18  23
ATOM     20  C   UNL     1       4.918  13.613   0.118  0.00  0.00    -0.048 A 
ATOM     21  C   UNL     1       5.930  12.669   0.106  0.00  0.00    +0.004 A 
ATOM     22  C   UNL     1       5.623  11.325   0.094  0.00  0.00    +0.010 A 
ATOM     23  C   UNL     1       4.287  10.916   0.093  0.00  0.00    -0.005 A 
ATOM     24  C   UNL     1       3.271  11.875   0.099  0.00  0.00    +0.010 A 
ATOM     25  C   UNL     1       3.592  13.216   0.116  0.00  0.00    +0.004 A 
BRANCH  20  27
ATOM     26  C   UNL     1       5.374  15.591  -1.307  0.00  0.00    +0.009 C 
ATOM     27  C   UNL     1       5.261  15.080   0.131  0.00  0.00    +0.032 C 
ENDBRANCH  20  27
ENDBRANCH  18  23
ENDBRANCH  14  19
ENDBRANCH   1  15
BRANCH   2  28
ATOM     28  C   UNL     1      -1.792   6.161   0.050  0.00  0.00    -0.020 C 
BRANCH  28  34
ATOM     29  C   UNL     1      -2.563   5.143   2.108  0.00  0.00    -0.050 C 
ATOM     30  C   UNL     1      -2.938   5.435   3.564  0.00  0.00    +0.141 C 
ATOM     31  O   UNL     1      -4.010   6.380   3.594  0.00  0.00    -0.383 OA
ATOM     32  C   UNL     1      -3.704   7.619   2.949  0.00  0.00    +0.141 C 
ATOM     33  C   UNL     1      -3.337   7.350   1.487  0.00  0.00    -0.050 C 
ATOM     34  N   UNL     1      -2.193   6.414   1.451  0.00  0.00    +0.386 N 
ATOM     35  H   UNL     1      -1.402   6.833   1.954  0.00  0.00    -0.081 HD
ENDBRANCH  28  34
ENDBRANCH   2  28
TORSDOF 6
