REMARK  Name = ZINC02965440
REMARK  11 active torsions:
REMARK  status: ('A' for Active; 'I' for Inactive)
REMARK    1  A    between atoms: C_1  and  C_2
REMARK    2  A    between atoms: C_2  and  C_3
REMARK    3  A    between atoms: C_2  and  C_4
REMARK    4  A    between atoms: C_18  and  S_19
REMARK    5  A    between atoms: S_19  and  C_20
REMARK    6  A    between atoms: C_20  and  C_21
REMARK    7  A    between atoms: N_23  and  C_24
REMARK    8  A    between atoms: C_24  and  C_25
REMARK    9  A    between atoms: C_25  and  C_26
REMARK   10  A    between atoms: C_29  and  S_32
REMARK   11  A    between atoms: S_32  and  N_35
REMARK                            x       y       z     vdW  Elec       q    Type
REMARK                         _______ _______ _______ _____ _____    ______ ____
ROOT
ATOM      1  C   UNL     1      -2.402  -6.429   1.881  0.00  0.00    +0.172 C 
ENDROOT
BRANCH   1   2
ATOM      2  C   UNL     1      -2.029  -7.733   1.223  0.00  0.00    +0.223 C 
ATOM      3  O   UNL     1      -1.446  -7.730   0.160  0.00  0.00    -0.275 OA
ATOM      4  N   UNL     1      -2.344  -8.902   1.816  0.00  0.00    -0.314 N 
ATOM      5  H   UNL     1      -2.810  -8.904   2.667  0.00  0.00    +0.149 HD
BRANCH   4   6
ATOM      6  C   UNL     1      -1.981 -10.168   1.177  0.00  0.00    +0.109 C 
BRANCH   6   7
ATOM      7  C   UNL     1      -2.449 -11.334   2.050  0.00  0.00    +0.054 C 
BRANCH   7   8
ATOM      8  C   UNL     1      -2.076 -12.637   1.392  0.00  0.00    -0.046 A 
ATOM      9  C   UNL     1      -2.952 -13.242   0.510  0.00  0.00    +0.005 A 
ATOM     10  C   UNL     1      -2.610 -14.437  -0.093  0.00  0.00    +0.029 A 
ATOM     11  C   UNL     1      -1.391 -15.028   0.185  0.00  0.00    +0.105 A 
ATOM     12  C   UNL     1      -0.515 -14.423   1.066  0.00  0.00    +0.029 A 
ATOM     13  C   UNL     1      -0.856 -13.225   1.666  0.00  0.00    +0.005 A 
BRANCH  11  14
ATOM     14  S   UNL     1      -0.956 -16.552  -0.584  0.00  0.00    +0.056 S 
ATOM     15  O   UNL     1       0.005 -17.172   0.260  0.00  0.00    -0.153 OA
ATOM     16  O   UNL     1      -2.174 -17.188  -0.946  0.00  0.00    -0.153 OA
BRANCH  14  17
ATOM     17  N   UNL     1      -0.176 -16.183  -1.998  0.00  0.00    -0.204 NA
ATOM     18  H   UNL     1      -0.043 -15.256  -2.250  0.00  0.00    +0.144 HD
ATOM     19  H   UNL     1       0.147 -16.893  -2.573  0.00  0.00    +0.144 HD
ENDBRANCH  14  17
ENDBRANCH  11  14
ENDBRANCH   7   8
ENDBRANCH   6   7
ENDBRANCH   4   6
ENDBRANCH   1   2
BRANCH   1  20
ATOM     20  S   UNL     1      -1.847  -5.048   0.845  0.00  0.00    -0.080 S 
BRANCH  20  34
ATOM     21  C   UNL     1      -1.433  -0.534   0.013  0.00  0.00    +0.196 C 
ATOM     22  C   UNL     1      -1.440  -2.047   0.053  0.00  0.00    +0.252 C 
ATOM     23  O   UNL     1      -0.979  -2.805  -0.773  0.00  0.00    -0.272 OA
ATOM     24  N   UNL     1      -2.069  -2.375   1.204  0.00  0.00    -0.200 N 
ATOM     25  C   UNL     1      -2.453  -1.232   1.885  0.00  0.00    +0.139 C 
ATOM     26  N   UNL     1      -2.119  -0.139   1.251  0.00  0.00    -0.255 NA
ATOM     27  C   UNL     1      -3.158  -1.415   3.172  0.00  0.00    +0.041 A 
ATOM     28  C   UNL     1      -3.583  -0.327   3.928  0.00  0.00    +0.013 A 
ATOM     29  C   UNL     1      -4.237  -0.544   5.123  0.00  0.00    +0.001 A 
ATOM     30  C   UNL     1      -4.472  -1.835   5.573  0.00  0.00    +0.002 A 
ATOM     31  C   UNL     1      -4.058  -2.924   4.838  0.00  0.00    +0.028 A 
ATOM     32  C   UNL     1      -3.393  -2.729   3.625  0.00  0.00    +0.077 A 
ATOM     33  N   UNL     1      -2.972  -3.778   2.875  0.00  0.00    -0.225 NA
ATOM     34  C   UNL     1      -2.350  -3.615   1.739  0.00  0.00    +0.169 C 
BRANCH  21  36
ATOM     35  C   UNL     1      -0.019   1.526   0.010  0.00  0.00    +0.010 C 
ATOM     36  C   UNL     1       0.002  -0.004   0.002  0.00  0.00    +0.016 C 
ATOM     37  C   UNL     1       0.742  -0.511   1.242  0.00  0.00    +0.010 C 
ENDBRANCH  21  36
ENDBRANCH  20  34
ENDBRANCH   1  20
TORSDOF 9
