REMARK  Name = ZINC05363383
REMARK  8 active torsions:
REMARK  status: ('A' for Active; 'I' for Inactive)
REMARK    1  A    between atoms: C_1  and  N_2
REMARK    2  A    between atoms: N_2  and  C_3
REMARK    3  A    between atoms: C_6  and  C_12
REMARK    4  A    between atoms: C_8  and  N_9
REMARK    5  A    between atoms: C_12  and  O_14
REMARK    6  A    between atoms: O_14  and  C_15
REMARK    7  A    between atoms: C_15  and  C_16
REMARK    8  A    between atoms: C_19  and  C_21
REMARK                            x       y       z     vdW  Elec       q    Type
REMARK                         _______ _______ _______ _____ _____    ______ ____
ROOT
ATOM      1  C   UNL     1      -0.173   0.256   0.062  0.00  0.00    +0.340 C 
ATOM      2  O   UNL     1       0.946  -0.217   0.050  0.00  0.00    -0.245 OA
ENDROOT
BRANCH   1   6
ATOM      3  C   UNL     1      -3.559  -2.296  -0.004  0.00  0.00    +0.058 A 
ATOM      4  C   UNL     1      -3.727  -0.915   0.032  0.00  0.00    +0.026 A 
ATOM      5  C   UNL     1      -2.638  -0.091   0.060  0.00  0.00    +0.017 A 
ATOM      6  C   UNL     1      -1.349  -0.633   0.039  0.00  0.00    +0.061 A 
ATOM      7  C   UNL     1      -1.178  -2.020   0.002  0.00  0.00    +0.049 A 
ATOM      8  C   UNL     1      -2.279  -2.845  -0.019  0.00  0.00    +0.148 A 
BRANCH   3  10
ATOM      9  C   UNL     1      -6.014  -2.556  -0.139  0.00  0.00    +0.125 C 
ATOM     10  N   UNL     1      -4.671  -3.130  -0.027  0.00  0.00    -0.345 N 
ATOM     11  H   UNL     1      -4.558  -4.091   0.033  0.00  0.00    +0.146 HD
ENDBRANCH   3  10
BRANCH   8  12
ATOM     12  N   UNL     1      -2.104  -4.314  -0.059  0.00  0.00    +0.058 N 
ATOM     13  O   UNL     1      -0.991  -4.792  -0.185  0.00  0.00    -0.126 OA
ATOM     14  O   UNL     1      -3.073  -5.046   0.035  0.00  0.00    -0.126 OA
ENDBRANCH   8  12
ENDBRANCH   1   6
BRANCH   1  15
ATOM     15  O   UNL     1      -0.340   1.593   0.098  0.00  0.00    -0.452 OA
BRANCH  15  16
ATOM     16  C   UNL     1       0.863   2.406   0.119  0.00  0.00    +0.329 C 
BRANCH  16  17
ATOM     17  C   UNL     1       0.482   3.864   0.158  0.00  0.00    +0.255 A 
ATOM     18  N   UNL     1       0.288   4.581   1.229  0.00  0.00    -0.108 NA
ATOM     19  N   UNL     1      -0.024   5.783   0.892  0.00  0.00    -0.107 NA
ATOM     20  C   UNL     1      -0.039   5.875  -0.417  0.00  0.00    +0.248 A 
ATOM     21  O   UNL     1       0.286   4.662  -0.906  0.00  0.00    -0.417 OA
BRANCH  20  22
ATOM     22  C   UNL     1      -0.350   7.085  -1.207  0.00  0.00    +0.039 A 
ATOM     23  C   UNL     1      -0.322   7.037  -2.602  0.00  0.00    +0.014 A 
ATOM     24  C   UNL     1      -0.617   8.168  -3.334  0.00  0.00    +0.021 A 
ATOM     25  C   UNL     1      -0.930   9.353  -2.688  0.00  0.00    +0.041 A 
ATOM     26  C   UNL     1      -0.955   9.407  -1.304  0.00  0.00    +0.021 A 
ATOM     27  C   UNL     1      -0.666   8.281  -0.561  0.00  0.00    +0.014 A 
ATOM     28 CL   UNL     1      -1.294  10.774  -3.615  0.00  0.00    -0.084 Cl
ENDBRANCH  20  22
ENDBRANCH  16  17
ENDBRANCH  15  16
ENDBRANCH   1  15
TORSDOF 7
