REMARK  Name = ZINC64704228
REMARK  11 active torsions:
REMARK  status: ('A' for Active; 'I' for Inactive)
REMARK    1  A    between atoms: C_1  and  C_2
REMARK    2  A    between atoms: C_2  and  C_3
REMARK    3  A    between atoms: C_2  and  C_4
REMARK    4  A    between atoms: C_2  and  N_5
REMARK    5  A    between atoms: N_5  and  C_6
REMARK    6  A    between atoms: C_7  and  C_27
REMARK    7  A    between atoms: N_14  and  C_15
REMARK    8  A    between atoms: N_14  and  C_16
REMARK    9  A    between atoms: C_16  and  C_17
REMARK   10  A    between atoms: N_19  and  C_20
REMARK   11  A    between atoms: C_20  and  C_21
REMARK                            x       y       z     vdW  Elec       q    Type
REMARK                         _______ _______ _______ _____ _____    ______ ____
ROOT
ATOM      1  C   UNL     1       1.986   0.353  -1.603  0.00  0.00    +0.150 A 
ATOM      2  C   UNL     1       2.753   0.164  -2.714  0.00  0.00    +0.114 A 
ATOM      3  N   UNL     1       3.881   0.908  -2.570  0.00  0.00    -0.218 NA
ATOM      4  C   UNL     1       3.828   1.532  -1.432  0.00  0.00    +0.199 A 
ATOM      5  N   UNL     1       2.662   1.234  -0.772  0.00  0.00    -0.190 N 
ATOM      6  N   UNL     1       2.477   1.845   0.465  0.00  0.00    -0.140 NA
ATOM      7  C   UNL     1       3.370   2.658   0.959  0.00  0.00    +0.184 A 
ATOM      8  S   UNL     1       4.630   2.650  -0.306  0.00  0.00    -0.013 S 
ATOM      9  N   UNL     1       3.349   3.346   2.162  0.00  0.00    -0.302 N 
ATOM     10  C   UNL     1       2.207   3.203   3.068  0.00  0.00    +0.132 C 
ENDROOT
BRANCH   2  11
ATOM     11  C   UNL     1       2.418  -0.699  -3.869  0.00  0.00    +0.007 A 
ATOM     12  C   UNL     1       1.716  -1.889  -3.675  0.00  0.00    +0.010 A 
ATOM     13  C   UNL     1       1.406  -2.689  -4.755  0.00  0.00    +0.003 A 
ATOM     14  C   UNL     1       1.790  -2.315  -6.030  0.00  0.00    +0.038 A 
ATOM     15  C   UNL     1       2.487  -1.135  -6.231  0.00  0.00    +0.124 A 
ATOM     16  C   UNL     1       2.797  -0.322  -5.157  0.00  0.00    +0.048 A 
ATOM     17  F   UNL     1       2.858  -0.775  -7.479  0.00  0.00    -0.205 F 
ENDBRANCH   2  11
BRANCH   1  18
ATOM     18  N   UNL     1       0.742  -0.230  -1.350  0.00  0.00    -0.323 N 
ATOM     19  H   UNL     1       0.299  -0.747  -2.042  0.00  0.00    +0.148 HD
BRANCH  18  21
ATOM     20  C   UNL     1      -0.264   1.408   0.161  0.00  0.00    +0.031 C 
ATOM     21  C   UNL     1       0.106  -0.062  -0.041  0.00  0.00    +0.025 C 
ATOM     22  C   UNL     1       1.077  -0.499   1.057  0.00  0.00    +0.031 C 
ATOM     23  C   UNL     1      -1.159  -0.921   0.026  0.00  0.00    +0.031 C 
ENDBRANCH  18  21
ENDBRANCH   1  18
BRANCH   9  24
ATOM     24  C   UNL     1       4.470   4.217   2.527  0.00  0.00    +0.202 C 
BRANCH  24  25
ATOM     25  C   UNL     1       4.211   5.610   2.015  0.00  0.00    +0.230 C 
ATOM     26  O   UNL     1       3.191   5.852   1.405  0.00  0.00    -0.274 OA
ATOM     27  N   UNL     1       5.112   6.588   2.235  0.00  0.00    -0.312 N 
ATOM     28  H   UNL     1       5.928   6.394   2.723  0.00  0.00    +0.149 HD
BRANCH  27  29
ATOM     29  C   UNL     1       4.861   7.942   1.737  0.00  0.00    +0.135 C 
BRANCH  29  30
ATOM     30  C   UNL     1       6.030   8.851   2.118  0.00  0.00    +0.135 C 
ATOM     31  C   UNL     1       5.720  10.306   1.704  0.00  0.00    +0.035 C 
ATOM     32  C   UNL     1       7.097  10.802   1.186  0.00  0.00    +0.031 C 
ATOM     33  C   UNL     1       7.661   9.504   0.557  0.00  0.00    +0.160 C 
ATOM     34  O   UNL     1       7.212   8.443   1.418  0.00  0.00    -0.375 OA
ENDBRANCH  29  30
ENDBRANCH  27  29
ENDBRANCH  24  25
ENDBRANCH   9  24
TORSDOF 7
