REMARK  Name = ZINC10461804
REMARK  9 active torsions:
REMARK  status: ('A' for Active; 'I' for Inactive)
REMARK    1  A    between atoms: C_1  and  C_2
REMARK    2  A    between atoms: C_2  and  C_3
REMARK    3  A    between atoms: C_3  and  C_4
REMARK    4  A    between atoms: C_4  and  N_5
REMARK    5  A    between atoms: C_7  and  C_12
REMARK    6  A    between atoms: N_14  and  C_15
REMARK    7  A    between atoms: C_18  and  C_21
REMARK    8  A    between atoms: N_23  and  C_24
REMARK    9  A    between atoms: C_27  and  N_31
REMARK                            x       y       z     vdW  Elec       q    Type
REMARK                         _______ _______ _______ _____ _____    ______ ____
ROOT
ATOM      1  C   UNL     1       2.302  -6.973   0.314  0.00  0.00    +0.033 A 
ATOM      2  C   UNL     1       1.336  -6.311  -0.438  0.00  0.00    +0.024 A 
ATOM      3  C   UNL     1       1.356  -4.938  -0.530  0.00  0.00    +0.015 A 
ATOM      4  C   UNL     1       2.348  -4.208   0.132  0.00  0.00    +0.037 A 
ATOM      5  C   UNL     1       3.320  -4.877   0.880  0.00  0.00    +0.015 A 
ATOM      6  C   UNL     1       3.291  -6.251   0.973  0.00  0.00    +0.024 A 
ENDROOT
BRANCH   1   9
ATOM      7  C   UNL     1       1.102  -9.021   0.405  0.00  0.00    +0.222 C 
ATOM      8  O   UNL     1       0.061  -8.399   0.421  0.00  0.00    -0.275 OA
ATOM      9  N   UNL     1       2.279  -8.365   0.405  0.00  0.00    -0.285 N 
ATOM     10  H   UNL     1       3.111  -8.860   0.468  0.00  0.00    +0.155 HD
BRANCH   7  13
ATOM     11  N   UNL     1      -0.242 -12.276   1.358  0.00  0.00    -0.301 N 
ATOM     12  C   UNL     1      -0.362 -11.060   0.544  0.00  0.00    +0.121 C 
ATOM     13  C   UNL     1       1.079 -10.527   0.385  0.00  0.00    +0.101 C 
ATOM     14  C   UNL     1       1.770 -11.108   1.640  0.00  0.00    +0.110 C 
ATOM     15  C   UNL     1       0.943 -12.326   1.989  0.00  0.00    +0.216 C 
ATOM     16  O   UNL     1       1.298 -13.217   2.731  0.00  0.00    -0.276 OA
BRANCH  11  17
ATOM     17  C   UNL     1      -1.282 -13.303   1.468  0.00  0.00    +0.108 C 
BRANCH  17  18
ATOM     18  C   UNL     1      -2.213 -12.963   2.633  0.00  0.00    +0.019 C 
BRANCH  18  20
ATOM     19  C   UNL     1      -4.230 -13.695   3.913  0.00  0.00    +0.004 C 
ATOM     20  C   UNL     1      -3.299 -14.035   2.748  0.00  0.00    -0.002 C 
ENDBRANCH  18  20
ENDBRANCH  17  18
ENDBRANCH  11  17
ENDBRANCH   7  13
ENDBRANCH   1   9
BRANCH   4  21
ATOM     21  C   UNL     1       2.372  -2.736   0.035  0.00  0.00    +0.248 C 
ATOM     22  O   UNL     1       1.528  -2.156  -0.620  0.00  0.00    -0.270 OA
ATOM     23  N   UNL     1       3.329  -2.035   0.674  0.00  0.00    -0.280 N 
ATOM     24  H   UNL     1       4.047  -2.499   1.132  0.00  0.00    +0.155 HD
BRANCH  23  25
ATOM     25  C   UNL     1       3.288  -0.636   0.676  0.00  0.00    +0.052 A 
ATOM     26  C   UNL     1       2.088   0.025   0.449  0.00  0.00    +0.027 A 
ATOM     27  C   UNL     1       2.050   1.405   0.453  0.00  0.00    +0.034 A 
ATOM     28  C   UNL     1       3.206   2.130   0.681  0.00  0.00    +0.128 A 
ATOM     29  C   UNL     1       4.402   1.476   0.907  0.00  0.00    +0.054 A 
ATOM     30  C   UNL     1       4.448   0.095   0.905  0.00  0.00    +0.064 A 
ATOM     31 CL   UNL     1       5.950  -0.727   1.190  0.00  0.00    -0.082 Cl
BRANCH  28  32
ATOM     32  N   UNL     1       3.161   3.610   0.684  0.00  0.00    +0.056 N 
ATOM     33  O   UNL     1       4.178   4.250   0.885  0.00  0.00    -0.126 OA
ATOM     34  O   UNL     1       2.107   4.188   0.485  0.00  0.00    -0.126 OA
ENDBRANCH  28  32
ENDBRANCH  23  25
ENDBRANCH   4  21
TORSDOF 8
