REMARK  Name = ZINC02846749
REMARK  9 active torsions:
REMARK  status: ('A' for Active; 'I' for Inactive)
REMARK    1  A    between atoms: C_1  and  C_2
REMARK    2  A    between atoms: C_3  and  N_15
REMARK    3  A    between atoms: N_6  and  C_9
REMARK    4  A    between atoms: N_7  and  C_8
REMARK    5  A    between atoms: C_16  and  C_18
REMARK    6  A    between atoms: C_18  and  S_19
REMARK    7  A    between atoms: S_19  and  C_20
REMARK    8  A    between atoms: C_24  and  C_26
REMARK    9  A    between atoms: C_29  and  N_32
REMARK                            x       y       z     vdW  Elec       q    Type
REMARK                         _______ _______ _______ _____ _____    ______ ____
ROOT
ATOM      1  N   UNL     1      -0.007   0.875   2.842  0.00  0.00    -0.279 N 
ATOM      2  C   UNL     1      -0.585   0.509   1.681  0.00  0.00    +0.228 C 
ATOM      3  O   UNL     1      -1.760   0.742   1.489  0.00  0.00    -0.275 OA
ATOM      4  H   UNL     1       0.911   0.623   3.027  0.00  0.00    +0.155 HD
ENDROOT
BRANCH   1   7
ATOM      5  C   UNL     1       0.964   3.490   4.122  0.00  0.00    +0.067 C 
ATOM      6  C   UNL     1      -0.341   2.779   4.371  0.00  0.00    +0.059 A 
ATOM      7  C   UNL     1      -0.735   1.625   3.787  0.00  0.00    +0.121 A 
ATOM      8  C   UNL     1      -2.057   1.297   4.323  0.00  0.00    +0.293 A 
ATOM      9  O   UNL     1      -2.735   0.327   4.037  0.00  0.00    -0.264 OA
ATOM     10  N   UNL     1      -2.381   2.275   5.194  0.00  0.00    -0.216 N 
ATOM     11  N   UNL     1      -1.327   3.195   5.226  0.00  0.00    -0.282 N 
ATOM     12  C   UNL     1      -1.282   4.407   6.048  0.00  0.00    +0.171 C 
BRANCH  10  13
ATOM     13  C   UNL     1      -3.564   2.355   5.935  0.00  0.00    +0.067 A 
ATOM     14  C   UNL     1      -3.514   2.596   7.302  0.00  0.00    +0.028 A 
ATOM     15  C   UNL     1      -4.684   2.680   8.030  0.00  0.00    +0.002 A 
ATOM     16  C   UNL     1      -5.905   2.513   7.402  0.00  0.00    +0.000 A 
ATOM     17  C   UNL     1      -5.958   2.268   6.042  0.00  0.00    +0.002 A 
ATOM     18  C   UNL     1      -4.792   2.189   5.307  0.00  0.00    +0.028 A 
ENDBRANCH  10  13
ENDBRANCH   1   7
BRANCH   2  19
ATOM     19  C   UNL     1       0.227  -0.189   0.622  0.00  0.00    +0.173 C 
BRANCH  19  20
ATOM     20  S   UNL     1      -0.825  -0.548  -0.807  0.00  0.00    -0.079 S 
BRANCH  20  21
ATOM     21  C   UNL     1       0.346  -1.340  -1.858  0.00  0.00    +0.167 A 
ATOM     22  N   UNL     1       0.090  -1.836  -3.100  0.00  0.00    -0.339 N 
ATOM     23  H   UNL     1      -0.790  -1.819  -3.575  0.00  0.00    +0.167 HD
ATOM     24  C   UNL     1       1.263  -2.365  -3.580  0.00  0.00    +0.113 A 
ATOM     25  C   UNL     1       2.200  -2.186  -2.616  0.00  0.00    +0.090 A 
ATOM     26  N   UNL     1       1.608  -1.554  -1.572  0.00  0.00    -0.222 NA
BRANCH  25  27
ATOM     27  C   UNL     1       3.620  -2.606  -2.691  0.00  0.00    +0.002 A 
ATOM     28  C   UNL     1       4.099  -3.256  -3.828  0.00  0.00    +0.012 A 
ATOM     29  C   UNL     1       5.423  -3.640  -3.893  0.00  0.00    +0.033 A 
ATOM     30  C   UNL     1       6.272  -3.391  -2.830  0.00  0.00    +0.126 A 
ATOM     31  C   UNL     1       5.801  -2.752  -1.697  0.00  0.00    +0.033 A 
ATOM     32  C   UNL     1       4.480  -2.358  -1.623  0.00  0.00    +0.012 A 
BRANCH  30  33
ATOM     33  N   UNL     1       7.689  -3.812  -2.904  0.00  0.00    +0.056 N 
ATOM     34  O   UNL     1       8.439  -3.594  -1.969  0.00  0.00    -0.126 OA
ATOM     35  O   UNL     1       8.106  -4.375  -3.900  0.00  0.00    -0.126 OA
ENDBRANCH  30  33
ENDBRANCH  25  27
ENDBRANCH  20  21
ENDBRANCH  19  20
ENDBRANCH   2  19
TORSDOF 7
