REMARK  Name = ZINC39222470
REMARK  14 active torsions:
REMARK  status: ('A' for Active; 'I' for Inactive)
REMARK    1  A    between atoms: C_1  and  C_2
REMARK    2  A    between atoms: C_2  and  O_3
REMARK    3  A    between atoms: O_3  and  C_4
REMARK    4  A    between atoms: C_4  and  C_6
REMARK    5  A    between atoms: C_10  and  N_11
REMARK    6  A    between atoms: C_12  and  C_14
REMARK    7  A    between atoms: C_14  and  C_16
REMARK    8  A    between atoms: C_14  and  O_17
REMARK    9  A    between atoms: O_17  and  C_18
REMARK   10  A    between atoms: C_18  and  C_20
REMARK   11  A    between atoms: C_20  and  C_22
REMARK   12  A    between atoms: C_20  and  N_23
REMARK   13  A    between atoms: C_24  and  C_26
REMARK   14  A    between atoms: C_32  and  C_36
REMARK                            x       y       z     vdW  Elec       q    Type
REMARK                         _______ _______ _______ _____ _____    ______ ____
ROOT
ATOM      1  N   UNL     1      -3.033  -2.524   2.498  0.00  0.00    -0.276 N 
ATOM      2  C   UNL     1      -3.808  -2.867   3.546  0.00  0.00    +0.258 C 
ATOM      3  O   UNL     1      -4.910  -3.337   3.357  0.00  0.00    -0.271 OA
ATOM      4  H   UNL     1      -2.152  -2.147   2.650  0.00  0.00    +0.155 HD
ENDROOT
BRANCH   1   9
ATOM      5  C   UNL     1      -2.842  -2.416   0.016  0.00  0.00    +0.091 A 
ATOM      6  C   UNL     1      -3.548  -2.714  -1.219  0.00  0.00    -0.021 A 
ATOM      7  C   UNL     1      -4.777  -3.242  -1.039  0.00  0.00    -0.004 A 
ATOM      8  S   UNL     1      -4.974  -3.335   0.716  0.00  0.00    -0.077 S 
ATOM      9  C   UNL     1      -3.495  -2.708   1.205  0.00  0.00    +0.086 A 
ATOM     10  C   UNL     1      -5.745  -3.651  -2.106  0.00  0.00    +0.046 C 
ATOM     11  C   UNL     1      -5.287  -3.033  -3.435  0.00  0.00    -0.009 C 
ATOM     12  C   UNL     1      -3.790  -3.300  -3.616  0.00  0.00    +0.008 C 
ATOM     13  C   UNL     1      -2.988  -2.468  -2.612  0.00  0.00    +0.037 C 
ATOM     14  C   UNL     1      -6.066  -3.666  -4.590  0.00  0.00    +0.008 C 
BRANCH   5  15
ATOM     15  C   UNL     1      -1.497  -1.838   0.006  0.00  0.00    +0.342 C 
ATOM     16  O   UNL     1      -0.523  -2.566  -0.007  0.00  0.00    -0.245 OA
BRANCH  15  17
ATOM     17  O   UNL     1      -1.339  -0.499   0.012  0.00  0.00    -0.461 OA
BRANCH  17  19
ATOM     18  C   UNL     1      -0.019   1.526   0.010  0.00  0.00    +0.048 C 
ATOM     19  C   UNL     1       0.002  -0.004   0.002  0.00  0.00    +0.229 C 
ENDBRANCH  17  19
ENDBRANCH  15  17
ENDBRANCH   5  15
ENDBRANCH   1   9
BRANCH   2  20
ATOM     20  C   UNL     1      -3.306  -2.666   4.953  0.00  0.00    +0.259 C 
ATOM     21  C   UNL     1      -2.099  -3.573   5.198  0.00  0.00    +0.062 C 
BRANCH  20  22
ATOM     22  O   UNL     1      -4.343  -2.993   5.880  0.00  0.00    -0.451 OA
BRANCH  22  23
ATOM     23  C   UNL     1      -4.344  -2.335   7.050  0.00  0.00    +0.328 C 
ATOM     24  O   UNL     1      -3.492  -1.509   7.279  0.00  0.00    -0.249 OA
BRANCH  23  25
ATOM     25  C   UNL     1      -5.407  -2.626   8.078  0.00  0.00    +0.179 C 
ATOM     26  C   UNL     1      -5.335  -4.100   8.482  0.00  0.00    +0.040 C 
BRANCH  25  27
ATOM     27  N   UNL     1      -5.190  -1.785   9.257  0.00  0.00    -0.296 N 
ATOM     28  C   UNL     1      -6.223  -1.480  10.067  0.00  0.00    +0.280 C 
ATOM     29  O   UNL     1      -7.337  -1.903   9.818  0.00  0.00    -0.267 OA
ATOM     30  H   UNL     1      -4.302  -1.448   9.456  0.00  0.00    +0.150 HD
BRANCH  28  31
ATOM     31  C   UNL     1      -6.005  -0.638  11.248  0.00  0.00    +0.189 A 
ATOM     32  C   UNL     1      -6.958  -0.259  12.149  0.00  0.00    +0.054 A 
ATOM     33  C   UNL     1      -6.312   0.536  13.110  0.00  0.00    +0.042 A 
ATOM     34  C   UNL     1      -5.010   0.606  12.756  0.00  0.00    +0.196 A 
ATOM     35  O   UNL     1      -4.828  -0.106  11.636  0.00  0.00    -0.458 OA
ENDBRANCH  28  31
ENDBRANCH  25  27
ENDBRANCH  23  25
ENDBRANCH  22  23
ENDBRANCH  20  22
ENDBRANCH   2  20
TORSDOF 10
