REMARK  Name = ZINC04277893
REMARK  9 active torsions:
REMARK  status: ('A' for Active; 'I' for Inactive)
REMARK    1  A    between atoms: C_1  and  C_2
REMARK    2  A    between atoms: C_2  and  C_3
REMARK    3  A    between atoms: C_2  and  N_4
REMARK    4  A    between atoms: C_11  and  C_14
REMARK    5  A    between atoms: N_16  and  C_17
REMARK    6  A    between atoms: C_17  and  C_19
REMARK    7  A    between atoms: C_17  and  C_26
REMARK    8  A    between atoms: C_19  and  C_20
REMARK    9  A    between atoms: C_29  and  C_31
REMARK                            x       y       z     vdW  Elec       q    Type
REMARK                         _______ _______ _______ _____ _____    ______ ____
ROOT
ATOM      1  N   UNL     1      -2.010   5.192  -3.932  0.00  0.00    -0.297 N 
ATOM      2  C   UNL     1      -1.076   4.704  -3.092  0.00  0.00    +0.303 C 
ATOM      3  O   UNL     1      -0.654   3.573  -3.243  0.00  0.00    -0.253 OA
ATOM      4  N   UNL     1      -0.609   5.468  -2.085  0.00  0.00    -0.282 N 
ATOM      5  C   UNL     1      -1.031   6.869  -1.952  0.00  0.00    +0.128 C 
ATOM      6  C   UNL     1       0.219   7.757  -1.917  0.00  0.00    +0.127 C 
ATOM      7  N   UNL     1       1.159   7.204  -0.932  0.00  0.00    -0.287 N 
ATOM      8  C   UNL     1       1.582   5.803  -1.065  0.00  0.00    +0.179 C 
ATOM      9  C   UNL     1       0.332   4.915  -1.101  0.00  0.00    +0.141 C 
ATOM     10  C   UNL     1       1.626   7.968   0.076  0.00  0.00    +0.219 C 
ATOM     11  O   UNL     1       2.491   7.541   0.811  0.00  0.00    -0.275 OA
ATOM     12  H   UNL     1      -2.294   6.116  -3.856  0.00  0.00    +0.150 HD
ENDROOT
BRANCH  10  13
ATOM     13  C   UNL     1       1.072   9.354   0.289  0.00  0.00    +0.075 C 
ATOM     14  C   UNL     1       1.488  10.254  -0.876  0.00  0.00    +0.013 C 
ATOM     15  C   UNL     1       0.926  11.660  -0.659  0.00  0.00    +0.001 C 
ATOM     16  C   UNL     1       1.475  12.233   0.649  0.00  0.00    +0.000 C 
ATOM     17  C   UNL     1       1.059  11.333   1.814  0.00  0.00    +0.001 C 
ATOM     18  C   UNL     1       1.621   9.926   1.597  0.00  0.00    +0.013 C 
ENDBRANCH  10  13
BRANCH   8  19
ATOM     19  C   UNL     1       2.441   5.419   0.113  0.00  0.00    +0.236 C 
ATOM     20  O   UNL     1       1.981   5.451   1.234  0.00  0.00    -0.274 OA
ATOM     21  N   UNL     1       3.720   5.042  -0.081  0.00  0.00    -0.302 N 
ATOM     22  H   UNL     1       4.088   5.016  -0.978  0.00  0.00    +0.150 HD
BRANCH  21  23
ATOM     23  C   UNL     1       4.555   4.669   1.063  0.00  0.00    +0.159 C 
BRANCH  23  24
ATOM     24  C   UNL     1       5.164   5.909   1.666  0.00  0.00    +0.231 C 
ATOM     25  O   UNL     1       4.925   6.997   1.186  0.00  0.00    -0.274 OA
ATOM     26  N   UNL     1       5.976   5.809   2.737  0.00  0.00    -0.328 N 
ATOM     27  H   UNL     1       6.167   4.939   3.121  0.00  0.00    +0.145 HD
ATOM     28  H   UNL     1       6.368   6.607   3.125  0.00  0.00    +0.145 HD
ENDBRANCH  23  24
BRANCH  23  29
ATOM     29  C   UNL     1       5.668   3.728   0.598  0.00  0.00    +0.035 C 
BRANCH  29  30
ATOM     30  C   UNL     1       5.051   2.441   0.047  0.00  0.00    -0.009 C 
ATOM     31  C   UNL     1       6.154   1.556  -0.538  0.00  0.00    +0.003 C 
ATOM     32  C   UNL     1       5.537   0.269  -1.089  0.00  0.00    +0.000 C 
ATOM     33  C   UNL     1       4.828  -0.480   0.041  0.00  0.00    +0.000 C 
ATOM     34  C   UNL     1       3.725   0.404   0.626  0.00  0.00    +0.000 C 
ATOM     35  C   UNL     1       4.342   1.692   1.177  0.00  0.00    +0.003 C 
ENDBRANCH  29  30
ENDBRANCH  23  29
ENDBRANCH  21  23
ENDBRANCH   8  19
BRANCH   1  37
ATOM     36  C   UNL     1      -3.762   3.538  -4.355  0.00  0.00    +0.027 C 
ATOM     37  C   UNL     1      -2.597   4.327  -4.958  0.00  0.00    +0.068 C 
ATOM     38  C   UNL     1      -3.108   5.184  -6.117  0.00  0.00    +0.027 C 
ENDBRANCH   1  37
TORSDOF 7
