REMARK  Name = ZINC39666464
REMARK  8 active torsions:
REMARK  status: ('A' for Active; 'I' for Inactive)
REMARK    1  A    between atoms: C_1  and  C_2
REMARK    2  A    between atoms: C_2  and  C_4
REMARK    3  A    between atoms: C_2  and  O_29
REMARK    4  A    between atoms: C_4  and  N_5
REMARK    5  A    between atoms: C_6  and  C_8
REMARK    6  A    between atoms: C_19  and  C_21
REMARK    7  A    between atoms: C_21  and  C_22
REMARK    8  A    between atoms: O_29  and  C_30
REMARK                            x       y       z     vdW  Elec       q    Type
REMARK                         _______ _______ _______ _____ _____    ______ ____
ROOT
ATOM      1  C   UNL     1      -1.830  -3.728   0.530  0.00  0.00    +0.100 C 
ATOM      2  C   UNL     1      -1.131  -3.967   1.887  0.00  0.00    +0.121 C 
ATOM      3  N   UNL     1      -2.234  -4.275   2.827  0.00  0.00    -0.300 N 
ATOM      4  C   UNL     1      -3.166  -5.118   2.039  0.00  0.00    +0.115 C 
ATOM      5  C   UNL     1      -3.164  -4.487   0.632  0.00  0.00    -0.004 C 
ATOM      6  C   UNL     1      -3.236  -5.575  -0.434  0.00  0.00    -0.010 C 
ATOM      7  C   UNL     1      -4.593  -6.278  -0.350  0.00  0.00    -0.082 C 
ATOM      8  N   UNL     1      -5.667  -5.297  -0.550  0.00  0.00    +0.379 N 
ATOM      9  C   UNL     1      -5.648  -4.307   0.534  0.00  0.00    -0.082 C 
ATOM     10  C   UNL     1      -4.335  -3.521   0.486  0.00  0.00    -0.010 C 
ATOM     11  C   UNL     1      -2.362  -3.879   4.109  0.00  0.00    +0.220 C 
ATOM     12  O   UNL     1      -3.332  -4.217   4.754  0.00  0.00    -0.275 OA
ATOM     13  H   UNL     1      -5.534  -4.829  -1.434  0.00  0.00    -0.086 HD
ATOM     14  H   UNL     1      -6.558  -5.771  -0.554  0.00  0.00    -0.086 HD
ENDROOT
BRANCH   1  16
ATOM     15  N   UNL     1      -2.133  -1.752  -0.928  0.00  0.00    -0.312 N 
ATOM     16  C   UNL     1      -2.080  -2.256   0.321  0.00  0.00    +0.218 C 
ATOM     17  O   UNL     1      -2.233  -1.525   1.277  0.00  0.00    -0.275 OA
ATOM     18  H   UNL     1      -2.011  -2.337  -1.692  0.00  0.00    +0.149 HD
BRANCH  15  19
ATOM     19  C   UNL     1      -2.375  -0.322  -1.131  0.00  0.00    +0.148 C 
BRANCH  19  21
ATOM     20  C   UNL     1      -2.641   1.480  -2.842  0.00  0.00    +0.053 C 
ATOM     21  C   UNL     1      -2.388  -0.014  -2.630  0.00  0.00    +0.187 C 
BRANCH  21  22
ATOM     22  O   UNL     1      -1.126  -0.369  -3.199  0.00  0.00    -0.486 OA
BRANCH  22  23
ATOM     23  C   UNL     1      -1.109  -0.665  -4.526  0.00  0.00    +0.139 A 
ATOM     24  C   UNL     1      -2.258  -0.510  -5.287  0.00  0.00    +0.047 A 
ATOM     25  C   UNL     1      -2.239  -0.812  -6.635  0.00  0.00    +0.004 A 
ATOM     26  C   UNL     1      -1.075  -1.268  -7.226  0.00  0.00    +0.002 A 
ATOM     27  C   UNL     1       0.072  -1.424  -6.470  0.00  0.00    +0.023 A 
ATOM     28  C   UNL     1       0.060  -1.118  -5.122  0.00  0.00    +0.083 A 
ATOM     29 CL   UNL     1       1.502  -1.306  -4.175  0.00  0.00    -0.080 Cl
ENDBRANCH  22  23
ENDBRANCH  21  22
ENDBRANCH  19  21
ENDBRANCH  15  19
ENDBRANCH   1  16
BRANCH  11  30
ATOM     30  C   UNL     1      -1.300  -3.017   4.740  0.00  0.00    +0.131 C 
BRANCH  30  31
ATOM     31  C   UNL     1      -1.679  -2.716   6.167  0.00  0.00    -0.039 A 
ATOM     32  C   UNL     1      -2.440  -1.600   6.460  0.00  0.00    +0.005 A 
ATOM     33  C   UNL     1      -2.788  -1.324   7.768  0.00  0.00    +0.020 A 
ATOM     34  C   UNL     1      -2.375  -2.165   8.786  0.00  0.00    +0.041 A 
ATOM     35  C   UNL     1      -1.613  -3.282   8.493  0.00  0.00    +0.020 A 
ATOM     36  C   UNL     1      -1.270  -3.560   7.183  0.00  0.00    +0.005 A 
ATOM     37 CL   UNL     1      -2.812  -1.819  10.430  0.00  0.00    -0.084 Cl
ENDBRANCH  30  31
ENDBRANCH  11  30
TORSDOF 7
