REMARK  Name = ZINC61539053
REMARK  5 active torsions:
REMARK  status: ('A' for Active; 'I' for Inactive)
REMARK    1  A    between atoms: C_1  and  C_2
REMARK    2  A    between atoms: C_2  and  C_3
REMARK    3  A    between atoms: C_9  and  N_11
REMARK    4  A    between atoms: N_19  and  C_20
REMARK    5  A    between atoms: N_19  and  C_21
REMARK                            x       y       z     vdW  Elec       q    Type
REMARK                         _______ _______ _______ _____ _____    ______ ____
ROOT
ATOM      1  N   UNL     1       1.622  -2.405  -0.021  0.00  0.00    -0.310 N 
ATOM      2  C   UNL     1       1.457  -3.656   0.535  0.00  0.00    +0.221 A 
ATOM      3  N   UNL     1       2.154  -4.003   1.612  0.00  0.00    -0.181 NA
ATOM      4  C   UNL     1       1.991  -5.209   2.146  0.00  0.00    +0.223 A 
ATOM      5  N   UNL     1       1.131  -6.066   1.600  0.00  0.00    -0.184 NA
ATOM      6  C   UNL     1       0.438  -5.718   0.528  0.00  0.00    +0.229 A 
ATOM      7  N   UNL     1       0.595  -4.516  -0.003  0.00  0.00    -0.184 NA
ATOM      8 CL   UNL     1      -0.682  -6.838  -0.181  0.00  0.00    -0.041 Cl
ATOM      9  N   UNL     1       2.713  -5.573   3.264  0.00  0.00    -0.306 N 
ATOM     10  C   UNL     1       3.660  -4.630   3.864  0.00  0.00    +0.132 C 
ATOM     11  C   UNL     1       2.533  -6.903   3.851  0.00  0.00    +0.132 C 
ATOM     12  H   UNL     1       2.251  -1.779   0.371  0.00  0.00    +0.149 HD
ENDROOT
BRANCH   1  18
ATOM     13  C   UNL     1       0.718  -0.497  -1.257  0.00  0.00    +0.009 C 
ATOM     14  C   UNL     1      -0.089  -0.097  -2.493  0.00  0.00    +0.005 C 
ATOM     15  C   UNL     1       0.627  -0.590  -3.752  0.00  0.00    +0.000 C 
ATOM     16  C   UNL     1       0.758  -2.114  -3.700  0.00  0.00    +0.002 C 
ATOM     17  C   UNL     1       1.565  -2.514  -2.464  0.00  0.00    +0.022 C 
ATOM     18  C   UNL     1       0.849  -2.021  -1.205  0.00  0.00    +0.076 C 
BRANCH  13  20
ATOM     19  C   UNL     1      -0.019   1.526   0.010  0.00  0.00    +0.004 C 
ATOM     20  C   UNL     1       0.002  -0.004   0.002  0.00  0.00    +0.002 C 
ENDBRANCH  13  20
ENDBRANCH   1  18
TORSDOF 2
