REMARK  Name = ZINC43528212
REMARK  6 active torsions:
REMARK  status: ('A' for Active; 'I' for Inactive)
REMARK    1  A    between atoms: C_1  and  C_2
REMARK    2  A    between atoms: C_4  and  C_13
REMARK    3  A    between atoms: C_6  and  C_8
REMARK    4  A    between atoms: C_22  and  C_24
REMARK    5  A    between atoms: C_24  and  N_25
REMARK    6  A    between atoms: N_25  and  C_26
REMARK                            x       y       z     vdW  Elec       q    Type
REMARK                         _______ _______ _______ _____ _____    ______ ____
ROOT
ATOM      1  C   UNL     1      -0.130  -2.677  -2.521  0.00  0.00    +0.024 C 
ATOM      2  C   UNL     1       0.640  -3.997  -2.437  0.00  0.00    -0.069 C 
ATOM      3  N   UNL     1      -0.262  -5.121  -2.700  0.00  0.00    +0.381 N 
ATOM      4  C   UNL     1      -1.330  -5.171  -1.699  0.00  0.00    -0.078 C 
ATOM      5  C   UNL     1      -2.165  -3.890  -1.759  0.00  0.00    -0.015 C 
ATOM      6  C   UNL     1      -1.596  -2.977  -2.857  0.00  0.00    -0.007 C 
ATOM      7  C   UNL     1      -1.642  -3.737  -4.189  0.00  0.00    -0.013 C 
ATOM      8  C   UNL     1      -0.823  -5.026  -4.049  0.00  0.00    -0.086 C 
ATOM      9  H   UNL     1       0.268  -5.977  -2.634  0.00  0.00    -0.082 HD
ENDROOT
BRANCH   1  13
ATOM     10  C   UNL     1       0.141   1.500   0.007  0.00  0.00    +0.088 C 
ATOM     11  C   UNL     1       0.076  -0.005   0.001  0.00  0.00    +0.127 A 
ATOM     12  N   UNL     1       0.007  -0.639  -1.153  0.00  0.00    -0.237 NA
ATOM     13  C   UNL     1      -0.051  -1.960  -1.198  0.00  0.00    +0.047 A 
ATOM     14  C   UNL     1      -0.038  -2.676  -0.011  0.00  0.00    +0.047 A 
ATOM     15  C   UNL     1       0.035  -1.975   1.182  0.00  0.00    +0.048 A 
ATOM     16  N   UNL     1       0.095  -0.653   1.148  0.00  0.00    -0.237 NA
BRANCH  15  17
ATOM     17  C   UNL     1       0.051  -2.707   2.499  0.00  0.00    +0.038 C 
ATOM     18  C   UNL     1       1.472  -3.225   2.797  0.00  0.00    +0.010 C 
ATOM     19  C   UNL     1       1.241  -4.600   3.473  0.00  0.00    +0.001 C 
ATOM     20  C   UNL     1       0.037  -5.170   2.683  0.00  0.00    +0.001 C 
ATOM     21  C   UNL     1      -0.862  -3.943   2.426  0.00  0.00    +0.010 C 
ENDBRANCH  15  17
ENDBRANCH   1  13
BRANCH   8  22
ATOM     22  C   UNL     1      -1.727  -6.233  -4.309  0.00  0.00    -0.098 C 
BRANCH  22  23
ATOM     23  N   UNL     1      -0.971  -7.471  -4.074  0.00  0.00    +0.380 N 
ATOM     24  H   UNL     1      -0.178  -7.504  -4.697  0.00  0.00    -0.086 HD
ATOM     25  H   UNL     1      -0.648  -7.491  -3.118  0.00  0.00    -0.086 HD
BRANCH  23  26
ATOM     26  C   UNL     1      -1.838  -8.630  -4.323  0.00  0.00    -0.068 C 
ATOM     27  C   UNL     1      -2.969  -8.655  -3.290  0.00  0.00    +0.012 C 
ATOM     28  C   UNL     1      -3.821  -9.908  -3.509  0.00  0.00    +0.158 C 
ATOM     29  O   UNL     1      -2.993 -11.069  -3.411  0.00  0.00    -0.380 OA
ATOM     30  C   UNL     1      -1.947 -11.122  -4.384  0.00  0.00    +0.158 C 
ATOM     31  C   UNL     1      -1.019  -9.918  -4.200  0.00  0.00    +0.012 C 
ENDBRANCH  23  26
ENDBRANCH  22  23
ENDBRANCH   8  22
TORSDOF 5
