REMARK  Name = ZINC36587052
REMARK  15 active torsions:
REMARK  status: ('A' for Active; 'I' for Inactive)
REMARK    1  A    between atoms: C_1  and  C_2
REMARK    2  A    between atoms: C_3  and  C_4
REMARK    3  A    between atoms: C_4  and  C_6
REMARK    4  A    between atoms: C_4  and  N_20
REMARK    5  A    between atoms: N_8  and  C_9
REMARK    6  A    between atoms: C_9  and  S_10
REMARK    7  A    between atoms: S_10  and  C_13
REMARK    8  A    between atoms: C_16  and  C_19
REMARK    9  A    between atoms: N_20  and  C_31
REMARK   10  A    between atoms: C_21  and  C_23
REMARK   11  A    between atoms: C_27  and  O_30
REMARK   12  A    between atoms: C_28  and  O_29
REMARK   13  A    between atoms: C_31  and  C_32
REMARK   14  A    between atoms: C_31  and  C_33
REMARK   15  A    between atoms: C_31  and  C_34
REMARK                            x       y       z     vdW  Elec       q    Type
REMARK                         _______ _______ _______ _____ _____    ______ ____
ROOT
ATOM      1  C   UNL     1       0.365  -2.875   1.017  0.00  0.00    +0.186 C 
ENDROOT
BRANCH   1   2
ATOM      2  C   UNL     1       0.454  -4.276   0.467  0.00  0.00    +0.239 C 
ATOM      3  O   UNL     1      -0.558  -4.887   0.198  0.00  0.00    -0.273 OA
ATOM      4  N   UNL     1       1.659  -4.849   0.276  0.00  0.00    -0.294 N 
ATOM      5  H   UNL     1       2.469  -4.360   0.491  0.00  0.00    +0.150 HD
BRANCH   4   6
ATOM      6  C   UNL     1       1.745  -6.210  -0.258  0.00  0.00    +0.278 C 
BRANCH   6   7
ATOM      7  S   UNL     1       1.975  -6.141  -2.056  0.00  0.00    +0.013 S 
ATOM      8  O   UNL     1       2.124  -7.453  -2.581  0.00  0.00    -0.168 OA
ATOM      9  O   UNL     1       1.049  -5.231  -2.633  0.00  0.00    -0.168 OA
BRANCH   7  10
ATOM     10  C   UNL     1       3.550  -5.385  -2.283  0.00  0.00    +0.090 A 
ATOM     11  C   UNL     1       3.647  -4.010  -2.391  0.00  0.00    +0.027 A 
ATOM     12  C   UNL     1       4.883  -3.417  -2.569  0.00  0.00    +0.005 A 
ATOM     13  C   UNL     1       6.021  -4.198  -2.638  0.00  0.00    -0.050 A 
ATOM     14  C   UNL     1       5.924  -5.572  -2.529  0.00  0.00    +0.005 A 
ATOM     15  C   UNL     1       4.689  -6.165  -2.347  0.00  0.00    +0.027 A 
ATOM     16  C   UNL     1       7.368  -3.551  -2.833  0.00  0.00    +0.044 C 
ENDBRANCH   7  10
ENDBRANCH   6   7
ENDBRANCH   4   6
ENDBRANCH   1   2
BRANCH   1  19
ATOM     17  C   UNL     1       1.783   0.149  -0.878  0.00  0.00    +0.035 C 
ATOM     18  C   UNL     1       0.850  -0.789  -0.156  0.00  0.00    -0.032 C 
ATOM     19  C   UNL     1       1.274  -1.968   0.228  0.00  0.00    +0.000 C 
ENDBRANCH   1  19
BRANCH   1  20
ATOM     20  N   UNL     1      -1.015  -2.396   0.911  0.00  0.00    -0.277 N 
ATOM     21  C   UNL     1      -1.725  -2.135   2.026  0.00  0.00    +0.252 C 
ATOM     22  O   UNL     1      -1.157  -2.010   3.094  0.00  0.00    -0.270 OA
BRANCH  21  23
ATOM     23  C   UNL     1      -3.193  -2.003   1.952  0.00  0.00    +0.082 A 
ATOM     24  C   UNL     1      -3.819  -1.806   0.717  0.00  0.00    +0.017 A 
ATOM     25  C   UNL     1      -5.189  -1.683   0.652  0.00  0.00    +0.005 A 
ATOM     26  C   UNL     1      -5.954  -1.753   1.805  0.00  0.00    +0.049 A 
ATOM     27  C   UNL     1      -5.349  -1.947   3.035  0.00  0.00    +0.159 A 
ATOM     28  C   UNL     1      -3.966  -2.079   3.116  0.00  0.00    +0.171 A 
BRANCH  28  29
ATOM     29  O   UNL     1      -3.369  -2.276   4.320  0.00  0.00    -0.503 OA
ATOM     30  H   UNL     1      -3.123  -1.459   4.774  0.00  0.00    +0.292 HD
ENDBRANCH  28  29
BRANCH  27  31
ATOM     31  O   UNL     1      -6.106  -2.015   4.162  0.00  0.00    -0.503 OA
ATOM     32  H   UNL     1      -6.399  -2.909   4.386  0.00  0.00    +0.292 HD
ENDBRANCH  27  31
ENDBRANCH  21  23
BRANCH  20  33
ATOM     33  C   UNL     1      -1.623  -2.199  -0.407  0.00  0.00    +0.030 C 
ATOM     34  C   UNL     1      -0.604  -2.542  -1.496  0.00  0.00    +0.031 C 
ATOM     35  C   UNL     1      -2.844  -3.110  -0.547  0.00  0.00    +0.031 C 
ATOM     36  C   UNL     1      -2.056  -0.739  -0.557  0.00  0.00    +0.031 C 
ENDBRANCH  20  33
ENDBRANCH   1  20
TORSDOF 10
