REMARK  Name = ZINC40863497
REMARK  9 active torsions:
REMARK  status: ('A' for Active; 'I' for Inactive)
REMARK    1  A    between atoms: C_1  and  C_2
REMARK    2  A    between atoms: C_2  and  C_3
REMARK    3  A    between atoms: C_3  and  C_4
REMARK    4  A    between atoms: C_4  and  C_5
REMARK    5  A    between atoms: C_5  and  C_7
REMARK    6  A    between atoms: C_5  and  S_18
REMARK    7  A    between atoms: C_12  and  C_15
REMARK    8  A    between atoms: S_18  and  C_19
REMARK    9  A    between atoms: N_29  and  C_30
REMARK                            x       y       z     vdW  Elec       q    Type
REMARK                         _______ _______ _______ _____ _____    ______ ____
ROOT
ATOM      1  S   UNL     1      -3.502  -2.150   1.768  0.00  0.00    -0.074 S 
ENDROOT
BRANCH   1   2
ATOM      2  C   UNL     1      -5.156  -2.756   1.739  0.00  0.00    +0.177 A 
ATOM      3  N   UNL     1      -5.559  -3.420   0.684  0.00  0.00    -0.223 NA
ATOM      4  C   UNL     1      -6.817  -3.913   0.597  0.00  0.00    +0.079 A 
ATOM      5  C   UNL     1      -7.250  -4.622  -0.527  0.00  0.00    +0.028 A 
ATOM      6  C   UNL     1      -8.528  -5.103  -0.572  0.00  0.00    +0.002 A 
ATOM      7  C   UNL     1      -9.406  -4.899   0.484  0.00  0.00    +0.001 A 
ATOM      8  C   UNL     1      -9.012  -4.210   1.597  0.00  0.00    +0.015 A 
ATOM      9  C   UNL     1      -7.714  -3.707   1.670  0.00  0.00    +0.065 A 
ATOM     10  C   UNL     1      -7.236  -2.960   2.841  0.00  0.00    +0.267 A 
ATOM     11  O   UNL     1      -7.962  -2.751   3.796  0.00  0.00    -0.267 OA
ATOM     12  N   UNL     1      -5.957  -2.517   2.822  0.00  0.00    -0.255 N 
BRANCH  12  13
ATOM     13  C   UNL     1      -5.454  -1.805   3.914  0.00  0.00    +0.056 A 
ATOM     14  C   UNL     1      -5.234  -2.435   5.138  0.00  0.00    +0.046 A 
ATOM     15  C   UNL     1      -4.735  -1.699   6.192  0.00  0.00    +0.114 A 
ATOM     16  N   UNL     1      -4.467  -0.414   6.053  0.00  0.00    -0.243 NA
ATOM     17  C   UNL     1      -4.662   0.219   4.911  0.00  0.00    +0.131 A 
ATOM     18  C   UNL     1      -5.153  -0.450   3.806  0.00  0.00    +0.066 A 
ATOM     19 CL   UNL     1      -4.289   1.911   4.794  0.00  0.00    -0.062 Cl
ENDBRANCH  12  13
ENDBRANCH   1   2
BRANCH   1  20
ATOM     20  C   UNL     1      -2.760  -2.824   0.256  0.00  0.00    +0.140 C 
BRANCH  20  21
ATOM     21  C   UNL     1      -2.633  -4.320   0.383  0.00  0.00    +0.229 C 
ATOM     22  O   UNL     1      -2.653  -4.839   1.478  0.00  0.00    -0.274 OA
ATOM     23  N   UNL     1      -2.497  -5.081  -0.722  0.00  0.00    -0.301 N 
ATOM     24  C   UNL     1      -2.466  -4.465  -2.055  0.00  0.00    +0.108 C 
ATOM     25  C   UNL     1      -3.526  -5.137  -2.934  0.00  0.00    +0.032 C 
ATOM     26  C   UNL     1      -3.298  -6.650  -2.934  0.00  0.00    +0.078 C 
ATOM     27  C   UNL     1      -3.439  -7.190  -1.509  0.00  0.00    +0.032 C 
ATOM     28  C   UNL     1      -2.372  -6.540  -0.614  0.00  0.00    +0.108 C 
BRANCH  26  29
ATOM     29  C   UNL     1      -4.318  -7.312  -3.824  0.00  0.00    +0.214 C 
ATOM     30  O   UNL     1      -5.146  -6.639  -4.402  0.00  0.00    -0.276 OA
ATOM     31  N   UNL     1      -4.311  -8.650  -3.979  0.00  0.00    -0.329 N 
ATOM     32  H   UNL     1      -3.648  -9.188  -3.518  0.00  0.00    +0.145 HD
ATOM     33  H   UNL     1      -4.967  -9.076  -4.552  0.00  0.00    +0.145 HD
ENDBRANCH  26  29
ENDBRANCH  20  21
BRANCH  20  34
ATOM     34  C   UNL     1      -1.375  -2.209   0.049  0.00  0.00    +0.024 C 
BRANCH  34  35
ATOM     35  C   UNL     1      -1.516  -0.708  -0.209  0.00  0.00    +0.001 C 
BRANCH  35  37
ATOM     36  C   UNL     1      -0.267   1.428  -0.560  0.00  0.00    +0.004 C 
ATOM     37  C   UNL     1      -0.126  -0.074  -0.302  0.00  0.00    -0.003 C 
ENDBRANCH  35  37
ENDBRANCH  34  35
ENDBRANCH  20  34
ENDBRANCH   1  20
TORSDOF 8
