REMARK  Name = ZINC40935873
REMARK  10 active torsions:
REMARK  status: ('A' for Active; 'I' for Inactive)
REMARK    1  A    between atoms: C_1  and  C_2
REMARK    2  A    between atoms: C_3  and  C_11
REMARK    3  A    between atoms: C_7  and  N_8
REMARK    4  A    between atoms: C_11  and  O_13
REMARK    5  A    between atoms: O_13  and  C_14
REMARK    6  A    between atoms: C_17  and  C_20
REMARK    7  A    between atoms: C_21  and  C_22
REMARK    8  A    between atoms: C_21  and  C_24
REMARK    9  A    between atoms: N_26  and  C_27
REMARK   10  A    between atoms: C_27  and  C_28
REMARK                            x       y       z     vdW  Elec       q    Type
REMARK                         _______ _______ _______ _____ _____    ______ ____
ROOT
ATOM      1  C   UNL     1      -0.210  -0.555  -5.444  0.00  0.00    +0.132 A 
ATOM      2  C   UNL     1       0.001   0.802  -5.665  0.00  0.00    +0.047 A 
ATOM      3  C   UNL     1       0.093   1.285  -6.944  0.00  0.00    +0.011 A 
ATOM      4  C   UNL     1      -0.025   0.408  -8.032  0.00  0.00    -0.023 A 
ATOM      5  C   UNL     1      -0.237  -0.959  -7.803  0.00  0.00    +0.011 A 
ATOM      6  C   UNL     1      -0.323  -1.431  -6.518  0.00  0.00    +0.047 A 
ENDROOT
BRANCH   4   7
ATOM      7  C   UNL     1       0.072   0.918  -9.402  0.00  0.00    +0.032 C 
ATOM      8  C   UNL     1       0.862   2.013  -9.675  0.00  0.00    +0.114 C 
BRANCH   8   9
ATOM      9  C   UNL     1       0.824   2.633 -11.008  0.00  0.00    +0.255 C 
ATOM     10  O   UNL     1       0.096   2.178 -11.870  0.00  0.00    -0.269 OA
ATOM     11  N   UNL     1       1.597   3.705 -11.275  0.00  0.00    -0.304 N 
ATOM     12  H   UNL     1       2.178   4.067 -10.588  0.00  0.00    +0.149 HD
BRANCH  11  13
ATOM     13  C   UNL     1       1.560   4.322 -12.604  0.00  0.00    +0.179 C 
BRANCH  13  14
ATOM     14  C   UNL     1       2.508   5.492 -12.640  0.00  0.00    +0.122 A 
ATOM     15  C   UNL     1       3.805   5.443 -12.995  0.00  0.00    +0.046 A 
ATOM     16  C   UNL     1       4.309   6.760 -12.886  0.00  0.00    +0.041 A 
ATOM     17  C   UNL     1       3.291   7.534 -12.472  0.00  0.00    +0.195 A 
ATOM     18  O   UNL     1       2.201   6.763 -12.331  0.00  0.00    -0.466 OA
ENDBRANCH  13  14
ENDBRANCH  11  13
ENDBRANCH   8   9
BRANCH   8  19
ATOM     19  C   UNL     1       1.719   2.548  -8.660  0.00  0.00    +0.104 C 
ATOM     20  N   UNL     1       2.400   2.973  -7.855  0.00  0.00    -0.191 NA
ENDBRANCH   8  19
ENDBRANCH   4   7
BRANCH   1  21
ATOM     21  O   UNL     1      -0.300  -1.027  -4.175  0.00  0.00    -0.422 OA
BRANCH  21  22
ATOM     22  C   UNL     1      -1.444  -0.804  -3.497  0.00  0.00    +0.345 C 
ATOM     23  O   UNL     1      -2.318  -0.119  -3.989  0.00  0.00    -0.245 OA
BRANCH  22  26
ATOM     24  C   UNL     1      -4.006  -0.554  -2.175  0.00  0.00    +0.047 C 
ATOM     25  C   UNL     1      -2.865  -1.277  -1.507  0.00  0.00    -0.006 A 
ATOM     26  C   UNL     1      -1.633  -1.391  -2.155  0.00  0.00    +0.064 A 
ATOM     27  C   UNL     1      -0.581  -2.063  -1.528  0.00  0.00    +0.015 A 
ATOM     28  C   UNL     1      -0.765  -2.610  -0.275  0.00  0.00    +0.003 A 
ATOM     29  C   UNL     1      -1.988  -2.493   0.361  0.00  0.00    +0.033 A 
ATOM     30  C   UNL     1      -3.033  -1.824  -0.252  0.00  0.00    +0.130 A 
BRANCH  30  31
ATOM     31  N   UNL     1      -4.336  -1.699   0.439  0.00  0.00    +0.057 N 
ATOM     32  O   UNL     1      -4.471  -2.134   1.559  0.00  0.00    -0.126 OA
ATOM     33  O   UNL     1      -5.266  -1.162  -0.116  0.00  0.00    -0.126 OA
ENDBRANCH  30  31
ENDBRANCH  22  26
ENDBRANCH  21  22
ENDBRANCH   1  21
TORSDOF 9
