REMARK  Name = ZINC08774006
REMARK  14 active torsions:
REMARK  status: ('A' for Active; 'I' for Inactive)
REMARK    1  A    between atoms: C_1  and  C_2
REMARK    2  A    between atoms: C_9  and  N_17
REMARK    3  A    between atoms: C_10  and  C_11
REMARK    4  A    between atoms: C_11  and  O_13
REMARK    5  A    between atoms: O_13  and  C_14
REMARK    6  A    between atoms: C_14  and  C_15
REMARK    7  A    between atoms: C_14  and  C_16
REMARK    8  A    between atoms: C_18  and  C_20
REMARK    9  A    between atoms: C_20  and  O_21
REMARK   10  A    between atoms: O_21  and  C_22
REMARK   11  A    between atoms: C_22  and  C_24
REMARK   12  A    between atoms: C_24  and  N_32
REMARK   13  A    between atoms: C_25  and  C_26
REMARK   14  A    between atoms: C_33  and  C_35
REMARK                            x       y       z     vdW  Elec       q    Type
REMARK                         _______ _______ _______ _____ _____    ______ ____
ROOT
ATOM      1  N   UNL     1       4.807  -0.086   6.265  0.00  0.00    -0.277 N 
ATOM      2  C   UNL     1       5.908   0.225   5.553  0.00  0.00    +0.255 C 
ATOM      3  O   UNL     1       5.828   0.394   4.355  0.00  0.00    -0.272 OA
ATOM      4  H   UNL     1       4.871  -0.221   7.224  0.00  0.00    +0.155 HD
ENDROOT
BRANCH   1  12
ATOM      5  C   UNL     1      -1.885  -0.803   2.278  0.00  0.00    +0.008 C 
ATOM      6  C   UNL     1      -0.776  -1.048   3.303  0.00  0.00    -0.009 C 
ATOM      7  C   UNL     1      -1.191  -0.471   4.660  0.00  0.00    +0.008 C 
ATOM      8  C   UNL     1      -0.209  -0.926   5.741  0.00  0.00    +0.037 C 
ATOM      9  C   UNL     1       1.208  -0.597   5.286  0.00  0.00    -0.021 A 
ATOM     10  C   UNL     1       1.481  -0.349   3.987  0.00  0.00    -0.004 A 
ATOM     11  S   UNL     1       3.220  -0.023   3.944  0.00  0.00    -0.077 S 
ATOM     12  C   UNL     1       3.583  -0.213   5.628  0.00  0.00    +0.086 A 
ATOM     13  C   UNL     1       2.349  -0.525   6.183  0.00  0.00    +0.091 A 
ATOM     14  C   UNL     1       0.513  -0.352   2.844  0.00  0.00    +0.046 C 
BRANCH  13  15
ATOM     15  C   UNL     1       2.202  -0.770   7.620  0.00  0.00    +0.342 C 
ATOM     16  O   UNL     1       1.954   0.152   8.372  0.00  0.00    -0.245 OA
BRANCH  15  17
ATOM     17  O   UNL     1       2.343  -2.020   8.108  0.00  0.00    -0.458 OA
BRANCH  17  18
ATOM     18  C   UNL     1       2.185  -2.189   9.541  0.00  0.00    +0.171 C 
ATOM     19  C   UNL     1       1.639  -3.589   9.832  0.00  0.00    +0.052 C 
ATOM     20  C   UNL     1       3.541  -2.018  10.228  0.00  0.00    +0.052 C 
ENDBRANCH  17  18
ENDBRANCH  15  17
ENDBRANCH  13  15
ENDBRANCH   1  12
BRANCH   2  21
ATOM     21  C   UNL     1       7.239   0.364   6.246  0.00  0.00    +0.328 C 
BRANCH  21  22
ATOM     22  O   UNL     1       8.260   0.701   5.271  0.00  0.00    -0.451 OA
BRANCH  22  23
ATOM     23  C   UNL     1       9.518   0.861   5.731  0.00  0.00    +0.354 C 
ATOM     24  O   UNL     1       9.754   0.723   6.915  0.00  0.00    -0.244 OA
BRANCH  23  25
ATOM     25  C   UNL     1      10.602   1.202   4.801  0.00  0.00    +0.119 C 
ATOM     26  C   UNL     1      11.839   1.477   5.276  0.00  0.00    +0.038 C 
BRANCH  26  27
ATOM     27  C   UNL     1      12.965   1.642   4.343  0.00  0.00    -0.023 A 
ATOM     28  C   UNL     1      12.888   1.118   3.048  0.00  0.00    +0.008 A 
ATOM     29  C   UNL     1      13.945   1.282   2.179  0.00  0.00    +0.001 A 
ATOM     30  C   UNL     1      15.085   1.953   2.587  0.00  0.00    +0.000 A 
ATOM     31  C   UNL     1      15.171   2.470   3.869  0.00  0.00    +0.001 A 
ATOM     32  C   UNL     1      14.120   2.319   4.748  0.00  0.00    +0.008 A 
ENDBRANCH  26  27
BRANCH  25  33
ATOM     33  N   UNL     1      10.356   1.244   3.424  0.00  0.00    -0.280 N 
ATOM     34  C   UNL     1       9.845   0.165   2.798  0.00  0.00    +0.214 C 
ATOM     35  O   UNL     1       9.512  -0.808   3.441  0.00  0.00    -0.276 OA
ATOM     36  C   UNL     1       9.688   0.168   1.299  0.00  0.00    +0.109 C 
ATOM     37  H   UNL     1      10.553   2.049   2.920  0.00  0.00    +0.155 HD
ENDBRANCH  25  33
ENDBRANCH  23  25
ENDBRANCH  22  23
ENDBRANCH  21  22
ENDBRANCH   2  21
TORSDOF 10
