REMARK  Name = ZINC66764003
REMARK  6 active torsions:
REMARK  status: ('A' for Active; 'I' for Inactive)
REMARK    1  A    between atoms: C_1  and  C_2
REMARK    2  A    between atoms: C_3  and  C_13
REMARK    3  A    between atoms: C_4  and  C_12
REMARK    4  A    between atoms: C_13  and  C_14
REMARK    5  A    between atoms: C_14  and  C_15
REMARK    6  A    between atoms: C_21  and  C_25
REMARK                            x       y       z     vdW  Elec       q    Type
REMARK                         _______ _______ _______ _____ _____    ______ ____
ROOT
ATOM      1  C   UNL     1      -2.898   0.362   1.456  0.00  0.00    +0.101 C 
ENDROOT
BRANCH   1   2
ATOM      2  C   UNL     1      -4.217   1.092   1.466  0.00  0.00    +0.216 C 
ATOM      3  O   UNL     1      -4.797   1.312   0.424  0.00  0.00    -0.276 OA
ATOM      4  N   UNL     1      -4.751   1.501   2.634  0.00  0.00    -0.301 N 
ATOM      5  C   UNL     1      -4.017   1.223   3.884  0.00  0.00    +0.108 C 
ATOM      6  C   UNL     1      -4.951   0.752   5.014  0.00  0.00    +0.020 C 
ATOM      7  C   UNL     1      -5.990  -0.195   4.466  0.00  0.00    +0.010 C 
ATOM      8  C   UNL     1      -7.232   0.594   4.064  0.00  0.00    +0.021 C 
ATOM      9  C   UNL     1      -7.175   1.167   2.711  0.00  0.00    +0.027 C 
ATOM     10  C   UNL     1      -6.017   2.199   2.611  0.00  0.00    +0.108 C 
BRANCH   8  11
ATOM     11  C   UNL     1      -8.426  -0.322   4.142  0.00  0.00    -0.044 A 
ATOM     12  C   UNL     1      -8.470  -1.468   3.369  0.00  0.00    +0.004 A 
ATOM     13  C   UNL     1      -9.566  -2.308   3.441  0.00  0.00    +0.000 A 
ATOM     14  C   UNL     1     -10.617  -2.003   4.285  0.00  0.00    +0.000 A 
ATOM     15  C   UNL     1     -10.573  -0.858   5.058  0.00  0.00    +0.000 A 
ATOM     16  C   UNL     1      -9.475  -0.020   4.990  0.00  0.00    +0.004 A 
ENDBRANCH   8  11
ENDBRANCH   1   2
BRANCH   1  17
ATOM     17  C   UNL     1      -2.520   0.013   0.015  0.00  0.00    +0.048 C 
BRANCH  17  20
ATOM     18  C   UNL     1      -0.018   1.503   0.010  0.00  0.00    +0.066 C 
ATOM     19  C   UNL     1       0.002  -0.004   0.002  0.00  0.00    +0.047 A 
ATOM     20  C   UNL     1      -1.202  -0.717   0.004  0.00  0.00    -0.005 A 
ATOM     21  C   UNL     1      -1.169  -2.075  -0.004  0.00  0.00    +0.048 A 
ATOM     22  N   UNL     1       0.035  -2.706  -0.013  0.00  0.00    -0.199 N 
ATOM     23  C   UNL     1       1.192  -1.980  -0.014  0.00  0.00    +0.255 A 
ATOM     24  N   UNL     1       1.151  -0.643  -0.012  0.00  0.00    -0.216 NA
ATOM     25  N   UNL     1       2.202  -2.844  -0.023  0.00  0.00    -0.176 NA
ATOM     26  C   UNL     1       1.728  -4.088  -0.027  0.00  0.00    +0.234 A 
ATOM     27  N   UNL     1       0.411  -4.055  -0.021  0.00  0.00    -0.128 NA
ATOM     28  N   UNL     1       2.504  -5.244  -0.036  0.00  0.00    -0.326 N 
ATOM     29  C   UNL     1      -2.449  -2.871  -0.001  0.00  0.00    +0.066 C 
ATOM     30  H   UNL     1       3.471  -5.179  -0.040  0.00  0.00    +0.145 HD
ATOM     31  H   UNL     1       2.076  -6.115  -0.039  0.00  0.00    +0.145 HD
ENDBRANCH  17  20
ENDBRANCH   1  17
TORSDOF 4
