REMARK  Name = ZINC37222429
REMARK  4 active torsions:
REMARK  status: ('A' for Active; 'I' for Inactive)
REMARK    1  A    between atoms: C_6  and  N_7
REMARK    2  A    between atoms: C_13  and  C_14
REMARK    3  A    between atoms: C_14  and  C_16
REMARK    4  A    between atoms: C_16  and  C_17
REMARK                            x       y       z     vdW  Elec       q    Type
REMARK                         _______ _______ _______ _____ _____    ______ ____
ROOT
ATOM      1  C   UNL     1      -0.017   1.383   0.010  0.00  0.00    +0.033 A 
ATOM      2  C   UNL     1       1.164   2.094   0.002  0.00  0.00    +0.013 A 
ATOM      3  C   UNL     1       2.378   1.413  -0.013  0.00  0.00    +0.010 A 
ATOM      4  C   UNL     1       2.400   0.009  -0.021  0.00  0.00    +0.049 A 
ATOM      5  C   UNL     1       1.197  -0.690  -0.013  0.00  0.00    +0.059 A 
ATOM      6  C   UNL     1       0.002  -0.004   0.002  0.00  0.00    +0.128 A 
ATOM      7  N   UNL     1       3.721  -0.389  -0.035  0.00  0.00    -0.360 N 
ATOM      8  H   UNL     1       4.019  -1.312  -0.043  0.00  0.00    +0.165 HD
ATOM      9  C   UNL     1       4.540   0.680  -0.037  0.00  0.00    +0.095 A 
ATOM     10  C   UNL     1       3.792   1.838  -0.024  0.00  0.00    +0.042 A 
ENDROOT
BRANCH   6  11
ATOM     11  N   UNL     1      -1.274  -0.754   0.010  0.00  0.00    +0.056 N 
ATOM     12  O   UNL     1      -2.326  -0.158   0.023  0.00  0.00    -0.126 OA
ATOM     13  O   UNL     1      -1.264  -1.963   0.004  0.00  0.00    -0.126 OA
ENDBRANCH   6  11
BRANCH  10  14
ATOM     14  C   UNL     1       4.281   3.168  -0.021  0.00  0.00    +0.165 C 
ATOM     15  O   UNL     1       3.503   4.100  -0.009  0.00  0.00    -0.292 OA
BRANCH  14  16
ATOM     16  C   UNL     1       5.766   3.425  -0.034  0.00  0.00    +0.083 C 
BRANCH  16  17
ATOM     17  C   UNL     1       6.022   4.933  -0.028  0.00  0.00    -0.004 C 
ATOM     18  C   UNL     1       5.494   5.545  -1.327  0.00  0.00    +0.004 C 
ATOM     19  C   UNL     1       5.751   7.054  -1.321  0.00  0.00    +0.000 C 
ATOM     20  C   UNL     1       7.255   7.315  -1.208  0.00  0.00    +0.000 C 
ATOM     21  C   UNL     1       7.782   6.702   0.091  0.00  0.00    +0.000 C 
ATOM     22  C   UNL     1       7.526   5.194   0.085  0.00  0.00    +0.004 C 
ENDBRANCH  16  17
ENDBRANCH  14  16
ENDBRANCH  10  14
TORSDOF 4
