REMARK  Name = ZINC00827338
REMARK  7 active torsions:
REMARK  status: ('A' for Active; 'I' for Inactive)
REMARK    1  A    between atoms: C_1  and  O_2
REMARK    2  A    between atoms: O_2  and  C_3
REMARK    3  A    between atoms: C_3  and  C_5
REMARK    4  A    between atoms: C_8  and  C_11
REMARK    5  A    between atoms: C_14  and  C_16
REMARK    6  A    between atoms: N_17  and  N_18
REMARK    7  A    between atoms: C_19  and  C_21
REMARK                            x       y       z     vdW  Elec       q    Type
REMARK                         _______ _______ _______ _____ _____    ______ ____
ROOT
ATOM      1  C   UNL     1      10.544  -2.648   5.097  0.00  0.00    +0.136 A 
ATOM      2  C   UNL     1      10.351  -3.958   5.426  0.00  0.00    +0.050 A 
ATOM      3  C   UNL     1       9.059  -4.301   5.010  0.00  0.00    +0.051 A 
ATOM      4  C   UNL     1       8.513  -3.171   4.437  0.00  0.00    +0.148 A 
ATOM      5  O   UNL     1       9.431  -2.186   4.495  0.00  0.00    -0.454 OA
ENDROOT
BRANCH   1   9
ATOM      6  C   UNL     1      14.068  -0.410   5.827  0.00  0.00    +0.059 A 
ATOM      7  C   UNL     1      12.975   0.193   5.196  0.00  0.00    +0.015 A 
ATOM      8  C   UNL     1      11.839  -0.527   4.961  0.00  0.00    +0.012 A 
ATOM      9  C   UNL     1      11.770  -1.870   5.351  0.00  0.00    +0.017 A 
ATOM     10  C   UNL     1      12.861  -2.471   5.987  0.00  0.00    +0.012 A 
ATOM     11  C   UNL     1      13.998  -1.752   6.218  0.00  0.00    +0.015 A 
BRANCH   6  12
ATOM     12  C   UNL     1      15.294   0.369   6.082  0.00  0.00    +0.339 C 
ATOM     13  O   UNL     1      15.354   1.534   5.744  0.00  0.00    -0.245 OA
BRANCH  12  15
ATOM     14  C   UNL     1      17.521   0.615   6.908  0.00  0.00    +0.280 C 
ATOM     15  O   UNL     1      16.347  -0.212   6.690  0.00  0.00    -0.464 OA
ENDBRANCH  12  15
ENDBRANCH   6  12
ENDBRANCH   1   9
BRANCH   4  16
ATOM     16  C   UNL     1       7.172  -3.063   3.860  0.00  0.00    +0.176 C 
ATOM     17  N   UNL     1       6.773  -1.935   3.347  0.00  0.00    -0.184 NA
BRANCH  17  18
ATOM     18  N   UNL     1       5.489  -1.832   2.795  0.00  0.00    -0.203 N 
ATOM     19  C   UNL     1       5.076  -0.664   2.264  0.00  0.00    +0.263 C 
ATOM     20  O   UNL     1       5.817   0.300   2.264  0.00  0.00    -0.268 OA
ATOM     21  H   UNL     1       4.898  -2.601   2.795  0.00  0.00    +0.178 HD
BRANCH  19  22
ATOM     22  C   UNL     1       3.724  -0.555   1.683  0.00  0.00    +0.042 A 
ATOM     23  C   UNL     1       2.871  -1.662   1.682  0.00  0.00    +0.017 A 
ATOM     24  C   UNL     1       1.609  -1.558   1.138  0.00  0.00    +0.050 A 
ATOM     25  C   UNL     1       1.181  -0.356   0.590  0.00  0.00    +0.166 A 
ATOM     26  C   UNL     1       2.028   0.752   0.588  0.00  0.00    +0.167 A 
ATOM     27  C   UNL     1       3.294   0.655   1.131  0.00  0.00    +0.062 A 
ATOM     28  O   UNL     1       1.376   1.797  -0.001  0.00  0.00    -0.453 OA
ATOM     29  C   UNL     1      -0.017   1.435   0.010  0.00  0.00    +0.466 C 
ATOM     30  O   UNL     1       0.002  -0.004   0.002  0.00  0.00    -0.453 OA
ENDBRANCH  19  22
ENDBRANCH  17  18
ENDBRANCH   4  16
TORSDOF 6
