REMARK  Name = ZINC39965033
REMARK  11 active torsions:
REMARK  status: ('A' for Active; 'I' for Inactive)
REMARK    1  A    between atoms: C_1  and  C_2
REMARK    2  A    between atoms: C_3  and  C_32
REMARK    3  A    between atoms: C_5  and  N_10
REMARK    4  A    between atoms: C_6  and  C_7
REMARK    5  A    between atoms: C_11  and  C_13
REMARK    6  A    between atoms: C_13  and  N_14
REMARK    7  A    between atoms: N_17  and  S_20
REMARK    8  A    between atoms: S_20  and  C_23
REMARK    9  A    between atoms: C_26  and  C_29
REMARK   10  A    between atoms: C_29  and  C_30
REMARK   11  A    between atoms: C_29  and  C_31
REMARK                            x       y       z     vdW  Elec       q    Type
REMARK                         _______ _______ _______ _____ _____    ______ ____
ROOT
ATOM      1  N   UNL     1       0.105  -6.807   2.246  0.00  0.00    -0.291 NA
ATOM      2  C   UNL     1       1.355  -7.037   1.509  0.00  0.00    +0.102 C 
ATOM      3  C   UNL     1       1.259  -8.363   0.748  0.00  0.00    +0.125 C 
ATOM      4  N   UNL     1       0.893  -9.424   1.699  0.00  0.00    -0.174 NA
ATOM      5  C   UNL     1      -0.271  -9.205   2.571  0.00  0.00    +0.125 C 
ATOM      6  C   UNL     1      -0.114  -7.846   3.261  0.00  0.00    +0.102 C 
ENDROOT
BRANCH   4   7
ATOM      7  S   UNL     1       1.769 -10.826   1.787  0.00  0.00    +0.061 S 
ATOM      8  O   UNL     1       0.902 -11.813   2.328  0.00  0.00    -0.153 OA
ATOM      9  O   UNL     1       2.411 -10.983   0.529  0.00  0.00    -0.153 OA
BRANCH   7  10
ATOM     10  C   UNL     1       3.045 -10.570   2.975  0.00  0.00    +0.105 A 
ATOM     11  C   UNL     1       4.269 -10.066   2.577  0.00  0.00    +0.029 A 
ATOM     12  C   UNL     1       5.270  -9.865   3.509  0.00  0.00    +0.006 A 
ATOM     13  C   UNL     1       5.047 -10.169   4.839  0.00  0.00    -0.045 A 
ATOM     14  C   UNL     1       3.822 -10.673   5.237  0.00  0.00    +0.006 A 
ATOM     15  C   UNL     1       2.820 -10.869   4.306  0.00  0.00    +0.029 A 
BRANCH  13  16
ATOM     16  C   UNL     1       6.138  -9.951   5.855  0.00  0.00    +0.013 C 
ATOM     17  C   UNL     1       5.657  -8.958   6.915  0.00  0.00    +0.012 C 
ATOM     18  C   UNL     1       6.486 -11.283   6.524  0.00  0.00    +0.012 C 
ENDBRANCH  13  16
ENDBRANCH   7  10
ENDBRANCH   4   7
BRANCH   1  19
ATOM     19  C   UNL     1       0.089  -5.468   2.850  0.00  0.00    +0.180 C 
BRANCH  19  21
ATOM     20  N   UNL     1       0.054  -3.117   2.083  0.00  0.00    -0.278 N 
ATOM     21  C   UNL     1       0.070  -4.426   1.762  0.00  0.00    +0.232 C 
ATOM     22  O   UNL     1       0.070  -4.765   0.597  0.00  0.00    -0.274 OA
ATOM     23  H   UNL     1       0.054  -2.846   3.014  0.00  0.00    +0.155 HD
BRANCH  20  28
ATOM     24  C   UNL     1      -0.018   1.503   0.010  0.00  0.00    +0.045 C 
ATOM     25  C   UNL     1       0.002  -0.004   0.002  0.00  0.00    -0.027 A 
ATOM     26  C   UNL     1       0.006  -0.713  -1.142  0.00  0.00    -0.008 A 
ATOM     27  S   UNL     1       0.032  -2.400  -0.579  0.00  0.00    -0.078 S 
ATOM     28  C   UNL     1       0.036  -2.158   1.081  0.00  0.00    +0.084 A 
ATOM     29  C   UNL     1       0.024  -0.778   1.222  0.00  0.00    +0.068 A 
ATOM     30  C   UNL     1      -0.007  -0.200  -2.559  0.00  0.00    +0.052 C 
BRANCH  29  31
ATOM     31  C   UNL     1       0.028  -0.138   2.541  0.00  0.00    +0.244 C 
ATOM     32  O   UNL     1      -1.024   0.114   3.099  0.00  0.00    -0.270 OA
ATOM     33  N   UNL     1       1.197   0.172   3.136  0.00  0.00    -0.325 N 
ATOM     34  H   UNL     1       2.035  -0.028   2.692  0.00  0.00    +0.145 HD
ATOM     35  H   UNL     1       1.199   0.596   4.009  0.00  0.00    +0.145 HD
ENDBRANCH  29  31
ENDBRANCH  20  28
ENDBRANCH  19  21
ENDBRANCH   1  19
TORSDOF 7
