REMARK  Name = ZINC04341304
REMARK  6 active torsions:
REMARK  status: ('A' for Active; 'I' for Inactive)
REMARK    1  A    between atoms: C_1  and  C_2
REMARK    2  A    between atoms: C_2  and  C_26
REMARK    3  A    between atoms: C_13  and  C_15
REMARK    4  A    between atoms: C_15  and  O_16
REMARK    5  A    between atoms: O_16  and  C_17
REMARK    6  A    between atoms: C_22  and  C_23
REMARK                            x       y       z     vdW  Elec       q    Type
REMARK                         _______ _______ _______ _____ _____    ______ ____
ROOT
ATOM      1  C   UNL     1       5.007   1.123  -0.177  0.00  0.00    +0.042 C 
ATOM      2  C   UNL     1       3.762   1.978  -0.423  0.00  0.00    +0.113 C 
ATOM      3  C   UNL     1       4.004   3.377   0.085  0.00  0.00    +0.241 C 
ATOM      4  O   UNL     1       5.126   3.838   0.060  0.00  0.00    -0.273 OA
ATOM      5  N   UNL     1       2.990   4.121   0.565  0.00  0.00    -0.282 N 
ATOM      6  C   UNL     1       1.696   3.595   0.651  0.00  0.00    +0.055 A 
ATOM      7  C   UNL     1       0.607   4.425   0.867  0.00  0.00    +0.025 A 
ATOM      8  C   UNL     1      -0.663   3.885   0.956  0.00  0.00    +0.002 A 
ATOM      9  C   UNL     1      -0.853   2.521   0.825  0.00  0.00    +0.002 A 
ATOM     10  C   UNL     1       0.228   1.685   0.612  0.00  0.00    +0.025 A 
ATOM     11  C   UNL     1       1.501   2.219   0.522  0.00  0.00    +0.059 A 
ATOM     12  N   UNL     1       2.617   1.399   0.295  0.00  0.00    -0.253 N 
ATOM     13  C   UNL     1       2.639   0.121   0.723  0.00  0.00    +0.258 C 
ATOM     14  O   UNL     1       3.564  -0.604   0.422  0.00  0.00    -0.271 OA
ATOM     15  C   UNL     1       3.458   2.021  -1.921  0.00  0.00    +0.042 C 
ATOM     16  H   UNL     1       3.158   5.031   0.855  0.00  0.00    +0.155 HD
ENDROOT
BRANCH  13  17
ATOM     17  C   UNL     1       1.514  -0.408   1.576  0.00  0.00    +0.325 C 
BRANCH  17  18
ATOM     18  O   UNL     1       1.953  -1.576   2.272  0.00  0.00    -0.482 OA
BRANCH  18  19
ATOM     19  C   UNL     1       1.054  -2.179   3.089  0.00  0.00    +0.133 A 
ATOM     20  C   UNL     1      -0.224  -1.658   3.225  0.00  0.00    +0.046 A 
ATOM     21  C   UNL     1      -1.140  -2.277   4.052  0.00  0.00    +0.004 A 
ATOM     22  C   UNL     1      -0.788  -3.414   4.761  0.00  0.00    +0.001 A 
ATOM     23  C   UNL     1       0.479  -3.942   4.643  0.00  0.00    +0.017 A 
ATOM     24  C   UNL     1       1.414  -3.329   3.805  0.00  0.00    +0.078 A 
BRANCH  24  25
ATOM     25  C   UNL     1       2.773  -3.889   3.674  0.00  0.00    +0.245 C 
ATOM     26  O   UNL     1       3.584  -3.353   2.943  0.00  0.00    -0.270 OA
ATOM     27  N   UNL     1       3.115  -4.996   4.363  0.00  0.00    -0.325 N 
ATOM     28  H   UNL     1       2.468  -5.423   4.946  0.00  0.00    +0.145 HD
ATOM     29  H   UNL     1       4.008  -5.364   4.277  0.00  0.00    +0.145 HD
ENDBRANCH  24  25
ENDBRANCH  18  19
ENDBRANCH  17  18
ENDBRANCH  13  17
TORSDOF 4
