REMARK  Name = ZINC21275786
REMARK  13 active torsions:
REMARK  status: ('A' for Active; 'I' for Inactive)
REMARK    1  A    between atoms: C_1  and  C_2
REMARK    2  A    between atoms: C_7  and  S_8
REMARK    3  A    between atoms: S_8  and  N_11
REMARK    4  A    between atoms: N_11  and  C_12
REMARK    5  A    between atoms: C_15  and  C_18
REMARK    6  A    between atoms: C_18  and  O_20
REMARK    7  A    between atoms: O_20  and  C_21
REMARK    8  A    between atoms: C_21  and  C_23
REMARK    9  A    between atoms: C_21  and  C_24
REMARK   10  A    between atoms: N_26  and  C_27
REMARK   11  A    between atoms: N_31  and  C_32
REMARK   12  A    between atoms: C_32  and  C_33
REMARK   13  A    between atoms: C_32  and  C_34
REMARK                            x       y       z     vdW  Elec       q    Type
REMARK                         _______ _______ _______ _____ _____    ______ ____
ROOT
ATOM      1  C   UNL     1     -10.027   4.650  -1.020  0.00  0.00    +0.048 A 
ATOM      2  C   UNL     1      -9.504   5.875  -1.424  0.00  0.00    +0.025 A 
ATOM      3  C   UNL     1      -8.167   6.137  -1.268  0.00  0.00    +0.017 A 
ATOM      4  C   UNL     1      -7.329   5.172  -0.701  0.00  0.00    +0.059 A 
ATOM      5  C   UNL     1      -7.857   3.940  -0.301  0.00  0.00    +0.017 A 
ATOM      6  C   UNL     1      -9.195   3.687  -0.455  0.00  0.00    +0.025 A 
ENDROOT
BRANCH   1   7
ATOM      7  N   UNL     1     -11.383   4.389  -1.179  0.00  0.00    -0.216 N 
ATOM      8  H   UNL     1     -12.127   5.142  -0.881  0.00  0.00    +0.174 HD
BRANCH   7   9
ATOM      9  S   UNL     1     -11.878   2.943  -1.818  0.00  0.00    +0.073 S 
ATOM     10  O   UNL     1     -11.241   1.924  -1.059  0.00  0.00    -0.150 OA
ATOM     11  O   UNL     1     -13.290   3.022  -1.954  0.00  0.00    -0.150 OA
BRANCH   9  18
ATOM     12  C   UNL     1     -12.607   4.831  -4.065  0.00  0.00    +0.049 C 
ATOM     13  C   UNL     1     -11.614   3.752  -4.411  0.00  0.00    +0.011 A 
ATOM     14  C   UNL     1     -11.092   3.675  -5.691  0.00  0.00    +0.128 A 
ATOM     15  C   UNL     1     -10.183   2.680  -6.009  0.00  0.00    +0.039 A 
ATOM     16  C   UNL     1      -9.795   1.767  -5.047  0.00  0.00    +0.005 A 
ATOM     17  C   UNL     1     -10.312   1.848  -3.768  0.00  0.00    +0.029 A 
ATOM     18  C   UNL     1     -11.219   2.842  -3.449  0.00  0.00    +0.114 A 
ATOM     19  F   UNL     1     -11.473   4.568  -6.631  0.00  0.00    -0.205 F 
ENDBRANCH   9  18
ENDBRANCH   7   9
ENDBRANCH   1   7
BRANCH   4  20
ATOM     20  C   UNL     1      -5.891   5.449  -0.531  0.00  0.00    +0.340 C 
ATOM     21  O   UNL     1      -5.433   6.518  -0.884  0.00  0.00    -0.245 OA
BRANCH  20  22
ATOM     22  O   UNL     1      -5.085   4.518   0.015  0.00  0.00    -0.449 OA
BRANCH  22  23
ATOM     23  C   UNL     1      -3.681   4.860   0.151  0.00  0.00    +0.259 C 
ATOM     24  C   UNL     1      -3.447   5.524   1.510  0.00  0.00    +0.062 C 
BRANCH  23  25
ATOM     25  C   UNL     1      -2.847   3.608   0.054  0.00  0.00    +0.259 C 
ATOM     26  O   UNL     1      -3.387   2.525  -0.023  0.00  0.00    -0.271 OA
ATOM     27  N   UNL     1      -1.502   3.693   0.052  0.00  0.00    -0.268 N 
ATOM     28  H   UNL     1      -1.013   4.676   0.121  0.00  0.00    +0.156 HD
BRANCH  27  29
ATOM     29  C   UNL     1      -0.731   2.534  -0.038  0.00  0.00    +0.123 A 
ATOM     30  C   UNL     1      -1.200   1.261  -0.136  0.00  0.00    +0.065 A 
ATOM     31  C   UNL     1      -0.100   0.402  -0.201  0.00  0.00    +0.136 A 
ATOM     32  N   UNL     1       0.990   1.126  -0.154  0.00  0.00    -0.178 NA
ATOM     33  N   UNL     1       0.621   2.473  -0.051  0.00  0.00    -0.248 N 
BRANCH  33  34
ATOM     34  C   UNL     1       1.536   3.614   0.029  0.00  0.00    +0.103 C 
ATOM     35  C   UNL     1       2.425   3.469   1.266  0.00  0.00    +0.032 C 
ATOM     36  C   UNL     1       2.411   3.655  -1.226  0.00  0.00    +0.032 C 
ENDBRANCH  33  34
ENDBRANCH  27  29
ENDBRANCH  23  25
ENDBRANCH  22  23
ENDBRANCH  20  22
ENDBRANCH   4  20
TORSDOF 9
