REMARK  Name = ZINC63527223
REMARK  5 active torsions:
REMARK  status: ('A' for Active; 'I' for Inactive)
REMARK    1  A    between atoms: C_10  and  S_12
REMARK    2  A    between atoms: S_12  and  C_13
REMARK    3  A    between atoms: C_13  and  C_14
REMARK    4  A    between atoms: N_16  and  C_17
REMARK    5  A    between atoms: C_19  and  C_28
REMARK                            x       y       z     vdW  Elec       q    Type
REMARK                         _______ _______ _______ _____ _____    ______ ____
ROOT
ATOM      1  C   UNL     1       5.786  -0.991   5.254  0.00  0.00    +0.224 C 
ATOM      2  O   UNL     1       5.600  -2.103   5.701  0.00  0.00    -0.275 OA
ATOM      3  N   UNL     1       6.657  -0.159   5.859  0.00  0.00    -0.302 N 
ATOM      4  H   UNL     1       6.806   0.730   5.502  0.00  0.00    +0.150 HD
ENDROOT
BRANCH   3   5
ATOM      5  C   UNL     1       7.378  -0.598   7.056  0.00  0.00    +0.151 C 
ATOM      6  C   UNL     1       8.898  -0.330   6.934  0.00  0.00    +0.132 C 
ATOM      7  C   UNL     1       9.709  -1.444   7.546  0.00  0.00    -0.046 C 
ATOM      8  C   UNL     1       9.107  -2.611   7.737  0.00  0.00    -0.013 C 
ATOM      9  S   UNL     1       7.426  -2.435   7.182  0.00  0.00    -0.106 S 
ATOM     10  C   UNL     1       9.714  -3.859   8.314  0.00  0.00    +0.042 C 
ATOM     11  C   UNL     1      11.240  -3.708   8.321  0.00  0.00    +0.005 C 
ATOM     12  C   UNL     1      11.589  -2.338   8.912  0.00  0.00    +0.005 C 
ATOM     13  C   UNL     1      11.173  -1.240   7.934  0.00  0.00    +0.032 C 
BRANCH   6  14
ATOM     14  C   UNL     1       9.228   0.961   7.638  0.00  0.00    +0.220 C 
ATOM     15  O   UNL     1       8.641   1.264   8.655  0.00  0.00    -0.275 OA
ATOM     16  N   UNL     1      10.175   1.778   7.138  0.00  0.00    -0.329 N 
ATOM     17  H   UNL     1      10.645   1.536   6.324  0.00  0.00    +0.145 HD
ATOM     18  H   UNL     1      10.388   2.609   7.591  0.00  0.00    +0.145 HD
ENDBRANCH   6  14
ENDBRANCH   3   5
BRANCH   1  19
ATOM     19  C   UNL     1       5.044  -0.540   4.023  0.00  0.00    +0.173 C 
BRANCH  19  20
ATOM     20  S   UNL     1       3.957  -1.874   3.450  0.00  0.00    -0.078 S 
BRANCH  20  30
ATOM     21  C   UNL     1       1.446   1.942  -1.444  0.00  0.00    +0.005 C 
ATOM     22  C   UNL     1       2.918   2.315  -1.230  0.00  0.00    +0.006 C 
ATOM     23  C   UNL     1       3.291   1.994   0.216  0.00  0.00    +0.056 C 
ATOM     24  C   UNL     1       2.894   0.584   0.566  0.00  0.00    +0.052 A 
ATOM     25  C   UNL     1       1.994  -0.126  -0.164  0.00  0.00    +0.038 A 
ATOM     26  C   UNL     1       1.673  -1.440   0.240  0.00  0.00    +0.255 A 
ATOM     27  O   UNL     1       0.866  -2.101  -0.392  0.00  0.00    -0.267 OA
ATOM     28  N   UNL     1       2.271  -1.954   1.334  0.00  0.00    -0.302 N 
ATOM     29  H   UNL     1       2.061  -2.855   1.627  0.00  0.00    +0.171 HD
ATOM     30  C   UNL     1       3.170  -1.200   2.024  0.00  0.00    +0.170 A 
ATOM     31  N   UNL     1       3.461   0.025   1.641  0.00  0.00    -0.228 NA
ATOM     32  C   UNL     1       1.325   0.420  -1.395  0.00  0.00    +0.042 C 
ENDBRANCH  20  30
ENDBRANCH  19  20
ENDBRANCH   1  19
TORSDOF 5
