REMARK  Name = ZINC13113046
REMARK  7 active torsions:
REMARK  status: ('A' for Active; 'I' for Inactive)
REMARK    1  A    between atoms: C_4  and  C_7
REMARK    2  A    between atoms: C_7  and  C_9
REMARK    3  A    between atoms: C_7  and  S_20
REMARK    4  A    between atoms: N_11  and  C_12
REMARK    5  A    between atoms: S_20  and  C_21
REMARK    6  A    between atoms: C_24  and  C_27
REMARK    7  A    between atoms: N_25  and  N_26
REMARK                            x       y       z     vdW  Elec       q    Type
REMARK                         _______ _______ _______ _____ _____    ______ ____
ROOT
ATOM      1  C   UNL     1       0.055  -1.969   3.575  0.00  0.00    +0.170 C 
ENDROOT
BRANCH   1   5
ATOM      2  C   UNL     1       3.707  -3.968   2.617  0.00  0.00    +0.000 A 
ATOM      3  C   UNL     1       2.496  -4.532   2.260  0.00  0.00    +0.000 A 
ATOM      4  C   UNL     1       1.315  -3.885   2.570  0.00  0.00    +0.005 A 
ATOM      5  C   UNL     1       1.344  -2.674   3.237  0.00  0.00    -0.025 A 
ATOM      6  C   UNL     1       2.554  -2.108   3.589  0.00  0.00    +0.005 A 
ATOM      7  C   UNL     1       3.736  -2.757   3.283  0.00  0.00    +0.000 A 
ENDBRANCH   1   5
BRANCH   1   8
ATOM      8  C   UNL     1      -0.048  -1.800   5.069  0.00  0.00    +0.235 C 
ATOM      9  O   UNL     1       0.231  -0.736   5.580  0.00  0.00    -0.274 OA
ATOM     10  N   UNL     1      -0.450  -2.832   5.838  0.00  0.00    -0.284 N 
ATOM     11  H   UNL     1      -0.738  -3.661   5.425  0.00  0.00    +0.155 HD
BRANCH  10  12
ATOM     12  C   UNL     1      -0.454  -2.707   7.231  0.00  0.00    +0.036 A 
ATOM     13  C   UNL     1      -0.150  -3.802   8.029  0.00  0.00    +0.043 A 
ATOM     14  C   UNL     1      -0.149  -3.674   9.405  0.00  0.00    +0.044 A 
ATOM     15  C   UNL     1      -0.461  -2.458   9.989  0.00  0.00    +0.040 A 
ATOM     16  C   UNL     1      -0.770  -1.367   9.196  0.00  0.00    +0.044 A 
ATOM     17  C   UNL     1      -0.767  -1.488   7.819  0.00  0.00    +0.043 A 
ATOM     18 CL   UNL     1      -1.161   0.156   9.932  0.00  0.00    -0.083 Cl
ATOM     19 CL   UNL     1       0.238  -5.041  10.403  0.00  0.00    -0.083 Cl
ENDBRANCH  10  12
ENDBRANCH   1   8
BRANCH   1  20
ATOM     20  S   UNL     1       0.032  -0.343   2.781  0.00  0.00    -0.067 S 
BRANCH  20  21
ATOM     21  C   UNL     1       0.011  -0.829   1.088  0.00  0.00    +0.210 A 
ATOM     22  N   UNL     1       0.014  -2.061   0.631  0.00  0.00    -0.120 NA
ATOM     23  N   UNL     1      -0.005  -2.057  -0.654  0.00  0.00    -0.123 NA
ATOM     24  C   UNL     1      -0.026  -0.820  -1.098  0.00  0.00    +0.217 A 
ATOM     25  N   UNL     1      -0.011   0.005   0.005  0.00  0.00    -0.221 N 
BRANCH  24  26
ATOM     26  C   UNL     1      -0.057  -0.396  -2.507  0.00  0.00    +0.173 A 
ATOM     27  C   UNL     1       0.220  -1.182  -3.585  0.00  0.00    +0.053 A 
ATOM     28  C   UNL     1       0.066  -0.372  -4.727  0.00  0.00    +0.042 A 
ATOM     29  C   UNL     1      -0.285   0.856  -4.297  0.00  0.00    +0.196 A 
ATOM     30  O   UNL     1      -0.358   0.839  -2.955  0.00  0.00    -0.460 OA
ENDBRANCH  24  26
BRANCH  25  31
ATOM     31  N   UNL     1      -0.023   1.371   0.016  0.00  0.00    -0.294 N 
ATOM     32  H   UNL     1       0.916   1.740   0.005  0.00  0.00    +0.163 HD
ATOM     33  H   UNL     1      -0.563   1.734  -0.755  0.00  0.00    +0.163 HD
ENDBRANCH  25  31
ENDBRANCH  20  21
ENDBRANCH   1  20
TORSDOF 7
