REMARK  Name = ZINC35829485
REMARK  7 active torsions:
REMARK  status: ('A' for Active; 'I' for Inactive)
REMARK    1  A    between atoms: C_1  and  C_2
REMARK    2  A    between atoms: C_2  and  C_3
REMARK    3  A    between atoms: C_4  and  C_18
REMARK    4  A    between atoms: N_6  and  C_8
REMARK    5  A    between atoms: C_11  and  N_14
REMARK    6  A    between atoms: N_22  and  C_26
REMARK    7  A    between atoms: C_26  and  C_27
REMARK                            x       y       z     vdW  Elec       q    Type
REMARK                         _______ _______ _______ _____ _____    ______ ____
ROOT
ATOM      1  C   UNL     1       0.731  -0.503   1.223  0.00  0.00    +0.074 A 
ATOM      2  C   UNL     1       2.121  -0.756   1.314  0.00  0.00    +0.066 A 
ATOM      3  C   UNL     1       2.369  -1.201   2.611  0.00  0.00    +0.281 A 
ATOM      4  N   UNL     1       1.185  -1.212   3.260  0.00  0.00    -0.196 N 
ATOM      5  N   UNL     1       0.191  -0.771   2.379  0.00  0.00    -0.168 NA
ATOM      6  O   UNL     1       3.571  -1.556   3.124  0.00  0.00    -0.265 OA
ENDROOT
BRANCH   2   7
ATOM      7  C   UNL     1       3.110  -0.584   0.248  0.00  0.00    +0.043 C 
ATOM      8  C   UNL     1       4.254   0.113   0.488  0.00  0.00    +0.099 C 
ATOM      9  C   UNL     1       5.304   0.375  -0.432  0.00  0.00    +0.269 C 
ATOM     10  O   UNL     1       5.355   0.016  -1.595  0.00  0.00    -0.268 OA
ATOM     11  N   UNL     1       6.234   1.096   0.225  0.00  0.00    -0.216 N 
ATOM     12  C   UNL     1       5.835   1.302   1.491  0.00  0.00    +0.313 C 
ATOM     13  O   UNL     1       6.462   1.921   2.329  0.00  0.00    -0.252 OA
ATOM     14  N   UNL     1       4.634   0.727   1.692  0.00  0.00    -0.265 N 
ATOM     15  H   UNL     1       4.126   0.733   2.519  0.00  0.00    +0.157 HD
BRANCH  11  16
ATOM     16  C   UNL     1       7.489   1.581  -0.354  0.00  0.00    +0.153 C 
BRANCH  16  17
ATOM     17  C   UNL     1       7.271   2.947  -0.952  0.00  0.00    -0.027 A 
ATOM     18  C   UNL     1       6.878   3.069  -2.272  0.00  0.00    +0.005 A 
ATOM     19  C   UNL     1       6.678   4.321  -2.822  0.00  0.00    +0.003 A 
ATOM     20  C   UNL     1       6.871   5.453  -2.054  0.00  0.00    +0.038 A 
ATOM     21  C   UNL     1       7.265   5.333  -0.732  0.00  0.00    +0.124 A 
ATOM     22  C   UNL     1       7.459   4.077  -0.180  0.00  0.00    +0.043 A 
ATOM     23  F   UNL     1       7.454   6.439   0.021  0.00  0.00    -0.205 F 
ENDBRANCH  16  17
ENDBRANCH  11  16
ENDBRANCH   2   7
BRANCH   4  24
ATOM     24  C   UNL     1       0.985  -1.596   4.593  0.00  0.00    +0.069 A 
ATOM     25  C   UNL     1       1.747  -2.618   5.144  0.00  0.00    +0.030 A 
ATOM     26  C   UNL     1       1.548  -2.994   6.458  0.00  0.00    +0.035 A 
ATOM     27  C   UNL     1       0.590  -2.355   7.224  0.00  0.00    +0.126 A 
ATOM     28  C   UNL     1      -0.171  -1.338   6.678  0.00  0.00    +0.035 A 
ATOM     29  C   UNL     1       0.028  -0.953   5.367  0.00  0.00    +0.030 A 
BRANCH  27  30
ATOM     30  N   UNL     1       0.379  -2.761   8.632  0.00  0.00    +0.056 N 
ATOM     31  O   UNL     1       1.044  -3.651   9.111  0.00  0.00    -0.126 OA
ATOM     32  O   UNL     1      -0.458  -2.204   9.303  0.00  0.00    -0.126 OA
ENDBRANCH  27  30
ENDBRANCH   4  24
BRANCH   1  34
ATOM     33  C   UNL     1      -0.019   1.526   0.010  0.00  0.00    +0.010 C 
ATOM     34  C   UNL     1       0.002  -0.004   0.002  0.00  0.00    +0.054 C 
ENDBRANCH   1  34
TORSDOF 6
