REMARK  Name = ZINC04565576
REMARK  7 active torsions:
REMARK  status: ('A' for Active; 'I' for Inactive)
REMARK    1  A    between atoms: C_1  and  C_2
REMARK    2  A    between atoms: N_4  and  C_5
REMARK    3  A    between atoms: C_7  and  N_35
REMARK    4  A    between atoms: C_15  and  C_18
REMARK    5  A    between atoms: C_25  and  O_27
REMARK    6  A    between atoms: O_27  and  C_28
REMARK    7  A    between atoms: C_28  and  C_29
REMARK                            x       y       z     vdW  Elec       q    Type
REMARK                         _______ _______ _______ _____ _____    ______ ____
ROOT
ATOM      1  C   UNL     1       1.482  -2.508   0.225  0.00  0.00    +0.159 C 
ATOM      2  C   UNL     1       0.690  -2.089  -1.018  0.00  0.00    +0.199 C 
ATOM      3  C   UNL     1       0.684  -0.564  -1.123  0.00  0.00    +0.182 C 
ATOM      4  C   UNL     1       2.126  -0.044  -1.142  0.00  0.00    +0.178 C 
ATOM      5  C   UNL     1       2.092   1.490  -1.127  0.00  0.00    +0.197 C 
ATOM      6  O   UNL     1       1.323   1.923  -0.000  0.00  0.00    -0.345 OA
ATOM      7  C   UNL     1      -0.017   1.426   0.010  0.00  0.00    +0.282 C 
ATOM      8  O   UNL     1       0.002  -0.004   0.002  0.00  0.00    -0.339 OA
ATOM      9  O   UNL     1       2.815  -0.505   0.022  0.00  0.00    -0.341 OA
ATOM     10  C   UNL     1       2.895  -1.927   0.134  0.00  0.00    +0.273 C 
ENDROOT
BRANCH   7  11
ATOM     11  C   UNL     1      -0.723   1.911   1.250  0.00  0.00    +0.008 A 
ATOM     12  C   UNL     1      -1.233   1.001   2.156  0.00  0.00    +0.008 A 
ATOM     13  C   UNL     1      -1.876   1.446   3.296  0.00  0.00    +0.000 A 
ATOM     14  C   UNL     1      -2.019   2.802   3.524  0.00  0.00    +0.000 A 
ATOM     15  C   UNL     1      -1.514   3.713   2.614  0.00  0.00    +0.000 A 
ATOM     16  C   UNL     1      -0.866   3.267   1.477  0.00  0.00    +0.008 A 
ENDBRANCH   7  11
BRANCH   1  20
ATOM     17  C   UNL     1       1.819  -6.086   1.542  0.00  0.00    +0.109 C 
ATOM     18  C   UNL     1       1.743  -4.582   1.476  0.00  0.00    +0.210 C 
ATOM     19  O   UNL     1       1.851  -3.924   2.488  0.00  0.00    -0.276 OA
ATOM     20  N   UNL     1       1.556  -3.969   0.290  0.00  0.00    -0.306 N 
ATOM     21  H   UNL     1       1.469  -4.496  -0.520  0.00  0.00    +0.149 HD
ENDBRANCH   1  20
BRANCH   2  22
ATOM     22  N   UNL     1      -0.687  -2.577  -0.907  0.00  0.00    -0.102 NA
ATOM     23  N   UNL     1      -0.894  -3.682  -0.905  0.00  0.00    -0.167 NA
ATOM     24  N   UNL     1      -1.100  -4.787  -0.902  0.00  0.00    +0.068 NA
ENDBRANCH   2  22
BRANCH  10  25
ATOM     25  O   UNL     1       3.557  -2.459  -1.014  0.00  0.00    -0.345 OA
BRANCH  25  26
ATOM     26  C   UNL     1       4.953  -2.157  -1.073  0.00  0.00    +0.198 C 
BRANCH  26  27
ATOM     27  C   UNL     1       5.546  -2.765  -2.318  0.00  0.00    -0.022 A 
ATOM     28  C   UNL     1       6.066  -4.045  -2.283  0.00  0.00    +0.006 A 
ATOM     29  C   UNL     1       6.606  -4.604  -3.426  0.00  0.00    +0.000 A 
ATOM     30  C   UNL     1       6.635  -3.879  -4.602  0.00  0.00    +0.000 A 
ATOM     31  C   UNL     1       6.120  -2.597  -4.637  0.00  0.00    +0.000 A 
ATOM     32  C   UNL     1       5.575  -2.040  -3.495  0.00  0.00    +0.006 A 
ENDBRANCH  26  27
ENDBRANCH  25  26
ENDBRANCH  10  25
TORSDOF 6
