REMARK  Name = ZINC66177108
REMARK  8 active torsions:
REMARK  status: ('A' for Active; 'I' for Inactive)
REMARK    1  A    between atoms: C_1  and  C_2
REMARK    2  A    between atoms: C_2  and  C_3
REMARK    3  A    between atoms: C_2  and  C_4
REMARK    4  A    between atoms: C_4  and  N_5
REMARK    5  A    between atoms: C_8  and  N_11
REMARK    6  A    between atoms: N_14  and  C_15
REMARK    7  A    between atoms: N_14  and  C_16
REMARK    8  A    between atoms: N_19  and  C_22
REMARK                            x       y       z     vdW  Elec       q    Type
REMARK                         _______ _______ _______ _____ _____    ______ ____
ROOT
ATOM      1  N   UNL     1      -2.106  -0.237   6.102  0.00  0.00    -0.297 N 
ATOM      2  C   UNL     1      -1.938  -0.818   7.307  0.00  0.00    +0.302 C 
ATOM      3  O   UNL     1      -1.168  -1.751   7.429  0.00  0.00    -0.253 OA
ATOM      4  N   UNL     1      -2.624  -0.365   8.375  0.00  0.00    -0.286 N 
ATOM      5  C   UNL     1      -3.551   0.759   8.228  0.00  0.00    +0.134 C 
ATOM      6  H   UNL     1      -2.721   0.507   6.005  0.00  0.00    +0.151 HD
ENDROOT
BRANCH   1  10
ATOM      7  N   UNL     1      -0.010  -0.139   2.447  0.00  0.00    +0.380 N 
ATOM      8  C   UNL     1      -1.305  -0.831   2.447  0.00  0.00    -0.077 C 
ATOM      9  C   UNL     1      -2.126  -0.386   3.659  0.00  0.00    +0.004 C 
ATOM     10  C   UNL     1      -1.361  -0.729   4.941  0.00  0.00    +0.071 C 
ATOM     11  C   UNL     1       0.016  -0.062   4.896  0.00  0.00    +0.004 C 
ATOM     12  C   UNL     1       0.758  -0.520   3.639  0.00  0.00    -0.077 C 
ATOM     13  H   UNL     1      -0.165   0.858   2.452  0.00  0.00    -0.082 HD
BRANCH   7  14
ATOM     14  C   UNL     1       0.742  -0.511   1.242  0.00  0.00    -0.076 C 
BRANCH  14  16
ATOM     15  C   UNL     1      -0.019   1.526   0.010  0.00  0.00    +0.005 C 
ATOM     16  C   UNL     1       0.002  -0.004   0.002  0.00  0.00    -0.034 C 
ATOM     17  C   UNL     1       0.718  -0.497  -1.257  0.00  0.00    +0.005 C 
ENDBRANCH  14  16
ENDBRANCH   7  14
ENDBRANCH   1  10
BRANCH   4  18
ATOM     18  C   UNL     1      -2.441  -0.997   9.684  0.00  0.00    +0.074 C 
ATOM     19  C   UNL     1      -3.781  -1.549  10.178  0.00  0.00    +0.004 C 
ATOM     20  C   UNL     1      -3.600  -2.136  11.579  0.00  0.00    -0.077 C 
ATOM     21  N   UNL     1      -3.131  -1.089  12.496  0.00  0.00    +0.382 N 
ATOM     22  C   UNL     1      -1.813  -0.606  12.069  0.00  0.00    -0.077 C 
ATOM     23  C   UNL     1      -1.926   0.040  10.686  0.00  0.00    +0.004 C 
ATOM     24  H   UNL     1      -3.787  -0.322  12.492  0.00  0.00    -0.081 HD
BRANCH  21  25
ATOM     25  C   UNL     1      -3.033  -1.639  13.855  0.00  0.00    -0.064 C 
ATOM     26  C   UNL     1      -4.412  -2.125  14.312  0.00  0.00    +0.013 C 
ATOM     27  C   UNL     1      -4.316  -2.623  15.757  0.00  0.00    +0.158 C 
ATOM     28  O   UNL     1      -3.826  -1.570  16.590  0.00  0.00    -0.380 OA
ATOM     29  C   UNL     1      -2.521  -1.107  16.239  0.00  0.00    +0.158 C 
ATOM     30  C   UNL     1      -2.545  -0.549  14.814  0.00  0.00    +0.013 C 
ENDBRANCH  21  25
ENDBRANCH   4  18
TORSDOF 5
