REMARK  Name = ZINC19942307
REMARK  7 active torsions:
REMARK  status: ('A' for Active; 'I' for Inactive)
REMARK    1  A    between atoms: C_4  and  C_7
REMARK    2  A    between atoms: C_7  and  N_8
REMARK    3  A    between atoms: C_14  and  N_19
REMARK    4  A    between atoms: C_15  and  C_16
REMARK    5  A    between atoms: C_20  and  C_22
REMARK    6  A    between atoms: C_23  and  C_24
REMARK    7  A    between atoms: C_27  and  N_30
REMARK                            x       y       z     vdW  Elec       q    Type
REMARK                         _______ _______ _______ _____ _____    ______ ____
ROOT
ATOM      1  N   UNL     1       1.854   8.829  -1.117  0.00  0.00    -0.293 NA
ATOM      2  C   UNL     1       3.017   9.641  -1.500  0.00  0.00    +0.090 C 
ATOM      3  C   UNL     1       3.801   8.944  -2.616  0.00  0.00    +0.052 C 
ATOM      4  C   UNL     1       2.824   8.583  -3.729  0.00  0.00    -0.021 A 
ATOM      5  C   UNL     1       1.495   8.558  -3.482  0.00  0.00    +0.010 A 
ATOM      6  S   UNL     1       0.759   8.101  -5.024  0.00  0.00    -0.076 S 
ATOM      7  C   UNL     1       2.194   7.944  -5.984  0.00  0.00    +0.085 A 
ATOM      8  C   UNL     1       3.210   8.250  -5.087  0.00  0.00    +0.068 A 
ATOM      9  C   UNL     1       0.827   8.855  -2.176  0.00  0.00    +0.127 C 
ENDROOT
BRANCH   8  10
ATOM     10  C   UNL     1       4.617   8.236  -5.497  0.00  0.00    +0.244 C 
ATOM     11  O   UNL     1       5.269   7.213  -5.399  0.00  0.00    -0.270 OA
ATOM     12  N   UNL     1       5.188   9.355  -5.984  0.00  0.00    -0.325 N 
ATOM     13  H   UNL     1       6.244   9.345  -6.292  0.00  0.00    +0.145 HD
ATOM     14  H   UNL     1       4.598  10.280  -6.073  0.00  0.00    +0.145 HD
ENDBRANCH   8  10
BRANCH   7  15
ATOM     15  N   UNL     1       2.301   7.598  -7.320  0.00  0.00    -0.276 N 
ATOM     16  C   UNL     1       1.192   7.333  -8.039  0.00  0.00    +0.241 C 
ATOM     17  O   UNL     1       0.097   7.398  -7.514  0.00  0.00    -0.270 OA
ATOM     18  H   UNL     1       3.292   7.538  -7.795  0.00  0.00    +0.156 HD
BRANCH  16  19
ATOM     19  C   UNL     1       1.306   6.967  -9.452  0.00  0.00    +0.068 C 
ATOM     20  C   UNL     1       0.214   6.569 -10.135  0.00  0.00    +0.013 C 
BRANCH  20  21
ATOM     21  C   UNL     1      -1.036   6.271  -9.417  0.00  0.00    -0.025 A 
ATOM     22  C   UNL     1      -1.006   5.525  -8.235  0.00  0.00    +0.010 A 
ATOM     23  C   UNL     1      -2.181   5.255  -7.565  0.00  0.00    +0.033 A 
ATOM     24  C   UNL     1      -3.388   5.711  -8.065  0.00  0.00    +0.126 A 
ATOM     25  C   UNL     1      -3.426   6.446  -9.237  0.00  0.00    +0.033 A 
ATOM     26  C   UNL     1      -2.260   6.729  -9.916  0.00  0.00    +0.010 A 
BRANCH  24  27
ATOM     27  N   UNL     1      -4.645   5.412  -7.342  0.00  0.00    +0.056 N 
ATOM     28  O   UNL     1      -5.709   5.812  -7.780  0.00  0.00    -0.126 OA
ATOM     29  O   UNL     1      -4.615   4.766  -6.310  0.00  0.00    -0.126 OA
ENDBRANCH  24  27
ENDBRANCH  20  21
ENDBRANCH  16  19
ENDBRANCH   7  15
BRANCH   1  30
ATOM     30  C   UNL     1       1.298   9.277   0.166  0.00  0.00    +0.120 C 
BRANCH  30  34
ATOM     31  C   UNL     1      -2.449   7.340   0.844  0.00  0.00    +0.000 A 
ATOM     32  C   UNL     1      -1.278   6.759   1.296  0.00  0.00    +0.000 A 
ATOM     33  C   UNL     1      -0.066   7.385   1.075  0.00  0.00    +0.005 A 
ATOM     34  C   UNL     1      -0.024   8.595   0.407  0.00  0.00    -0.033 A 
ATOM     35  C   UNL     1      -1.194   9.178  -0.040  0.00  0.00    +0.005 A 
ATOM     36  C   UNL     1      -2.407   8.552   0.181  0.00  0.00    +0.000 A 
ENDBRANCH  30  34
ENDBRANCH   1  30
TORSDOF 7
