REMARK  Name = ZINC48570319
REMARK  6 active torsions:
REMARK  status: ('A' for Active; 'I' for Inactive)
REMARK    1  A    between atoms: C_1  and  C_2
REMARK    2  A    between atoms: C_5  and  N_24
REMARK    3  A    between atoms: C_7  and  N_8
REMARK    4  A    between atoms: C_9  and  C_11
REMARK    5  A    between atoms: N_13  and  C_14
REMARK    6  A    between atoms: C_25  and  C_27
REMARK                            x       y       z     vdW  Elec       q    Type
REMARK                         _______ _______ _______ _____ _____    ______ ____
ROOT
ATOM      1  N   UNL     1       0.433  -0.242   2.356  0.00  0.00    -0.277 N 
ATOM      2  C   UNL     1       0.822  -0.946   3.437  0.00  0.00    +0.303 C 
ATOM      3  O   UNL     1       1.081  -2.127   3.331  0.00  0.00    -0.265 OA
ATOM      4  H   UNL     1       0.287   0.715   2.426  0.00  0.00    +0.155 HD
ENDROOT
BRANCH   1  11
ATOM      5  C   UNL     1      -1.450   0.866   0.535  0.00  0.00    +0.045 C 
ATOM      6  C   UNL     1      -0.670  -0.383   0.213  0.00  0.00    -0.029 A 
ATOM      7  C   UNL     1      -0.857  -1.020  -0.999  0.00  0.00    +0.007 A 
ATOM      8  C   UNL     1      -0.144  -2.165  -1.298  0.00  0.00    +0.024 A 
ATOM      9  C   UNL     1       0.764  -2.679  -0.381  0.00  0.00    +0.035 A 
ATOM     10  C   UNL     1       0.955  -2.042   0.837  0.00  0.00    +0.047 A 
ATOM     11  C   UNL     1       0.240  -0.889   1.133  0.00  0.00    +0.038 A 
BRANCH   9  12
ATOM     12  N   UNL     1       1.486  -3.839  -0.685  0.00  0.00    -0.285 N 
ATOM     13  C   UNL     1       1.897  -4.065  -1.948  0.00  0.00    +0.220 C 
ATOM     14  O   UNL     1       1.572  -3.306  -2.837  0.00  0.00    -0.275 OA
ATOM     15  H   UNL     1       1.690  -4.480   0.014  0.00  0.00    +0.155 HD
BRANCH  13  16
ATOM     16  C   UNL     1       2.760  -5.261  -2.257  0.00  0.00    +0.075 C 
ATOM     17  C   UNL     1       4.211  -4.998  -2.666  0.00  0.00    +0.013 C 
ATOM     18  C   UNL     1       3.194  -5.463  -3.710  0.00  0.00    +0.013 C 
ENDBRANCH  13  16
ENDBRANCH   9  12
ENDBRANCH   1  11
BRANCH   2  19
ATOM     19  C   UNL     1       0.934  -0.272   4.765  0.00  0.00    +0.300 C 
ATOM     20  O   UNL     1       0.676   0.909   4.871  0.00  0.00    -0.265 OA
ATOM     21  N   UNL     1       1.323  -0.976   5.847  0.00  0.00    -0.302 N 
ATOM     22  H   UNL     1       1.530  -1.920   5.763  0.00  0.00    +0.150 HD
BRANCH  21  23
ATOM     23  C   UNL     1       1.434  -0.316   7.150  0.00  0.00    +0.036 C 
ATOM     24  C   UNL     1       0.071   0.254   7.550  0.00  0.00    +0.029 C 
ATOM     25  C   UNL     1       0.187   0.944   8.911  0.00  0.00    -0.008 C 
ATOM     26  C   UNL     1       0.643  -0.072   9.960  0.00  0.00    +0.007 C 
ATOM     27  C   UNL     1       2.006  -0.642   9.560  0.00  0.00    -0.008 C 
ATOM     28  C   UNL     1       1.890  -1.331   8.199  0.00  0.00    +0.029 C 
ATOM     29  C   UNL     1       3.027   0.494   9.471  0.00  0.00    +0.007 C 
ATOM     30  C   UNL     1       2.571   1.509   8.422  0.00  0.00    -0.008 C 
ATOM     31  C   UNL     1       1.208   2.079   8.822  0.00  0.00    +0.007 C 
ATOM     32  C   UNL     1       2.455   0.820   7.061  0.00  0.00    +0.029 C 
ENDBRANCH  21  23
ENDBRANCH   2  19
TORSDOF 5
