REMARK  Name = ZINC36530187
REMARK  10 active torsions:
REMARK  status: ('A' for Active; 'I' for Inactive)
REMARK    1  A    between atoms: C_1  and  C_2
REMARK    2  A    between atoms: C_5  and  S_8
REMARK    3  A    between atoms: S_8  and  C_11
REMARK    4  A    between atoms: C_11  and  N_12
REMARK    5  A    between atoms: C_13  and  C_15
REMARK    6  A    between atoms: C_15  and  C_17
REMARK    7  A    between atoms: C_15  and  N_23
REMARK    8  A    between atoms: N_23  and  C_24
REMARK    9  A    between atoms: C_25  and  C_27
REMARK   10  A    between atoms: C_29  and  N_34
REMARK                            x       y       z     vdW  Elec       q    Type
REMARK                         _______ _______ _______ _____ _____    ______ ____
ROOT
ATOM      1  C   UNL     1       3.562  -4.817   3.756  0.00  0.00    +0.192 C 
ENDROOT
BRANCH   1   2
ATOM      2  C   UNL     1       4.812  -4.014   4.006  0.00  0.00    -0.018 A 
ATOM      3  C   UNL     1       4.725  -2.656   4.247  0.00  0.00    +0.006 A 
ATOM      4  C   UNL     1       5.872  -1.920   4.476  0.00  0.00    +0.000 A 
ATOM      5  C   UNL     1       7.107  -2.542   4.464  0.00  0.00    +0.000 A 
ATOM      6  C   UNL     1       7.194  -3.900   4.224  0.00  0.00    +0.000 A 
ATOM      7  C   UNL     1       6.046  -4.637   3.999  0.00  0.00    +0.006 A 
ENDBRANCH   1   2
BRANCH   1   9
ATOM      8  N   UNL     1       3.655  -4.531   1.301  0.00  0.00    -0.294 N 
ATOM      9  C   UNL     1       3.591  -5.369   2.354  0.00  0.00    +0.239 C 
ATOM     10  O   UNL     1       3.556  -6.568   2.174  0.00  0.00    -0.273 OA
ATOM     11  H   UNL     1       3.682  -3.572   1.446  0.00  0.00    +0.150 HD
BRANCH   8  12
ATOM     12  C   UNL     1       3.682  -5.067  -0.062  0.00  0.00    +0.278 C 
BRANCH  12  13
ATOM     13  S   UNL     1       1.999  -5.092  -0.736  0.00  0.00    +0.013 S 
ATOM     14  O   UNL     1       1.101  -5.657   0.209  0.00  0.00    -0.168 OA
ATOM     15  O   UNL     1       2.017  -5.551  -2.081  0.00  0.00    -0.168 OA
BRANCH  13  20
ATOM     16  C   UNL     1       0.389   0.711  -1.113  0.00  0.00    +0.044 C 
ATOM     17  C   UNL     1       0.791  -0.739  -1.019  0.00  0.00    -0.050 A 
ATOM     18  C   UNL     1       1.420  -1.352  -2.086  0.00  0.00    +0.005 A 
ATOM     19  C   UNL     1       1.789  -2.681  -1.999  0.00  0.00    +0.027 A 
ATOM     20  C   UNL     1       1.529  -3.397  -0.846  0.00  0.00    +0.090 A 
ATOM     21  C   UNL     1       0.901  -2.784   0.222  0.00  0.00    +0.027 A 
ATOM     22  C   UNL     1       0.536  -1.453   0.137  0.00  0.00    +0.005 A 
ENDBRANCH  13  20
ENDBRANCH  12  13
ENDBRANCH   8  12
ENDBRANCH   1   9
BRANCH   1  23
ATOM     23  N   UNL     1       3.492  -5.923   4.715  0.00  0.00    -0.285 N 
ATOM     24  C   UNL     1       4.505  -6.981   4.688  0.00  0.00    +0.133 C 
ATOM     25  C   UNL     1       2.495  -5.967   5.621  0.00  0.00    +0.251 C 
ATOM     26  O   UNL     1       1.701  -5.050   5.697  0.00  0.00    -0.270 OA
BRANCH  25  27
ATOM     27  C   UNL     1       2.368  -7.129   6.521  0.00  0.00    +0.086 A 
ATOM     28  C   UNL     1       3.480  -7.598   7.226  0.00  0.00    +0.049 A 
ATOM     29  C   UNL     1       3.354  -8.683   8.065  0.00  0.00    +0.127 A 
ATOM     30  C   UNL     1       2.130  -9.314   8.214  0.00  0.00    +0.036 A 
ATOM     31  C   UNL     1       1.023  -8.861   7.523  0.00  0.00    +0.054 A 
ATOM     32  C   UNL     1       1.130  -7.766   6.679  0.00  0.00    +0.191 A 
ATOM     33  O   UNL     1       0.042  -7.317   6.005  0.00  0.00    -0.287 OA
BRANCH  29  34
ATOM     34  N   UNL     1       4.533  -9.179   8.810  0.00  0.00    +0.056 N 
ATOM     35  O   UNL     1       5.603  -8.631   8.682  0.00  0.00    -0.126 OA
ATOM     36  O   UNL     1       4.426 -10.131   9.547  0.00  0.00    -0.126 OA
ENDBRANCH  29  34
ENDBRANCH  25  27
ENDBRANCH   1  23
TORSDOF 8
