REMARK  Name = ZINC04996050
REMARK  6 active torsions:
REMARK  status: ('A' for Active; 'I' for Inactive)
REMARK    1  A    between atoms: C_1  and  C_2
REMARK    2  A    between atoms: N_8  and  S_9
REMARK    3  A    between atoms: S_9  and  C_12
REMARK    4  A    between atoms: C_15  and  C_18
REMARK    5  A    between atoms: N_20  and  C_21
REMARK    6  A    between atoms: C_24  and  N_27
REMARK                            x       y       z     vdW  Elec       q    Type
REMARK                         _______ _______ _______ _____ _____    ______ ____
ROOT
ATOM      1  C   UNL     1      -3.083  -1.518   1.672  0.00  0.00    +0.106 A 
ATOM      2  C   UNL     1      -4.137  -1.892   0.858  0.00  0.00    +0.029 A 
ATOM      3  C   UNL     1      -4.233  -3.191   0.403  0.00  0.00    +0.015 A 
ATOM      4  C   UNL     1      -3.271  -4.131   0.776  0.00  0.00    +0.037 A 
ATOM      5  C   UNL     1      -2.213  -3.748   1.602  0.00  0.00    +0.015 A 
ATOM      6  C   UNL     1      -2.125  -2.444   2.045  0.00  0.00    +0.029 A 
ENDROOT
BRANCH   4   7
ATOM      7  C   UNL     1      -3.371  -5.526   0.297  0.00  0.00    +0.248 C 
ATOM      8  O   UNL     1      -2.531  -6.342   0.623  0.00  0.00    -0.270 OA
ATOM      9  N   UNL     1      -4.393  -5.893  -0.501  0.00  0.00    -0.282 N 
ATOM     10  H   UNL     1      -5.101  -5.261  -0.704  0.00  0.00    +0.155 HD
BRANCH   9  11
ATOM     11  C   UNL     1      -4.434  -7.184  -1.035  0.00  0.00    +0.034 A 
ATOM     12  C   UNL     1      -4.940  -7.394  -2.312  0.00  0.00    +0.025 A 
ATOM     13  C   UNL     1      -4.974  -8.669  -2.839  0.00  0.00    +0.034 A 
ATOM     14  C   UNL     1      -4.515  -9.740  -2.093  0.00  0.00    +0.126 A 
ATOM     15  C   UNL     1      -4.016  -9.536  -0.820  0.00  0.00    +0.034 A 
ATOM     16  C   UNL     1      -3.974  -8.261  -0.289  0.00  0.00    +0.025 A 
BRANCH  14  17
ATOM     17  N   UNL     1      -4.558 -11.107  -2.659  0.00  0.00    +0.056 N 
ATOM     18  O   UNL     1      -4.154 -12.050  -2.004  0.00  0.00    -0.126 OA
ATOM     19  O   UNL     1      -4.997 -11.288  -3.781  0.00  0.00    -0.126 OA
ENDBRANCH  14  17
ENDBRANCH   9  11
ENDBRANCH   4   7
BRANCH   1  20
ATOM     20  S   UNL     1      -2.964   0.145   2.243  0.00  0.00    +0.061 S 
ATOM     21  O   UNL     1      -2.353   0.092   3.525  0.00  0.00    -0.153 OA
ATOM     22  O   UNL     1      -4.236   0.740   2.030  0.00  0.00    -0.153 OA
BRANCH  20  29
ATOM     23  C   UNL     1      -3.864   1.313  -0.175  0.00  0.00    +0.026 C 
ATOM     24  C   UNL     1      -2.346   1.464  -0.051  0.00  0.00    +0.077 C 
ATOM     25  C   UNL     1      -1.970   2.947  -0.128  0.00  0.00    +0.020 C 
ATOM     26  C   UNL     1      -0.470   3.104   0.135  0.00  0.00    +0.003 C 
ATOM     27  C   UNL     1      -0.141   2.595   1.540  0.00  0.00    +0.017 C 
ATOM     28  C   UNL     1      -0.496   1.108   1.637  0.00  0.00    +0.110 C 
ATOM     29  N   UNL     1      -1.901   0.931   1.244  0.00  0.00    -0.174 NA
ENDBRANCH  20  29
ENDBRANCH   1  20
TORSDOF 5
