REMARK  Name = ZINC04164330
REMARK  4 active torsions:
REMARK  status: ('A' for Active; 'I' for Inactive)
REMARK    1  A    between atoms: C_4  and  C_7
REMARK    2  A    between atoms: P_9  and  N_20
REMARK    3  A    between atoms: C_12  and  C_14
REMARK    4  A    between atoms: N_20  and  N_21
REMARK                            x       y       z     vdW  Elec       q    Type
REMARK                         _______ _______ _______ _____ _____    ______ ____
ROOT
ATOM      1  C   UNL     1       3.697  -0.686  -0.038  0.00  0.00    +0.141 C 
ATOM      2  C   UNL     1       3.665  -2.024  -0.051  0.00  0.00    +0.111 C 
ATOM      3  P   UNL     1       5.289  -2.863  -0.050  0.00  0.00    +0.227 P 
ATOM      4  O   UNL     1       5.575  -3.428  -1.387  0.00  0.00    -0.290 OA
ATOM      5  C   UNL     1       6.505  -1.560   0.360  0.00  0.00    +0.111 C 
ATOM      6  C   UNL     1       6.056  -0.302   0.303  0.00  0.00    +0.141 C 
ATOM      7  O   UNL     1       4.814   0.044  -0.046  0.00  0.00    -0.454 OA
ENDROOT
BRANCH   1  11
ATOM      8  C   UNL     1      -0.017   1.379   0.010  0.00  0.00    +0.000 A 
ATOM      9  C   UNL     1       1.169   2.093   0.002  0.00  0.00    +0.001 A 
ATOM     10  C   UNL     1       2.377   1.428  -0.013  0.00  0.00    +0.011 A 
ATOM     11  C   UNL     1       2.403   0.033  -0.021  0.00  0.00    +0.017 A 
ATOM     12  C   UNL     1       1.205  -0.680  -0.013  0.00  0.00    +0.011 A 
ATOM     13  C   UNL     1       0.002  -0.004   0.002  0.00  0.00    +0.001 A 
ENDBRANCH   1  11
BRANCH   6  14
ATOM     14  C   UNL     1       7.004   0.784   0.645  0.00  0.00    +0.017 A 
ATOM     15  C   UNL     1       8.316   0.479   1.006  0.00  0.00    +0.011 A 
ATOM     16  C   UNL     1       9.195   1.495   1.323  0.00  0.00    +0.001 A 
ATOM     17  C   UNL     1       8.776   2.813   1.284  0.00  0.00    +0.000 A 
ATOM     18  C   UNL     1       7.475   3.121   0.927  0.00  0.00    +0.001 A 
ATOM     19  C   UNL     1       6.589   2.115   0.602  0.00  0.00    +0.011 A 
ENDBRANCH   6  14
BRANCH   3  20
ATOM     20  N   UNL     1       5.316  -4.047   1.084  0.00  0.00    -0.224 N 
ATOM     21  H   UNL     1       4.534  -4.211   1.633  0.00  0.00    +0.175 HD
BRANCH  20  22
ATOM     22  N   UNL     1       6.470  -4.823   1.259  0.00  0.00    -0.234 N 
ATOM     23  C   UNL     1       7.636  -4.714   0.579  0.00  0.00    +0.244 A 
ATOM     24  N   UNL     1       8.447  -5.622   1.050  0.00  0.00    -0.137 NA
ATOM     25  N   UNL     1       7.857  -6.288   1.979  0.00  0.00    -0.137 NA
ATOM     26  C   UNL     1       6.646  -5.831   2.147  0.00  0.00    +0.244 A 
ENDBRANCH  20  22
ENDBRANCH   3  20
TORSDOF 4
