REMARK  Name = ZINC20058209
REMARK  4 active torsions:
REMARK  status: ('A' for Active; 'I' for Inactive)
REMARK    1  A    between atoms: C_1  and  O_2
REMARK    2  A    between atoms: O_2  and  C_3
REMARK    3  A    between atoms: C_5  and  N_26
REMARK    4  A    between atoms: C_10  and  C_19
REMARK                            x       y       z     vdW  Elec       q    Type
REMARK                         _______ _______ _______ _____ _____    ______ ____
ROOT
ATOM      1  C   UNL     1       1.402   0.606   0.281  0.00  0.00    +0.143 A 
ATOM      2  C   UNL     1       0.951   1.903   0.433  0.00  0.00    +0.080 A 
ATOM      3  C   UNL     1      -0.404   2.161   0.524  0.00  0.00    +0.130 A 
ATOM      4  C   UNL     1      -1.306   1.116   0.455  0.00  0.00    +0.039 A 
ATOM      5  C   UNL     1      -0.865  -0.183   0.302  0.00  0.00    -0.014 A 
ATOM      6  C   UNL     1       0.500  -0.463   0.219  0.00  0.00    +0.074 A 
ATOM      7  N   UNL     1       1.029  -1.748   0.090  0.00  0.00    -0.334 N 
ATOM      8  C   UNL     1       0.063  -2.849  -0.057  0.00  0.00    +0.105 C 
ATOM      9  C   UNL     1      -1.102  -2.545   0.862  0.00  0.00    +0.029 C 
ATOM     10  C   UNL     1      -1.809  -1.318   0.207  0.00  0.00    +0.049 C 
ATOM     11  C   UNL     1      -3.139  -1.308   0.864  0.00  0.00    -0.023 C 
ATOM     12  C   UNL     1      -3.447  -2.552   1.214  0.00  0.00    -0.030 C 
ATOM     13  C   UNL     1      -2.303  -3.497   0.840  0.00  0.00    +0.033 C 
ATOM     14  H   UNL     1       2.108  -1.960   0.094  0.00  0.00    +0.147 HD
ENDROOT
BRANCH   8  15
ATOM     15  C   UNL     1      -0.415  -2.926  -1.484  0.00  0.00    -0.026 A 
ATOM     16  C   UNL     1      -0.908  -4.116  -1.985  0.00  0.00    +0.005 A 
ATOM     17  C   UNL     1      -1.351  -4.186  -3.292  0.00  0.00    +0.002 A 
ATOM     18  C   UNL     1      -1.292  -3.068  -4.103  0.00  0.00    +0.020 A 
ATOM     19  C   UNL     1      -0.794  -1.878  -3.604  0.00  0.00    +0.041 A 
ATOM     20  C   UNL     1      -0.355  -1.807  -2.294  0.00  0.00    +0.025 A 
ATOM     21 CL   UNL     1      -0.718  -0.474  -4.622  0.00  0.00    -0.084 Cl
ENDBRANCH   8  15
BRANCH   3  22
ATOM     22  N   UNL     1      -0.887   3.550   0.693  0.00  0.00    +0.057 N 
ATOM     23  O   UNL     1      -2.081   3.774   0.772  0.00  0.00    -0.126 OA
ATOM     24  O   UNL     1      -0.089   4.469   0.753  0.00  0.00    -0.126 OA
ENDBRANCH   3  22
BRANCH   1  26
ATOM     25  C   UNL     1       3.608   1.496   0.259  0.00  0.00    +0.277 C 
ATOM     26  O   UNL     1       2.738   0.365   0.190  0.00  0.00    -0.493 OA
ENDBRANCH   1  26
TORSDOF 3
