REMARK  Name = ZINC44318816
REMARK  13 active torsions:
REMARK  status: ('A' for Active; 'I' for Inactive)
REMARK    1  A    between atoms: C_1  and  C_2
REMARK    2  A    between atoms: C_2  and  C_3
REMARK    3  A    between atoms: C_2  and  C_4
REMARK    4  A    between atoms: C_2  and  O_5
REMARK    5  A    between atoms: O_5  and  C_6
REMARK    6  A    between atoms: N_8  and  CA_9
REMARK    7  A    between atoms: CA_9  and  C_11
REMARK    8  A    between atoms: CA_9  and  C_29
REMARK    9  A    between atoms: C_11  and  C_12
REMARK   10  A    between atoms: C_15  and  C_17
REMARK   11  A    between atoms: C_17  and  O_18
REMARK   12  A    between atoms: O_18  and  C_19
REMARK   13  A    between atoms: C_24  and  N_25
REMARK                            x       y       z     vdW  Elec       q    Type
REMARK                         _______ _______ _______ _____ _____    ______ ____
ROOT
ATOM      1  C   UNL     1       3.569   0.946  -4.814  0.00  0.00    +0.108 A 
ATOM      2  C   UNL     1       3.926   2.226  -5.022  0.00  0.00    +0.045 A 
ATOM      3  C   UNL     1       2.869   2.835  -5.736  0.00  0.00    +0.048 A 
ATOM      4  C   UNL     1       1.929   1.891  -5.923  0.00  0.00    +0.142 A 
ATOM      5  O   UNL     1       2.361   0.747  -5.367  0.00  0.00    -0.461 OA
ENDROOT
BRANCH   1   6
ATOM      6  C   UNL     1       4.388  -0.092  -4.090  0.00  0.00    +0.108 C 
BRANCH   6   7
ATOM      7  CA  UNL     1       4.035  -0.071  -2.601  0.00  0.00    +0.196 C 
BRANCH   7  10
ATOM      8  C   UNL     1       1.952  -0.085  -1.337  0.00  0.00    +0.401 C 
ATOM      9  O   UNL     1       2.488   0.619  -0.503  0.00  0.00    -0.226 OA
ATOM     10  N   UNL     1       2.641  -0.485  -2.424  0.00  0.00    -0.267 N 
ATOM     11  H   UNL     1       2.213  -1.047  -3.089  0.00  0.00    +0.153 HD
BRANCH   8  12
ATOM     12  O   UNL     1       0.671  -0.465  -1.174  0.00  0.00    -0.445 OA
BRANCH  12  14
ATOM     13  C   UNL     1      -0.019   1.526   0.010  0.00  0.00    +0.055 C 
ATOM     14  C   UNL     1       0.002  -0.004   0.002  0.00  0.00    +0.107 C 
ATOM     15  C   UNL     1       0.742  -0.511   1.242  0.00  0.00    +0.055 C 
ATOM     16  C   UNL     1      -1.433  -0.534   0.013  0.00  0.00    +0.055 C 
ENDBRANCH  12  14
ENDBRANCH   8  12
ENDBRANCH   7  10
BRANCH   7  17
ATOM     17  C   UNL     1       4.939  -1.021  -1.858  0.00  0.00    +0.376 C 
ATOM     18  O   UNL     1       4.488  -2.053  -1.392  0.00  0.00    -0.244 OA
ATOM     19  OXT UNL     1       6.121  -0.756  -1.723  0.00  0.00    -0.244 OA
ENDBRANCH   7  17
ENDBRANCH   6   7
ENDBRANCH   1   6
BRANCH   4  20
ATOM     20  C   UNL     1       0.617   2.083  -6.638  0.00  0.00    +0.303 C 
BRANCH  20  21
ATOM     21  O   UNL     1       0.785   1.793  -8.028  0.00  0.00    -0.482 OA
BRANCH  21  22
ATOM     22  C   UNL     1      -0.311   1.919  -8.821  0.00  0.00    +0.154 A 
ATOM     23  C   UNL     1      -1.522   2.318  -8.275  0.00  0.00    +0.086 A 
ATOM     24  C   UNL     1      -2.636   2.445  -9.085  0.00  0.00    +0.127 A 
ATOM     25  C   UNL     1      -2.542   2.173 -10.440  0.00  0.00    +0.041 A 
ATOM     26  C   UNL     1      -1.335   1.775 -10.984  0.00  0.00    +0.039 A 
ATOM     27  C   UNL     1      -0.219   1.653 -10.180  0.00  0.00    +0.168 A 
ATOM     28  F   UNL     1      -3.816   2.834  -8.554  0.00  0.00    -0.205 F 
BRANCH  27  29
ATOM     29  N   UNL     1       1.073   1.232 -10.765  0.00  0.00    +0.060 N 
ATOM     30  O   UNL     1       1.153   1.000 -11.949  0.00  0.00    -0.126 OA
ATOM     31  O   UNL     1       2.049   1.121 -10.060  0.00  0.00    -0.126 OA
ENDBRANCH  27  29
ENDBRANCH  21  22
ENDBRANCH  20  21
ENDBRANCH   4  20
TORSDOF 10
