REMARK  Name = ZINC46367483
REMARK  7 active torsions:
REMARK  status: ('A' for Active; 'I' for Inactive)
REMARK    1  A    between atoms: C_1  and  C_2
REMARK    2  A    between atoms: N_7  and  C_9
REMARK    3  A    between atoms: C_9  and  C_11
REMARK    4  A    between atoms: C_9  and  C_12
REMARK    5  A    between atoms: C_12  and  N_13
REMARK    6  A    between atoms: N_19  and  C_22
REMARK    7  A    between atoms: C_27  and  O_28
REMARK                            x       y       z     vdW  Elec       q    Type
REMARK                         _______ _______ _______ _____ _____    ______ ____
ROOT
ATOM      1  N   UNL     1       1.995  -4.565   1.353  0.00  0.00    -0.301 N 
ATOM      2  C   UNL     1       1.953  -5.895   1.139  0.00  0.00    +0.302 C 
ATOM      3  O   UNL     1       1.434  -6.627   1.960  0.00  0.00    -0.253 OA
ATOM      4  N   UNL     1       2.487  -6.413   0.016  0.00  0.00    -0.283 N 
ATOM      5  C   UNL     1       3.219  -5.558  -0.929  0.00  0.00    +0.128 C 
ATOM      6  C   UNL     1       4.617  -6.151  -1.146  0.00  0.00    +0.124 C 
ATOM      7  N   UNL     1       4.478  -7.582  -1.448  0.00  0.00    -0.324 N 
ATOM      8  C   UNL     1       3.746  -8.438  -0.503  0.00  0.00    +0.124 C 
ATOM      9  C   UNL     1       2.353  -7.846  -0.284  0.00  0.00    +0.128 C 
ATOM     10  H   UNL     1       2.471  -3.989   0.735  0.00  0.00    +0.150 HD
ENDROOT
BRANCH   7  11
ATOM     11  C   UNL     1       5.032  -8.121  -2.615  0.00  0.00    +0.072 A 
ATOM     12  C   UNL     1       6.328  -8.617  -2.604  0.00  0.00    +0.027 A 
ATOM     13  C   UNL     1       6.873  -9.149  -3.758  0.00  0.00    +0.002 A 
ATOM     14  C   UNL     1       6.130  -9.188  -4.923  0.00  0.00    +0.004 A 
ATOM     15  C   UNL     1       4.838  -8.695  -4.941  0.00  0.00    +0.047 A 
ATOM     16  C   UNL     1       4.283  -8.165  -3.788  0.00  0.00    +0.138 A 
BRANCH  16  17
ATOM     17  O   UNL     1       3.010  -7.685  -3.803  0.00  0.00    -0.505 OA
ATOM     18  H   UNL     1       2.946  -6.747  -4.032  0.00  0.00    +0.292 HD
ENDBRANCH  16  17
ENDBRANCH   7  11
BRANCH   1  19
ATOM     19  C   UNL     1       1.320  -3.989   2.519  0.00  0.00    +0.090 C 
BRANCH  19  20
ATOM     20  C   UNL     1       1.410  -2.463   2.459  0.00  0.00    -0.054 C 
ATOM     21  C   UNL     1       0.607  -1.859   3.612  0.00  0.00    -0.012 C 
BRANCH  20  27
ATOM     22  C   UNL     1      -2.594  -2.304  -0.353  0.00  0.00    +0.005 C 
ATOM     23  C   UNL     1      -1.113  -1.931  -0.268  0.00  0.00    -0.031 C 
ATOM     24  C   UNL     1      -0.956  -0.417  -0.434  0.00  0.00    -0.001 C 
ATOM     25  C   UNL     1       0.520  -0.045  -0.270  0.00  0.00    -0.018 C 
ATOM     26  C   UNL     1       1.014  -0.533   1.094  0.00  0.00    -0.078 C 
ATOM     27  N   UNL     1       0.863  -1.990   1.180  0.00  0.00    +0.383 N 
ATOM     28  C   UNL     1      -0.557  -2.350   1.095  0.00  0.00    -0.075 C 
ATOM     29  H   UNL     1       1.365  -2.425   0.421  0.00  0.00    -0.081 HD
ENDBRANCH  20  27
ENDBRANCH  19  20
ENDBRANCH   1  19
TORSDOF 5
