REMARK  Name = ZINC26840628
REMARK  9 active torsions:
REMARK  status: ('A' for Active; 'I' for Inactive)
REMARK    1  A    between atoms: C_1  and  C_2
REMARK    2  A    between atoms: C_7  and  N_8
REMARK    3  A    between atoms: C_9  and  C_11
REMARK    4  A    between atoms: C_12  and  N_13
REMARK    5  A    between atoms: C_12  and  C_28
REMARK    6  A    between atoms: N_13  and  N_14
REMARK    7  A    between atoms: C_15  and  C_17
REMARK    8  A    between atoms: N_19  and  C_20
REMARK    9  A    between atoms: C_25  and  C_26
REMARK                            x       y       z     vdW  Elec       q    Type
REMARK                         _______ _______ _______ _____ _____    ______ ____
ROOT
ATOM      1  N   UNL     1      -1.863   7.755   0.604  0.00  0.00    -0.268 N 
ATOM      2  H   UNL     1      -1.493   8.367   1.440  0.00  0.00    +0.170 HD
ENDROOT
BRANCH   1   3
ATOM      3  N   UNL     1      -1.851   6.357   0.702  0.00  0.00    -0.229 N 
ATOM      4  C   UNL     1      -1.386   5.763   1.819  0.00  0.00    +0.315 C 
ATOM      5  O   UNL     1      -0.977   6.439   2.740  0.00  0.00    -0.264 OA
ATOM      6  H   UNL     1      -2.221   5.744  -0.134  0.00  0.00    +0.173 HD
BRANCH   4   7
ATOM      7  C   UNL     1      -1.373   4.275   1.922  0.00  0.00    +0.305 C 
ATOM      8  O   UNL     1      -1.782   3.599   1.000  0.00  0.00    -0.265 OA
ATOM      9  N   UNL     1      -0.908   3.681   3.039  0.00  0.00    -0.277 N 
ATOM     10  H   UNL     1      -0.623   4.292   3.909  0.00  0.00    +0.155 HD
BRANCH   9  11
ATOM     11  C   UNL     1      -0.787   2.290   3.092  0.00  0.00    +0.038 A 
ATOM     12  C   UNL     1      -0.636   1.559   1.920  0.00  0.00    +0.023 A 
ATOM     13  C   UNL     1      -0.516   0.185   1.976  0.00  0.00    +0.003 A 
ATOM     14  C   UNL     1      -0.547  -0.465   3.196  0.00  0.00    +0.020 A 
ATOM     15  C   UNL     1      -0.698   0.259   4.365  0.00  0.00    +0.046 A 
ATOM     16  C   UNL     1      -0.817   1.635   4.317  0.00  0.00    -0.011 A 
ATOM     17  C   UNL     1      -0.981   2.424   5.590  0.00  0.00    +0.047 C 
ATOM     18 CL   UNL     1      -0.736  -0.561   5.895  0.00  0.00    -0.083 Cl
ENDBRANCH   9  11
ENDBRANCH   4   7
ENDBRANCH   1   3
BRANCH   1  20
ATOM     19  C   UNL     1      -2.318   9.822  -0.561  0.00  0.00    +0.087 C 
ATOM     20  C   UNL     1      -2.305   8.319  -0.457  0.00  0.00    +0.024 C 
ATOM     21  C   UNL     1      -2.812   7.479  -1.601  0.00  0.00    +0.062 C 
BRANCH  19  23
ATOM     22  N   UNL     1      -2.990  11.533  -2.217  0.00  0.00    -0.282 N 
ATOM     23  C   UNL     1      -2.881  10.227  -1.899  0.00  0.00    +0.243 C 
ATOM     24  O   UNL     1      -3.238   9.379  -2.689  0.00  0.00    -0.270 OA
ATOM     25  H   UNL     1      -2.595  12.300  -1.534  0.00  0.00    +0.155 HD
BRANCH  22  32
ATOM     26  C   UNL     1      -4.526  13.927  -2.240  0.00  0.00    +0.046 C 
ATOM     27  C   UNL     1      -4.363  13.074  -3.471  0.00  0.00    -0.028 A 
ATOM     28  C   UNL     1      -4.964  13.449  -4.657  0.00  0.00    +0.020 A 
ATOM     29  C   UNL     1      -4.820  12.663  -5.786  0.00  0.00    +0.018 A 
ATOM     30  C   UNL     1      -4.068  11.502  -5.732  0.00  0.00    +0.017 A 
ATOM     31  C   UNL     1      -3.461  11.125  -4.551  0.00  0.00    +0.024 A 
ATOM     32  C   UNL     1      -3.604  11.912  -3.416  0.00  0.00    +0.037 A 
ATOM     33 BR   UNL     1      -5.650  13.175  -7.405  0.00  0.00    -0.050 Br
ENDBRANCH  22  32
ENDBRANCH  19  23
ENDBRANCH   1  20
TORSDOF 6
