REMARK  Name = ZINC49409707
REMARK  7 active torsions:
REMARK  status: ('A' for Active; 'I' for Inactive)
REMARK    1  A    between atoms: C_1  and  C_2
REMARK    2  A    between atoms: C_2  and  N_3
REMARK    3  A    between atoms: N_3  and  C_4
REMARK    4  A    between atoms: C_4  and  C_5
REMARK    5  A    between atoms: C_9  and  C_12
REMARK    6  A    between atoms: C_14  and  C_17
REMARK    7  A    between atoms: C_17  and  N_18
REMARK                            x       y       z     vdW  Elec       q    Type
REMARK                         _______ _______ _______ _____ _____    ______ ____
ROOT
ATOM      1  C   UNL     1       6.236  -1.375   1.084  0.00  0.00    +0.203 A 
ATOM      2  N   UNL     1       6.950  -1.829   2.129  0.00  0.00    -0.193 NA
ATOM      3  C   UNL     1       8.206  -1.933   1.800  0.00  0.00    +0.211 A 
ATOM      4  O   UNL     1       8.344  -1.548   0.525  0.00  0.00    -0.340 OA
ATOM      5  N   UNL     1       7.047  -1.192   0.071  0.00  0.00    -0.056 NA
ENDROOT
BRANCH   1  10
ATOM      6  N   UNL     1       0.711  -0.489   1.189  0.00  0.00    -0.317 N 
ATOM      7  C   UNL     1       2.081  -0.702   1.140  0.00  0.00    +0.099 A 
ATOM      8  C   UNL     1       2.775  -0.446  -0.040  0.00  0.00    +0.042 A 
ATOM      9  C   UNL     1       4.138  -0.659  -0.080  0.00  0.00    +0.016 A 
ATOM     10  C   UNL     1       4.773  -1.129   1.076  0.00  0.00    +0.038 A 
ATOM     11  C   UNL     1       4.013  -1.363   2.218  0.00  0.00    +0.095 A 
ATOM     12  N   UNL     1       2.714  -1.141   2.219  0.00  0.00    -0.349 N 
ATOM     13  H   UNL     1       2.206  -1.308   3.028  0.00  0.00    +0.167 HD
BRANCH   6  15
ATOM     14  C   UNL     1      -0.019   1.526   0.010  0.00  0.00    +0.024 C 
ATOM     15  C   UNL     1       0.002  -0.004   0.002  0.00  0.00    +0.103 C 
ENDBRANCH   6  15
BRANCH   6  16
ATOM     16  C   UNL     1      -0.028  -0.750   2.427  0.00  0.00    +0.103 C 
ATOM     17  C   UNL     1      -0.511  -2.202   2.437  0.00  0.00    +0.024 C 
ENDBRANCH   6  16
ENDBRANCH   1  10
BRANCH   3  18
ATOM     18  C   UNL     1       9.316  -2.407   2.702  0.00  0.00    +0.022 C 
BRANCH  18  19
ATOM     19  N   UNL     1       9.459  -3.864   2.579  0.00  0.00    +0.386 N 
ATOM     20  C   UNL     1       9.885  -4.198   1.214  0.00  0.00    -0.073 C 
ATOM     21  C   UNL     1       9.953  -5.719   1.056  0.00  0.00    +0.046 C 
ATOM     22  C   UNL     1      10.954  -6.286   2.065  0.00  0.00    +0.167 C 
ATOM     23  C   UNL     1      10.549  -5.865   3.479  0.00  0.00    +0.046 C 
ATOM     24  C   UNL     1      10.458  -4.339   3.544  0.00  0.00    -0.073 C 
ATOM     25  O   UNL     1      10.965  -7.720   1.976  0.00  0.00    -0.346 OA
ATOM     26  C   UNL     1      12.072  -8.027   1.093  0.00  0.00    +0.191 C 
ATOM     27  C   UNL     1      13.099  -6.935   1.484  0.00  0.00    +0.191 C 
ATOM     28  O   UNL     1      12.267  -5.793   1.772  0.00  0.00    -0.346 OA
ATOM     29  H   UNL     1       8.572  -4.305   2.770  0.00  0.00    -0.081 HD
ENDBRANCH  18  19
ENDBRANCH   3  18
TORSDOF 5
