REMARK  Name = ZINC57346636
REMARK  8 active torsions:
REMARK  status: ('A' for Active; 'I' for Inactive)
REMARK    1  A    between atoms: C_1  and  C_2
REMARK    2  A    between atoms: C_2  and  N_3
REMARK    3  A    between atoms: C_17  and  N_20
REMARK    4  A    between atoms: C_21  and  O_23
REMARK    5  A    between atoms: O_23  and  C_24
REMARK    6  A    between atoms: C_24  and  C_25
REMARK    7  A    between atoms: C_24  and  C_26
REMARK    8  A    between atoms: C_24  and  C_27
REMARK                            x       y       z     vdW  Elec       q    Type
REMARK                         _______ _______ _______ _____ _____    ______ ____
ROOT
ATOM      1  N   UNL     1      -2.036  -2.013  -0.687  0.00  0.00    -0.280 N 
ATOM      2  C   UNL     1      -2.754  -2.304   0.424  0.00  0.00    +0.270 A 
ATOM      3  O   UNL     1      -2.847  -3.452   0.825  0.00  0.00    -0.266 OA
ATOM      4  C   UNL     1      -3.384  -1.259   1.096  0.00  0.00    +0.102 A 
ATOM      5  C   UNL     1      -3.286   0.070   0.647  0.00  0.00    +0.087 A 
ATOM      6  C   UNL     1      -3.969   1.019   1.420  0.00  0.00    +0.036 A 
ATOM      7  C   UNL     1      -4.661   0.635   2.514  0.00  0.00    +0.048 A 
ATOM      8  S   UNL     1      -4.401  -1.131   2.543  0.00  0.00    -0.090 S 
ATOM      9  N   UNL     1      -2.538   0.270  -0.486  0.00  0.00    -0.215 NA
ATOM     10  C   UNL     1      -1.948  -0.717  -1.105  0.00  0.00    +0.202 A 
ATOM     11  N   UNL     1      -1.211  -0.438  -2.230  0.00  0.00    -0.299 N 
ATOM     12  C   UNL     1       0.215  -0.100  -2.126  0.00  0.00    +0.108 C 
ATOM     13  C   UNL     1       0.460   1.229  -2.848  0.00  0.00    +0.021 C 
ATOM     14  C   UNL     1      -0.060   1.128  -4.284  0.00  0.00    +0.025 C 
ATOM     15  C   UNL     1      -1.566   0.859  -4.266  0.00  0.00    +0.093 C 
ATOM     16  C   UNL     1      -1.833  -0.479  -3.561  0.00  0.00    +0.130 C 
ENDROOT
BRANCH  15  17
ATOM     17  N   UNL     1      -2.068   0.794  -5.641  0.00  0.00    -0.277 N 
ATOM     18  C   UNL     1      -2.409   1.927  -6.288  0.00  0.00    +0.401 C 
ATOM     19  O   UNL     1      -2.300   3.001  -5.730  0.00  0.00    -0.226 OA
ATOM     20  H   UNL     1      -2.154  -0.063  -6.086  0.00  0.00    +0.152 HD
BRANCH  18  21
ATOM     21  O   UNL     1      -2.870   1.867  -7.551  0.00  0.00    -0.445 OA
BRANCH  21  22
ATOM     22  C   UNL     1      -3.213   3.106  -8.175  0.00  0.00    +0.107 C 
ATOM     23  C   UNL     1      -1.978   4.008  -8.230  0.00  0.00    +0.055 C 
ATOM     24  C   UNL     1      -3.713   2.840  -9.597  0.00  0.00    +0.055 C 
ATOM     25  C   UNL     1      -4.314   3.797  -7.368  0.00  0.00    +0.055 C 
ENDBRANCH  21  22
ENDBRANCH  18  21
ENDBRANCH  15  17
BRANCH   1  27
ATOM     26  C   UNL     1       0.006  -3.355  -0.788  0.00  0.00    +0.027 C 
ATOM     27  C   UNL     1      -1.355  -3.077  -1.429  0.00  0.00    +0.125 C 
ENDBRANCH   1  27
TORSDOF 4
