REMARK  Name = ZINC39412170
REMARK  7 active torsions:
REMARK  status: ('A' for Active; 'I' for Inactive)
REMARK    1  A    between atoms: C_1  and  C_2
REMARK    2  A    between atoms: C_7  and  C_12
REMARK    3  A    between atoms: C_12  and  C_24
REMARK    4  A    between atoms: C_13  and  C_14
REMARK    5  A    between atoms: C_16  and  O_22
REMARK    6  A    between atoms: C_17  and  O_21
REMARK    7  A    between atoms: O_22  and  C_23
REMARK                            x       y       z     vdW  Elec       q    Type
REMARK                         _______ _______ _______ _____ _____    ______ ____
ROOT
ATOM      1  C   UNL     1       1.312  -5.056   1.985  0.00  0.00    +0.072 C 
ATOM      2  C   UNL     1       1.217  -6.213   2.672  0.00  0.00    +0.026 C 
ENDROOT
BRANCH   1   9
ATOM      3  C   UNL     1       0.141   1.253  -0.787  0.00  0.00    +0.044 C 
ATOM      4  C   UNL     1       0.045  -0.231  -0.541  0.00  0.00    -0.048 A 
ATOM      5  C   UNL     1      -0.236  -1.079  -1.627  0.00  0.00    +0.005 A 
ATOM      6  C   UNL     1      -0.340  -2.417  -1.497  0.00  0.00    +0.027 A 
ATOM      7  C   UNL     1      -0.154  -3.033  -0.176  0.00  0.00    +0.060 A 
ATOM      8  N   UNL     1      -0.196  -4.266   0.239  0.00  0.00    -0.359 N 
ATOM      9  C   UNL     1       0.072  -4.255   1.682  0.00  0.00    +0.216 C 
ATOM     10  N   UNL     1       0.275  -2.849   2.054  0.00  0.00    -0.359 N 
ATOM     11  C   UNL     1       0.144  -2.136   0.974  0.00  0.00    +0.061 A 
ATOM     12  C   UNL     1       0.238  -0.693   0.711  0.00  0.00    +0.030 A 
ATOM     13  H   UNL     1      -0.372  -5.049  -0.306  0.00  0.00    +0.162 HD
ATOM     14  H   UNL     1       0.471  -2.513   2.943  0.00  0.00    +0.162 HD
ENDBRANCH   1   9
BRANCH   2  15
ATOM     15  C   UNL     1      -0.105  -6.781   2.976  0.00  0.00    -0.019 A 
ATOM     16  C   UNL     1      -0.333  -7.412   4.204  0.00  0.00    +0.057 A 
ATOM     17  C   UNL     1      -1.576  -7.944   4.484  0.00  0.00    +0.163 A 
ATOM     18  C   UNL     1      -2.602  -7.853   3.544  0.00  0.00    +0.173 A 
ATOM     19  C   UNL     1      -2.377  -7.227   2.325  0.00  0.00    +0.063 A 
ATOM     20  C   UNL     1      -1.140  -6.688   2.040  0.00  0.00    +0.027 A 
ATOM     21 BR   UNL     1      -3.773  -7.108   1.054  0.00  0.00    -0.046 Br
BRANCH  18  22
ATOM     22  O   UNL     1      -3.824  -8.378   3.821  0.00  0.00    -0.503 OA
ATOM     23  H   UNL     1      -4.429  -7.759   4.251  0.00  0.00    +0.292 HD
ENDBRANCH  18  22
BRANCH  17  24
ATOM     24  O   UNL     1      -1.800  -8.557   5.677  0.00  0.00    -0.491 OA
ATOM     25  C   UNL     1      -0.705  -8.615   6.593  0.00  0.00    +0.277 C 
ENDBRANCH  17  24
ENDBRANCH   2  15
BRANCH   1  26
ATOM     26  C   UNL     1       2.591  -4.588   1.543  0.00  0.00    +0.099 C 
ATOM     27  N   UNL     1       3.607  -4.218   1.193  0.00  0.00    -0.191 NA
ENDBRANCH   1  26
TORSDOF 5
