REMARK  Name = ZINC41793681
REMARK  7 active torsions:
REMARK  status: ('A' for Active; 'I' for Inactive)
REMARK    1  A    between atoms: C_1  and  C_2
REMARK    2  A    between atoms: C_2  and  C_29
REMARK    3  A    between atoms: C_7  and  N_11
REMARK    4  A    between atoms: C_12  and  C_14
REMARK    5  A    between atoms: N_16  and  C_17
REMARK    6  A    between atoms: C_17  and  C_18
REMARK    7  A    between atoms: C_18  and  C_19
REMARK                            x       y       z     vdW  Elec       q    Type
REMARK                         _______ _______ _______ _____ _____    ______ ____
ROOT
ATOM      1  C   UNL     1      -0.596  -6.959   4.493  0.00  0.00    +0.299 C 
ATOM      2  O   UNL     1       0.482  -6.946   5.050  0.00  0.00    -0.265 OA
ATOM      3  N   UNL     1      -1.470  -7.955   4.740  0.00  0.00    -0.307 N 
ATOM      4  H   UNL     1      -2.332  -7.965   4.296  0.00  0.00    +0.149 HD
ENDROOT
BRANCH   1   6
ATOM      5  N   UNL     1      -0.081  -4.875   3.288  0.00  0.00    -0.278 N 
ATOM      6  C   UNL     1      -0.955  -5.871   3.535  0.00  0.00    +0.303 C 
ATOM      7  O   UNL     1      -2.034  -5.884   2.979  0.00  0.00    -0.265 OA
ATOM      8  H   UNL     1       0.806  -4.900   3.680  0.00  0.00    +0.155 HD
BRANCH   5  15
ATOM      9  C   UNL     1      -2.903  -1.164  -2.188  0.00  0.00    +0.104 C 
ATOM     10  C   UNL     1      -2.792  -1.521  -0.704  0.00  0.00    +0.248 C 
ATOM     11  O   UNL     1      -1.686  -0.826  -0.098  0.00  0.00    -0.448 OA
ATOM     12  C   UNL     1      -1.186  -1.684   0.840  0.00  0.00    +0.167 A 
ATOM     13  C   UNL     1      -0.352  -1.470   1.925  0.00  0.00    +0.051 A 
ATOM     14  C   UNL     1       0.015  -2.527   2.737  0.00  0.00    +0.027 A 
ATOM     15  C   UNL     1      -0.453  -3.806   2.466  0.00  0.00    +0.038 A 
ATOM     16  C   UNL     1      -1.290  -4.024   1.380  0.00  0.00    +0.073 A 
ATOM     17  C   UNL     1      -1.657  -2.966   0.566  0.00  0.00    +0.169 A 
ATOM     18  O   UNL     1      -2.452  -2.911  -0.542  0.00  0.00    -0.448 OA
ATOM     19  C   UNL     1      -4.098  -1.199   0.024  0.00  0.00    +0.104 C 
ENDBRANCH   5  15
ENDBRANCH   1   6
BRANCH   3  20
ATOM     20  C   UNL     1      -1.118  -9.022   5.680  0.00  0.00    +0.109 C 
BRANCH  20  21
ATOM     21  C   UNL     1      -2.275 -10.018   5.779  0.00  0.00    +0.054 C 
BRANCH  21  22
ATOM     22  C   UNL     1      -1.913 -11.115   6.745  0.00  0.00    -0.038 A 
ATOM     23  C   UNL     1      -1.373 -12.278   6.289  0.00  0.00    +0.004 A 
ATOM     24  C   UNL     1      -1.032 -13.305   7.168  0.00  0.00    +0.001 A 
ATOM     25  C   UNL     1      -1.229 -13.174   8.508  0.00  0.00    +0.008 A 
ATOM     26  C   UNL     1      -1.784 -11.987   9.017  0.00  0.00    -0.018 A 
ATOM     27  C   UNL     1      -2.125 -10.941   8.123  0.00  0.00    -0.015 A 
ATOM     28  C   UNL     1      -2.675  -9.752   8.633  0.00  0.00    +0.009 A 
ATOM     29  C   UNL     1      -2.866  -9.619   9.974  0.00  0.00    +0.001 A 
ATOM     30  C   UNL     1      -2.524 -10.645  10.853  0.00  0.00    +0.001 A 
ATOM     31  C   UNL     1      -2.002 -11.816  10.395  0.00  0.00    +0.008 A 
ENDBRANCH  21  22
ENDBRANCH  20  21
ENDBRANCH   3  20
TORSDOF 5
