REMARK  Name = ZINC63720289
REMARK  10 active torsions:
REMARK  status: ('A' for Active; 'I' for Inactive)
REMARK    1  A    between atoms: C_1  and  C_2
REMARK    2  A    between atoms: C_2  and  O_3
REMARK    3  A    between atoms: O_3  and  C_4
REMARK    4  A    between atoms: C_9  and  N_10
REMARK    5  A    between atoms: C_11  and  C_13
REMARK    6  A    between atoms: C_13  and  C_14
REMARK    7  A    between atoms: C_14  and  S_15
REMARK    8  A    between atoms: S_15  and  C_16
REMARK    9  A    between atoms: C_21  and  C_24
REMARK   10  A    between atoms: N_27  and  C_28
REMARK                            x       y       z     vdW  Elec       q    Type
REMARK                         _______ _______ _______ _____ _____    ______ ____
ROOT
ATOM      1  C   UNL     1     -10.459  -2.107  -0.474  0.00  0.00    +0.259 C 
ATOM      2  N   UNL     1     -10.314  -2.926  -1.682  0.00  0.00    -0.230 NA
ATOM      3  C   UNL     1      -9.711  -4.069  -1.627  0.00  0.00    +0.185 C 
ATOM      4  C   UNL     1      -9.250  -4.642  -0.316  0.00  0.00    +0.083 C 
ATOM      5  C   UNL     1      -8.670  -5.806  -0.622  0.00  0.00    +0.075 C 
ATOM      6  N   UNL     1      -8.767  -5.984  -1.957  0.00  0.00    -0.152 NA
ATOM      7  N   UNL     1      -9.370  -5.007  -2.545  0.00  0.00    -0.129 NA
ATOM      8  C   UNL     1      -8.021  -6.755   0.353  0.00  0.00    +0.068 C 
ATOM      9  C   UNL     1      -9.518  -3.898   0.933  0.00  0.00    +0.133 C 
ATOM     10  N   UNL     1      -8.913  -4.129   2.067  0.00  0.00    -0.285 NA
ATOM     11  N   UNL     1     -10.502  -2.913   0.750  0.00  0.00    -0.252 N 
ATOM     12  H   UNL     1      -8.241  -4.826   2.125  0.00  0.00    +0.188 HD
ENDROOT
BRANCH  11  13
ATOM     13  C   UNL     1     -11.496  -2.706   1.712  0.00  0.00    +0.056 A 
ATOM     14  C   UNL     1     -12.691  -3.410   1.641  0.00  0.00    +0.025 A 
ATOM     15  C   UNL     1     -13.670  -3.204   2.592  0.00  0.00    +0.002 A 
ATOM     16  C   UNL     1     -13.462  -2.298   3.616  0.00  0.00    +0.002 A 
ATOM     17  C   UNL     1     -12.274  -1.594   3.691  0.00  0.00    +0.022 A 
ATOM     18  C   UNL     1     -11.287  -1.800   2.745  0.00  0.00    +0.062 A 
ATOM     19 CL   UNL     1      -9.793  -0.922   2.843  0.00  0.00    -0.082 Cl
ENDBRANCH  11  13
BRANCH   1  20
ATOM     20  S   UNL     1      -9.058  -0.960  -0.371  0.00  0.00    -0.114 S 
BRANCH  20  21
ATOM     21  C   UNL     1      -7.609  -2.046  -0.254  0.00  0.00    +0.082 C 
BRANCH  21  22
ATOM     22  C   UNL     1      -6.341  -1.195  -0.160  0.00  0.00    +0.107 C 
BRANCH  22  24
ATOM     23  N   UNL     1      -3.903  -1.566   0.030  0.00  0.00    -0.283 N 
ATOM     24  C   UNL     1      -5.138  -2.097  -0.062  0.00  0.00    +0.218 C 
ATOM     25  O   UNL     1      -5.280  -3.302  -0.067  0.00  0.00    -0.275 OA
ATOM     26  H   UNL     1      -3.793  -0.606   0.115  0.00  0.00    +0.155 HD
BRANCH  23  32
ATOM     27  C   UNL     1      -1.584  -1.981   0.589  0.00  0.00    +0.142 A 
ATOM     28  C   UNL     1      -0.476  -2.812   0.565  0.00  0.00    +0.047 A 
ATOM     29  C   UNL     1      -0.554  -4.051  -0.043  0.00  0.00    +0.004 A 
ATOM     30  C   UNL     1      -1.736  -4.465  -0.628  0.00  0.00    +0.002 A 
ATOM     31  C   UNL     1      -2.846  -3.643  -0.608  0.00  0.00    +0.027 A 
ATOM     32  C   UNL     1      -2.777  -2.400   0.004  0.00  0.00    +0.076 A 
BRANCH  27  33
ATOM     33  O   UNL     1      -1.509  -0.762   1.187  0.00  0.00    -0.490 OA
BRANCH  33  35
ATOM     34  C   UNL     1      -0.362   0.995   2.386  0.00  0.00    +0.048 C 
ATOM     35  C   UNL     1      -0.254  -0.400   1.765  0.00  0.00    +0.226 C 
ENDBRANCH  33  35
ENDBRANCH  27  33
ENDBRANCH  23  32
ENDBRANCH  22  24
ENDBRANCH  21  22
ENDBRANCH  20  21
ENDBRANCH   1  20
TORSDOF 8
