REMARK  Name = ZINC38703474
REMARK  7 active torsions:
REMARK  status: ('A' for Active; 'I' for Inactive)
REMARK    1  A    between atoms: C_4  and  O_37
REMARK    2  A    between atoms: C_5  and  C_7
REMARK    3  A    between atoms: C_9  and  C_13
REMARK    4  A    between atoms: N_15  and  C_16
REMARK    5  A    between atoms: C_18  and  C_28
REMARK    6  A    between atoms: N_30  and  C_31
REMARK    7  A    between atoms: C_31  and  C_32
REMARK                            x       y       z     vdW  Elec       q    Type
REMARK                         _______ _______ _______ _____ _____    ______ ____
ROOT
ATOM      1  C   UNL     1       3.985  -6.427  -2.772  0.00  0.00    +0.143 C 
ATOM      2  C   UNL     1       5.414  -5.870  -2.952  0.00  0.00    +0.109 C 
ATOM      3  C   UNL     1       6.335  -6.917  -3.573  0.00  0.00    +0.016 C 
ATOM      4  C   UNL     1       6.040  -7.004  -5.090  0.00  0.00    +0.005 C 
ATOM      5  C   UNL     1       6.488  -8.438  -5.461  0.00  0.00    +0.001 C 
ATOM      6  C   UNL     1       6.072  -9.289  -4.243  0.00  0.00    +0.014 C 
ATOM      7  C   UNL     1       6.045  -8.335  -3.025  0.00  0.00    +0.052 C 
ATOM      8  S   UNL     1       4.307  -8.204  -2.430  0.00  0.00    -0.134 S 
ENDROOT
BRANCH   1  11
ATOM      9  C   UNL     1       2.021  -5.419  -1.741  0.00  0.00    +0.244 C 
ATOM     10  O   UNL     1       1.415  -5.615  -2.773  0.00  0.00    -0.273 OA
ATOM     11  N   UNL     1       3.313  -5.788  -1.638  0.00  0.00    -0.301 N 
ATOM     12  H   UNL     1       3.798  -5.632  -0.813  0.00  0.00    +0.150 HD
BRANCH   9  15
ATOM     13  C   UNL     1       0.506  -2.661  -0.649  0.00  0.00    +0.095 C 
ATOM     14  C   UNL     1       1.688  -3.289  -0.498  0.00  0.00    +0.041 C 
ATOM     15  C   UNL     1       1.330  -4.762  -0.574  0.00  0.00    +0.238 C 
ATOM     16  N   UNL     1      -0.129  -4.743  -0.773  0.00  0.00    -0.170 NA
ATOM     17  N   UNL     1      -0.496  -3.567  -0.797  0.00  0.00    -0.153 NA
BRANCH  13  22
ATOM     18  C   UNL     1      -1.113   0.728  -0.802  0.00  0.00    +0.001 A 
ATOM     19  C   UNL     1      -0.020   1.562  -0.643  0.00  0.00    +0.004 A 
ATOM     20  C   UNL     1       1.246   1.029  -0.485  0.00  0.00    +0.046 A 
ATOM     21  C   UNL     1       1.426  -0.345  -0.485  0.00  0.00    +0.126 A 
ATOM     22  C   UNL     1       0.323  -1.189  -0.646  0.00  0.00    +0.043 A 
ATOM     23  C   UNL     1      -0.948  -0.642  -0.805  0.00  0.00    +0.014 A 
BRANCH  21  24
ATOM     24  O   UNL     1       2.669  -0.869  -0.331  0.00  0.00    -0.506 OA
ATOM     25  H   UNL     1       2.914  -1.036   0.590  0.00  0.00    +0.292 HD
ENDBRANCH  21  24
ENDBRANCH  13  22
ENDBRANCH   9  15
ENDBRANCH   1  11
BRANCH   2  26
ATOM     26  C   UNL     1       5.365  -4.661  -3.850  0.00  0.00    +0.219 C 
ATOM     27  O   UNL     1       4.458  -4.532  -4.644  0.00  0.00    -0.275 OA
ATOM     28  N   UNL     1       6.330  -3.723  -3.770  0.00  0.00    -0.308 N 
ATOM     29  H   UNL     1       7.055  -3.826  -3.135  0.00  0.00    +0.149 HD
BRANCH  28  30
ATOM     30  C   UNL     1       6.282  -2.547  -4.643  0.00  0.00    +0.178 C 
BRANCH  30  31
ATOM     31  C   UNL     1       7.467  -1.660  -4.357  0.00  0.00    +0.122 A 
ATOM     32  C   UNL     1       8.665  -1.729  -4.963  0.00  0.00    +0.046 A 
ATOM     33  C   UNL     1       9.472  -0.719  -4.391  0.00  0.00    +0.041 A 
ATOM     34  C   UNL     1       8.718  -0.093  -3.470  0.00  0.00    +0.195 A 
ATOM     35  O   UNL     1       7.502  -0.664  -3.457  0.00  0.00    -0.466 OA
ENDBRANCH  30  31
ENDBRANCH  28  30
ENDBRANCH   2  26
TORSDOF 7
