REMARK  Name = ZINC04512665
REMARK  4 active torsions:
REMARK  status: ('A' for Active; 'I' for Inactive)
REMARK    1  A    between atoms: C_4  and  C_7
REMARK    2  A    between atoms: C_9  and  C_12
REMARK    3  A    between atoms: C_12  and  N_13
REMARK    4  A    between atoms: C_14  and  C_16
REMARK                            x       y       z     vdW  Elec       q    Type
REMARK                         _______ _______ _______ _____ _____    ______ ____
ROOT
ATOM      1  N   UNL     1       1.143   1.898   0.001  0.00  0.00    -0.306 N 
ATOM      2  C   UNL     1      -0.014   1.209   0.009  0.00  0.00    +0.220 C 
ATOM      3  O   UNL     1       0.002  -0.004   0.002  0.00  0.00    -0.275 OA
ATOM      4  H   UNL     1       1.130   2.868   0.007  0.00  0.00    +0.149 HD
ENDROOT
BRANCH   2   5
ATOM      5  C   UNL     1      -1.330   1.944   0.019  0.00  0.00    +0.048 C 
ATOM      6  C   UNL     1      -1.417   2.816   1.273  0.00  0.00    +0.019 C 
ATOM      7  C   UNL     1      -2.752   3.563   1.284  0.00  0.00    -0.009 C 
ATOM      8  C   UNL     1      -3.901   2.553   1.284  0.00  0.00    +0.007 C 
ATOM      9  C   UNL     1      -3.814   1.681   0.029  0.00  0.00    -0.009 C 
ATOM     10  C   UNL     1      -2.479   0.934   0.019  0.00  0.00    +0.019 C 
ATOM     11  C   UNL     1      -3.913   2.567  -1.215  0.00  0.00    +0.007 C 
ATOM     12  C   UNL     1      -2.764   3.576  -1.215  0.00  0.00    -0.009 C 
ATOM     13  C   UNL     1      -2.851   4.448   0.040  0.00  0.00    +0.007 C 
ATOM     14  C   UNL     1      -1.429   2.829  -1.225  0.00  0.00    +0.019 C 
ENDBRANCH   2   5
BRANCH   1  15
ATOM     15  C   UNL     1       2.422   1.183  -0.015  0.00  0.00    +0.203 C 
BRANCH  15  18
ATOM     16  C   UNL     1       5.093   3.522   0.545  0.00  0.00    +0.202 A 
ATOM     17  N   UNL     1       4.148   2.686   1.031  0.00  0.00    -0.190 NA
ATOM     18  C   UNL     1       3.554   2.178  -0.020  0.00  0.00    +0.245 A 
ATOM     19  O   UNL     1       4.144   2.703  -1.098  0.00  0.00    -0.336 OA
ATOM     20  N   UNL     1       5.018   3.473  -0.760  0.00  0.00    -0.056 NA
BRANCH  16  24
ATOM     21  C   UNL     1       7.805   5.869   2.831  0.00  0.00    +0.000 A 
ATOM     22  C   UNL     1       7.843   5.922   1.449  0.00  0.00    +0.001 A 
ATOM     23  C   UNL     1       6.965   5.162   0.702  0.00  0.00    +0.012 A 
ATOM     24  C   UNL     1       6.040   4.341   1.343  0.00  0.00    +0.022 A 
ATOM     25  C   UNL     1       6.001   4.296   2.735  0.00  0.00    +0.012 A 
ATOM     26  C   UNL     1       6.888   5.056   3.471  0.00  0.00    +0.001 A 
ENDBRANCH  16  24
ENDBRANCH  15  18
ENDBRANCH   1  15
TORSDOF 4
