REMARK  Name = ZINC05601372
REMARK  5 active torsions:
REMARK  status: ('A' for Active; 'I' for Inactive)
REMARK    1  A    between atoms: C_1  and  C_2
REMARK    2  A    between atoms: C_2  and  C_4
REMARK    3  A    between atoms: C_10  and  O_23
REMARK    4  A    between atoms: C_21  and  O_22
REMARK    5  A    between atoms: O_23  and  C_24
REMARK                            x       y       z     vdW  Elec       q    Type
REMARK                         _______ _______ _______ _____ _____    ______ ____
ROOT
ATOM      1  C   UNL     1       0.275   9.630  -0.425  0.00  0.00    +0.203 C 
ATOM      2  C   UNL     1      -0.344   8.274  -0.013  0.00  0.00    +0.091 C 
ATOM      3  C   UNL     1       0.872   7.367   0.001  0.00  0.00    +0.041 A 
ATOM      4  C   UNL     1       1.993   8.187  -0.006  0.00  0.00    +0.132 A 
ATOM      5  C   UNL     1       3.266   7.613  -0.019  0.00  0.00    +0.092 A 
ATOM      6  C   UNL     1       3.414   6.240  -0.017  0.00  0.00    +0.138 A 
ATOM      7  C   UNL     1       2.280   5.417  -0.002  0.00  0.00    +0.107 A 
ATOM      8  C   UNL     1       0.994   5.989   0.011  0.00  0.00    +0.150 A 
ATOM      9  O   UNL     1      -0.109   5.212   0.029  0.00  0.00    -0.450 OA
ATOM     10  C   UNL     1      -0.071   3.863   0.022  0.00  0.00    +0.180 A 
ATOM     11  C   UNL     1       1.150   3.174   0.007  0.00  0.00    +0.068 A 
ATOM     12  C   UNL     1       2.407   3.951  -0.002  0.00  0.00    +0.204 A 
ATOM     13  O   UNL     1       3.495   3.405  -0.009  0.00  0.00    -0.286 OA
ATOM     14  C   UNL     1       1.173   1.779   0.000  0.00  0.00    +0.015 A 
ATOM     15  C   UNL     1      -0.013   1.076   0.008  0.00  0.00    +0.004 A 
ATOM     16  C   UNL     1      -1.223   1.750   0.017  0.00  0.00    +0.049 A 
ATOM     17  C   UNL     1      -1.260   3.133   0.030  0.00  0.00    +0.160 A 
ATOM     18  O   UNL     1       1.640   9.501   0.010  0.00  0.00    -0.484 OA
ENDROOT
BRANCH   1  20
ATOM     19  C   UNL     1      -0.298  10.889   1.789  0.00  0.00    +0.042 C 
ATOM     20  C   UNL     1      -0.407  10.768   0.291  0.00  0.00    -0.040 C 
ATOM     21  C   UNL     1      -1.095  11.651  -0.389  0.00  0.00    +0.011 C 
ENDBRANCH   1  20
BRANCH  17  22
ATOM     22  O   UNL     1      -2.456   3.781   0.044  0.00  0.00    -0.503 OA
ATOM     23  H   UNL     1      -2.810   3.972  -0.835  0.00  0.00    +0.292 HD
ENDBRANCH  17  22
BRANCH   6  24
ATOM     24  O   UNL     1       4.654   5.689  -0.030  0.00  0.00    -0.494 OA
ATOM     25  C   UNL     1       5.763   6.589  -0.046  0.00  0.00    +0.277 C 
ENDBRANCH   6  24
TORSDOF 3
