REMARK  Name = ZINC40102663
REMARK  10 active torsions:
REMARK  status: ('A' for Active; 'I' for Inactive)
REMARK    1  A    between atoms: C_4  and  C_7
REMARK    2  A    between atoms: C_7  and  O_8
REMARK    3  A    between atoms: O_8  and  C_9
REMARK    4  A    between atoms: C_13  and  C_15
REMARK    5  A    between atoms: C_15  and  C_17
REMARK    6  A    between atoms: N_21  and  C_33
REMARK    7  A    between atoms: C_22  and  C_24
REMARK    8  A    between atoms: C_29  and  N_30
REMARK    9  A    between atoms: C_33  and  C_34
REMARK   10  A    between atoms: C_34  and  O_35
REMARK                            x       y       z     vdW  Elec       q    Type
REMARK                         _______ _______ _______ _____ _____    ______ ____
ROOT
ATOM      1  C   UNL     1       9.261  -3.212   5.132  0.00  0.00    +0.076 C 
ATOM      2  C   UNL     1       9.601  -4.065   6.126  0.00  0.00    +0.249 C 
ATOM      3  C   UNL     1      10.398  -5.175   5.562  0.00  0.00    +0.288 C 
ATOM      4  O   UNL     1      10.852  -6.103   6.201  0.00  0.00    -0.266 OA
ATOM      5  N   UNL     1      10.546  -5.005   4.236  0.00  0.00    -0.281 N 
ATOM      6  C   UNL     1       9.845  -3.773   3.857  0.00  0.00    +0.147 C 
ATOM      7  O   UNL     1       9.266  -3.925   7.429  0.00  0.00    -0.282 OA
ENDROOT
BRANCH   6   8
ATOM      8  C   UNL     1       8.745  -4.080   2.874  0.00  0.00    +0.008 A 
ATOM      9  C   UNL     1       8.035  -5.261   2.978  0.00  0.00    +0.008 A 
ATOM     10  C   UNL     1       7.026  -5.543   2.076  0.00  0.00    +0.000 A 
ATOM     11  C   UNL     1       6.727  -4.643   1.070  0.00  0.00    +0.002 A 
ATOM     12  C   UNL     1       7.436  -3.461   0.967  0.00  0.00    +0.033 A 
ATOM     13  C   UNL     1       8.443  -3.177   1.872  0.00  0.00    +0.131 A 
BRANCH  13  14
ATOM     14  N   UNL     1       9.199  -1.909   1.764  0.00  0.00    +0.057 N 
ATOM     15  O   UNL     1       8.876  -1.081   0.945  0.00  0.00    -0.126 OA
ATOM     16  O   UNL     1      10.139  -1.702   2.495  0.00  0.00    -0.126 OA
ENDBRANCH  13  14
ENDBRANCH   6   8
BRANCH   1  17
ATOM     17  C   UNL     1       8.472  -1.984   5.266  0.00  0.00    +0.195 C 
ATOM     18  O   UNL     1       7.263  -2.048   5.394  0.00  0.00    -0.287 OA
BRANCH  17  23
ATOM     19  C   UNL     1       9.032   1.733   5.354  0.00  0.00    +0.122 A 
ATOM     20  C   UNL     1      10.411   1.799   5.207  0.00  0.00    +0.046 A 
ATOM     21  C   UNL     1      11.155   0.640   5.080  0.00  0.00    +0.004 A 
ATOM     22  C   UNL     1      10.530  -0.590   5.098  0.00  0.00    +0.012 A 
ATOM     23  C   UNL     1       9.144  -0.667   5.246  0.00  0.00    +0.026 A 
ATOM     24  C   UNL     1       8.396   0.504   5.380  0.00  0.00    +0.057 A 
BRANCH  19  25
ATOM     25  O   UNL     1       8.306   2.876   5.478  0.00  0.00    -0.487 OA
BRANCH  25  26
ATOM     26  C   UNL     1       9.027   4.109   5.442  0.00  0.00    +0.264 C 
BRANCH  26  30
ATOM     27  C   UNL     1       6.300   7.368   5.869  0.00  0.00    +0.000 A 
ATOM     28  C   UNL     1       6.874   6.796   6.989  0.00  0.00    +0.000 A 
ATOM     29  C   UNL     1       7.756   5.741   6.851  0.00  0.00    +0.007 A 
ATOM     30  C   UNL     1       8.064   5.258   5.593  0.00  0.00    -0.010 A 
ATOM     31  C   UNL     1       7.489   5.830   4.473  0.00  0.00    +0.007 A 
ATOM     32  C   UNL     1       6.608   6.886   4.611  0.00  0.00    +0.000 A 
ENDBRANCH  26  30
ENDBRANCH  25  26
ENDBRANCH  19  25
ENDBRANCH  17  23
ENDBRANCH   1  17
BRANCH   5  33
ATOM     33  C   UNL     1      11.274  -5.896   3.329  0.00  0.00    +0.137 C 
BRANCH  33  34
ATOM     34  C   UNL     1      10.374  -7.069   2.935  0.00  0.00    +0.175 C 
BRANCH  34  35
ATOM     35  O   UNL     1       9.526  -6.677   1.854  0.00  0.00    -0.393 OA
ATOM     36  H   UNL     1       8.898  -7.360   1.579  0.00  0.00    +0.209 HD
ENDBRANCH  34  35
ENDBRANCH  33  34
ENDBRANCH   5  33
TORSDOF 10
