REMARK  Name = ZINC39722564
REMARK  10 active torsions:
REMARK  status: ('A' for Active; 'I' for Inactive)
REMARK    1  A    between atoms: C_1  and  C_2
REMARK    2  A    between atoms: C_6  and  O_8
REMARK    3  A    between atoms: O_8  and  C_9
REMARK    4  A    between atoms: C_9  and  C_10
REMARK    5  A    between atoms: C_14  and  S_20
REMARK    6  A    between atoms: N_16  and  C_17
REMARK    7  A    between atoms: C_17  and  C_18
REMARK    8  A    between atoms: S_20  and  C_21
REMARK    9  A    between atoms: C_21  and  C_22
REMARK   10  A    between atoms: C_30  and  C_34
REMARK                            x       y       z     vdW  Elec       q    Type
REMARK                         _______ _______ _______ _____ _____    ______ ____
ROOT
ATOM      1  C   UNL     1       0.134  -4.706   3.701  0.00  0.00    +0.238 C 
ATOM      2  N   UNL     1      -1.105  -4.160   4.269  0.00  0.00    -0.167 NA
ATOM      3  N   UNL     1      -0.866  -3.256   5.076  0.00  0.00    -0.160 NA
ATOM      4  C   UNL     1       0.578  -3.024   5.201  0.00  0.00    +0.259 C 
ATOM      5  N   UNL     1       1.210  -4.233   4.608  0.00  0.00    -0.241 NA
ENDROOT
BRANCH   1   6
ATOM      6  C   UNL     1       0.354  -4.167   2.286  0.00  0.00    +0.273 C 
BRANCH   6   7
ATOM      7  O   UNL     1       0.381  -2.738   2.320  0.00  0.00    -0.488 OA
BRANCH   7  13
ATOM      8  C   UNL     1       0.838   1.445  -0.152  0.00  0.00    +0.044 C 
ATOM      9  C   UNL     1       0.798  -0.061  -0.107  0.00  0.00    -0.047 A 
ATOM     10  C   UNL     1       0.954  -0.791  -1.271  0.00  0.00    +0.003 A 
ATOM     11  C   UNL     1       0.917  -2.172  -1.234  0.00  0.00    +0.004 A 
ATOM     12  C   UNL     1       0.726  -2.827  -0.032  0.00  0.00    +0.045 A 
ATOM     13  C   UNL     1       0.570  -2.097   1.137  0.00  0.00    +0.121 A 
ATOM     14  C   UNL     1       0.613  -0.710   1.097  0.00  0.00    +0.049 A 
ENDBRANCH   7  13
ENDBRANCH   6   7
ENDBRANCH   1   6
BRANCH   5  15
ATOM     15  C   UNL     1       1.505  -5.234   5.642  0.00  0.00    +0.116 C 
BRANCH  15  16
ATOM     16  C   UNL     1       2.145  -6.441   5.005  0.00  0.00    -0.019 C 
ATOM     17  C   UNL     1       3.310  -6.865   5.428  0.00  0.00    +0.005 C 
ENDBRANCH  15  16
ENDBRANCH   5  15
BRANCH   4  18
ATOM     18  S   UNL     1       1.042  -2.858   6.947  0.00  0.00    -0.109 S 
BRANCH  18  19
ATOM     19  C   UNL     1       0.450  -1.205   7.404  0.00  0.00    +0.146 C 
BRANCH  19  20
ATOM     20  C   UNL     1       0.883  -0.888   8.812  0.00  0.00    +0.120 A 
ATOM     21  N   UNL     1       0.527   0.313   9.340  0.00  0.00    -0.310 N 
ATOM     22  H   UNL     1       0.008   0.936   8.809  0.00  0.00    +0.170 HD
ATOM     23  C   UNL     1       0.891   0.646  10.600  0.00  0.00    +0.259 A 
ATOM     24  O   UNL     1       0.579   1.717  11.086  0.00  0.00    -0.267 OA
ATOM     25  C   UNL     1       1.678  -0.340  11.362  0.00  0.00    +0.065 A 
ATOM     26  C   UNL     1       2.100  -0.092  12.666  0.00  0.00    +0.016 A 
ATOM     27  C   UNL     1       2.828  -1.033  13.336  0.00  0.00    +0.016 A 
ATOM     28  C   UNL     1       3.156  -2.250  12.723  0.00  0.00    +0.065 A 
ATOM     29  C   UNL     1       2.745  -2.516  11.422  0.00  0.00    +0.043 A 
ATOM     30  C   UNL     1       2.000  -1.560  10.729  0.00  0.00    +0.079 A 
ATOM     31  N   UNL     1       1.571  -1.777   9.460  0.00  0.00    -0.233 NA
BRANCH  28  32
ATOM     32  C   UNL     1       3.945  -3.256  13.465  0.00  0.00    +0.387 C 
ATOM     33  O   UNL     1       4.308  -3.026  14.609  0.00  0.00    -0.241 OA
ATOM     34  O   UNL     1       4.233  -4.319  12.934  0.00  0.00    -0.241 OA
ENDBRANCH  28  32
ENDBRANCH  19  20
ENDBRANCH  18  19
ENDBRANCH   4  18
TORSDOF 9
