REMARK  Name = ZINC22108246
REMARK  9 active torsions:
REMARK  status: ('A' for Active; 'I' for Inactive)
REMARK    1  A    between atoms: C_1  and  C_2
REMARK    2  A    between atoms: C_3  and  C_30
REMARK    3  A    between atoms: C_11  and  C_13
REMARK    4  A    between atoms: C_13  and  S_14
REMARK    5  A    between atoms: S_14  and  C_15
REMARK    6  A    between atoms: C_15  and  C_17
REMARK    7  A    between atoms: C_15  and  C_18
REMARK    8  A    between atoms: N_20  and  C_21
REMARK    9  A    between atoms: C_24  and  N_27
REMARK                            x       y       z     vdW  Elec       q    Type
REMARK                         _______ _______ _______ _____ _____    ______ ____
ROOT
ATOM      1  S   UNL     1       0.109  -5.136   3.940  0.00  0.00    -0.141 S 
ENDROOT
BRANCH   1   2
ATOM      2  C   UNL     1       0.141  -6.148   5.446  0.00  0.00    +0.130 C 
ATOM      3  C   UNL     1       1.457  -5.913   6.190  0.00  0.00    +0.029 C 
BRANCH   2   4
ATOM      4  C   UNL     1       0.026  -7.604   5.075  0.00  0.00    +0.230 C 
ATOM      5  O   UNL     1       0.378  -7.980   3.977  0.00  0.00    -0.274 OA
ATOM      6  N   UNL     1      -0.469  -8.488   5.964  0.00  0.00    -0.285 N 
ATOM      7  H   UNL     1      -0.688  -8.200   6.864  0.00  0.00    +0.155 HD
BRANCH   6   8
ATOM      8  C   UNL     1      -0.666  -9.822   5.588  0.00  0.00    +0.034 A 
ATOM      9  C   UNL     1      -1.746 -10.534   6.093  0.00  0.00    +0.025 A 
ATOM     10  C   UNL     1      -1.938 -11.850   5.720  0.00  0.00    +0.034 A 
ATOM     11  C   UNL     1      -1.057 -12.458   4.846  0.00  0.00    +0.126 A 
ATOM     12  C   UNL     1       0.020 -11.751   4.341  0.00  0.00    +0.034 A 
ATOM     13  C   UNL     1       0.214 -10.433   4.705  0.00  0.00    +0.025 A 
BRANCH  11  14
ATOM     14  N   UNL     1      -1.266 -13.869   4.448  0.00  0.00    +0.056 N 
ATOM     15  O   UNL     1      -2.206 -14.488   4.888  0.00  0.00    -0.126 OA
ATOM     16  O   UNL     1      -0.496 -14.402   3.683  0.00  0.00    -0.126 OA
ENDBRANCH  11  14
ENDBRANCH   6   8
ENDBRANCH   2   4
ENDBRANCH   1   2
BRANCH   1  17
ATOM     17  C   UNL     1       0.102  -3.431   4.557  0.00  0.00    +0.144 C 
BRANCH  17  28
ATOM     18  C   UNL     1      -0.013   1.517   0.034  0.00  0.00    +0.045 C 
ATOM     19  C   UNL     1       0.001   0.010   0.022  0.00  0.00    -0.026 A 
ATOM     20  C   UNL     1      -0.004  -0.660  -1.142  0.00  0.00    -0.008 A 
ATOM     21  S   UNL     1       0.018  -2.369  -0.635  0.00  0.00    -0.073 S 
ATOM     22  C   UNL     1       0.034  -2.134   1.124  0.00  0.00    +0.116 A 
ATOM     23  C   UNL     1       0.027  -0.734   1.267  0.00  0.00    +0.075 A 
ATOM     24  C   UNL     1       0.042  -0.250   2.616  0.00  0.00    +0.260 A 
ATOM     25  O   UNL     1       0.033   0.948   2.843  0.00  0.00    -0.267 OA
ATOM     26  N   UNL     1       0.066  -1.138   3.627  0.00  0.00    -0.310 N 
ATOM     27  H   UNL     1       0.076  -0.816   4.542  0.00  0.00    +0.170 HD
ATOM     28  C   UNL     1       0.075  -2.475   3.392  0.00  0.00    +0.121 A 
ATOM     29  N   UNL     1       0.053  -2.948   2.175  0.00  0.00    -0.226 NA
ATOM     30  C   UNL     1      -0.025  -0.101  -2.541  0.00  0.00    +0.052 C 
ENDBRANCH  17  28
ENDBRANCH   1  17
TORSDOF 6
