REMARK  Name = ZINC22922868
REMARK  9 active torsions:
REMARK  status: ('A' for Active; 'I' for Inactive)
REMARK    1  A    between atoms: C_1  and  N_2
REMARK    2  A    between atoms: N_7  and  C_29
REMARK    3  A    between atoms: C_14  and  C_16
REMARK    4  A    between atoms: C_16  and  C_17
REMARK    5  A    between atoms: C_17  and  C_18
REMARK    6  A    between atoms: N_20  and  C_21
REMARK    7  A    between atoms: C_21  and  C_22
REMARK    8  A    between atoms: C_29  and  C_30
REMARK    9  A    between atoms: C_33  and  C_36
REMARK                            x       y       z     vdW  Elec       q    Type
REMARK                         _______ _______ _______ _____ _____    ______ ____
ROOT
ATOM      1  C   UNL     1      -0.348   1.473   0.155  0.00  0.00    -0.095 C 
ATOM      2  N   UNL     1       0.017   0.061  -0.020  0.00  0.00    +0.384 N 
ATOM      3  C   UNL     1       0.449  -0.128  -1.389  0.00  0.00    -0.041 C 
ATOM      4  C   UNL     1      -0.688   0.390  -2.314  0.00  0.00    +0.002 C 
ATOM      5  C   UNL     1      -1.529  -0.859  -2.645  0.00  0.00    +0.084 C 
ATOM      6  N   UNL     1      -0.896  -2.007  -1.950  0.00  0.00    -0.289 NA
ATOM      7  C   UNL     1       0.537  -1.613  -1.758  0.00  0.00    +0.130 C 
ATOM      8  C   UNL     1       1.327  -2.473  -0.883  0.00  0.00    +0.229 C 
ATOM      9  O   UNL     1       2.025  -3.253  -1.496  0.00  0.00    -0.274 OA
ATOM     10  N   UNL     1       1.452  -2.590   0.414  0.00  0.00    -0.316 N 
ATOM     11  C   UNL     1       0.933  -1.704   1.438  0.00  0.00    +0.089 C 
ATOM     12  C   UNL     1       0.971  -0.283   0.994  0.00  0.00    -0.051 C 
ATOM     13  H   UNL     1       1.950  -3.361   0.727  0.00  0.00    +0.149 HD
ATOM     14  H   UNL     1      -0.811  -0.497   0.126  0.00  0.00    -0.081 HD
ENDROOT
BRANCH  12  15
ATOM     15  C   UNL     1       0.731   0.608   2.214  0.00  0.00    -0.005 C 
BRANCH  15  16
ATOM     16  C   UNL     1       1.763   0.283   3.295  0.00  0.00    +0.094 C 
BRANCH  16  17
ATOM     17  C   UNL     1       1.612   1.250   4.441  0.00  0.00    +0.213 C 
ATOM     18  O   UNL     1       0.763   2.114   4.398  0.00  0.00    -0.276 OA
ATOM     19  N   UNL     1       2.422   1.154   5.515  0.00  0.00    -0.311 N 
ATOM     20  H   UNL     1       3.101   0.462   5.550  0.00  0.00    +0.149 HD
BRANCH  19  21
ATOM     21  C   UNL     1       2.275   2.093   6.629  0.00  0.00    +0.139 C 
BRANCH  21  22
ATOM     22  C   UNL     1       3.292   1.772   7.694  0.00  0.00    -0.030 A 
ATOM     23  C   UNL     1       2.979   0.879   8.702  0.00  0.00    +0.008 A 
ATOM     24  C   UNL     1       3.911   0.584   9.678  0.00  0.00    +0.038 A 
ATOM     25  C   UNL     1       5.159   1.183   9.648  0.00  0.00    +0.123 A 
ATOM     26  C   UNL     1       5.471   2.078   8.638  0.00  0.00    +0.038 A 
ATOM     27  C   UNL     1       4.539   2.368   7.659  0.00  0.00    +0.008 A 
ATOM     28  F   UNL     1       6.070   0.896  10.602  0.00  0.00    -0.205 F 
ENDBRANCH  21  22
ENDBRANCH  19  21
ENDBRANCH  16  17
ENDBRANCH  15  16
ENDBRANCH  12  15
BRANCH   6  29
ATOM     29  C   UNL     1      -0.998  -3.231  -2.756  0.00  0.00    +0.120 C 
BRANCH  29  30
ATOM     30  C   UNL     1      -2.433  -3.689  -2.794  0.00  0.00    -0.033 A 
ATOM     31  C   UNL     1      -2.906  -4.556  -1.825  0.00  0.00    +0.006 A 
ATOM     32  C   UNL     1      -4.218  -4.979  -1.854  0.00  0.00    +0.015 A 
ATOM     33  C   UNL     1      -5.071  -4.530  -2.865  0.00  0.00    +0.063 A 
ATOM     34  C   UNL     1      -4.587  -3.655  -3.840  0.00  0.00    +0.015 A 
ATOM     35  C   UNL     1      -3.274  -3.235  -3.796  0.00  0.00    +0.006 A 
BRANCH  33  36
ATOM     36  C   UNL     1      -6.476  -4.979  -2.903  0.00  0.00    +0.387 C 
ATOM     37  O   UNL     1      -6.896  -5.746  -2.049  0.00  0.00    -0.241 OA
ATOM     38  O   UNL     1      -7.220  -4.585  -3.790  0.00  0.00    -0.241 OA
ENDBRANCH  33  36
ENDBRANCH  29  30
ENDBRANCH   6  29
TORSDOF 8
