REMARK  Name = ZINC08877652
REMARK  10 active torsions:
REMARK  status: ('A' for Active; 'I' for Inactive)
REMARK    1  A    between atoms: C_1  and  O_2
REMARK    2  A    between atoms: O_2  and  C_3
REMARK    3  A    between atoms: C_3  and  C_5
REMARK    4  A    between atoms: C_5  and  C_15
REMARK    5  A    between atoms: C_15  and  C_17
REMARK    6  A    between atoms: C_17  and  S_18
REMARK    7  A    between atoms: S_18  and  C_19
REMARK    8  A    between atoms: C_22  and  C_24
REMARK    9  A    between atoms: C_27  and  O_30
REMARK   10  A    between atoms: O_30  and  C_31
REMARK                            x       y       z     vdW  Elec       q    Type
REMARK                         _______ _______ _______ _____ _____    ______ ____
ROOT
ATOM      1  C   UNL     1       1.230  -0.691  -0.013  0.00  0.00    +0.183 C 
ATOM      2  O   UNL     1       1.246  -1.906  -0.020  0.00  0.00    -0.291 OA
ENDROOT
BRANCH   1   3
ATOM      3  C   UNL     1       0.002  -0.004   0.002  0.00  0.00    +0.138 C 
ATOM      4  C   UNL     1      -1.208  -0.725   0.010  0.00  0.00    +0.110 C 
ATOM      5  N   UNL     1      -1.316  -2.077  -0.002  0.00  0.00    -0.301 N 
ATOM      6  C   UNL     1      -2.667  -2.406   0.015  0.00  0.00    +0.054 A 
ATOM      7  C   UNL     1      -3.348  -3.616   0.015  0.00  0.00    +0.025 A 
ATOM      8  C   UNL     1      -4.728  -3.627   0.028  0.00  0.00    +0.002 A 
ATOM      9  C   UNL     1      -5.437  -2.438   0.041  0.00  0.00    +0.002 A 
ATOM     10  C   UNL     1      -4.769  -1.230   0.040  0.00  0.00    +0.025 A 
ATOM     11  C   UNL     1      -3.381  -1.206   0.028  0.00  0.00    +0.054 A 
ATOM     12  N   UNL     1      -2.449  -0.176   0.025  0.00  0.00    -0.301 N 
ATOM     13  H   UNL     1      -0.578  -2.706  -0.018  0.00  0.00    +0.153 HD
ATOM     14  H   UNL     1      -2.650   0.773   0.031  0.00  0.00    +0.153 HD
BRANCH   3  15
ATOM     15  C   UNL     1      -0.018   1.457   0.010  0.00  0.00    +0.345 C 
ATOM     16  O   UNL     1      -1.080   2.051   0.018  0.00  0.00    -0.245 OA
BRANCH  15  18
ATOM     17  C   UNL     1       1.047   3.574   0.011  0.00  0.00    +0.280 C 
ATOM     18  O   UNL     1       1.141   2.148   0.003  0.00  0.00    -0.464 OA
ENDBRANCH  15  18
ENDBRANCH   3  15
ENDBRANCH   1   3
BRANCH   1  19
ATOM     19  C   UNL     1       2.524   0.080  -0.022  0.00  0.00    +0.159 C 
BRANCH  19  20
ATOM     20  S   UNL     1       3.916  -1.077  -0.041  0.00  0.00    -0.058 S 
BRANCH  20  21
ATOM     21  C   UNL     1       5.261   0.062  -0.048  0.00  0.00    +0.278 A 
ATOM     22  N   UNL     1       5.170   1.371  -0.040  0.00  0.00    -0.101 NA
ATOM     23  N   UNL     1       6.351   1.882  -0.048  0.00  0.00    -0.106 NA
ATOM     24  C   UNL     1       7.242   0.921  -0.062  0.00  0.00    +0.249 A 
ATOM     25  O   UNL     1       6.571  -0.252  -0.057  0.00  0.00    -0.411 OA
BRANCH  24  26
ATOM     26  C   UNL     1       8.709   1.089  -0.076  0.00  0.00    +0.039 A 
ATOM     27  C   UNL     1       9.542  -0.032  -0.084  0.00  0.00    +0.017 A 
ATOM     28  C   UNL     1      10.911   0.130  -0.102  0.00  0.00    +0.046 A 
ATOM     29  C   UNL     1      11.462   1.404  -0.101  0.00  0.00    +0.127 A 
ATOM     30  C   UNL     1      10.637   2.522  -0.087  0.00  0.00    +0.046 A 
ATOM     31  C   UNL     1       9.267   2.369  -0.075  0.00  0.00    +0.017 A 
BRANCH  29  32
ATOM     32  O   UNL     1      12.812   1.559  -0.114  0.00  0.00    -0.434 OA
BRANCH  32  33
ATOM     33  C   UNL     1      13.601   0.368  -0.128  0.00  0.00    +0.541 C 
ATOM     34  F   UNL     1      13.320  -0.391   1.013  0.00  0.00    -0.166 F 
ATOM     35  F   UNL     1      13.298  -0.379  -1.271  0.00  0.00    -0.166 F 
ENDBRANCH  32  33
ENDBRANCH  29  32
ENDBRANCH  24  26
ENDBRANCH  20  21
ENDBRANCH  19  20
ENDBRANCH   1  19
TORSDOF 9
