REMARK  Name = ZINC09044288
REMARK  7 active torsions:
REMARK  status: ('A' for Active; 'I' for Inactive)
REMARK    1  A    between atoms: C_1  and  O_2
REMARK    2  A    between atoms: O_2  and  C_3
REMARK    3  A    between atoms: C_3  and  C_5
REMARK    4  A    between atoms: C_6  and  C_15
REMARK    5  A    between atoms: N_21  and  C_24
REMARK    6  A    between atoms: C_24  and  C_25
REMARK    7  A    between atoms: C_25  and  C_26
REMARK                            x       y       z     vdW  Elec       q    Type
REMARK                         _______ _______ _______ _____ _____    ______ ____
ROOT
ATOM      1  C   UNL     1       1.902  -2.295  -3.297  0.00  0.00    +0.029 C 
ATOM      2  C   UNL     1       1.239  -1.413  -4.130  0.00  0.00    +0.102 C 
ATOM      3  C   UNL     1      -0.106  -0.893  -3.796  0.00  0.00    +0.276 C 
ATOM      4  N   UNL     1      -0.690  -0.040  -4.652  0.00  0.00    -0.123 NA
ATOM      5  C   UNL     1      -0.107   0.338  -5.762  0.00  0.00    +0.335 C 
ATOM      6  O   UNL     1      -0.765   1.197  -6.564  0.00  0.00    -0.250 OA
ATOM      7  N   UNL     1       1.124  -0.086  -6.151  0.00  0.00    -0.220 N 
ATOM      8  C   UNL     1       1.841  -0.942  -5.393  0.00  0.00    +0.259 C 
ATOM      9  O   UNL     1       2.945  -1.316  -5.740  0.00  0.00    -0.269 OA
ATOM     10  O   UNL     1      -0.669  -1.231  -2.769  0.00  0.00    -0.268 OA
ENDROOT
BRANCH   1  12
ATOM     11  C   UNL     1       1.606  -2.705  -0.834  0.00  0.00    +0.133 A 
ATOM     12  C   UNL     1       1.238  -2.841  -2.171  0.00  0.00    +0.015 A 
ATOM     13  C   UNL     1       0.019  -3.667  -2.178  0.00  0.00    +0.008 A 
ATOM     14  C   UNL     1      -0.816  -4.146  -3.187  0.00  0.00    +0.010 A 
ATOM     15  C   UNL     1      -1.902  -4.909  -2.865  0.00  0.00    +0.001 A 
ATOM     16  C   UNL     1      -2.182  -5.211  -1.538  0.00  0.00    +0.002 A 
ATOM     17  C   UNL     1      -1.372  -4.748  -0.526  0.00  0.00    +0.026 A 
ATOM     18  C   UNL     1      -0.258  -3.968  -0.832  0.00  0.00    +0.048 A 
ATOM     19  N   UNL     1       0.714  -3.382  -0.055  0.00  0.00    -0.349 N 
ATOM     20  H   UNL     1       0.757  -3.440   0.912  0.00  0.00    +0.166 HD
BRANCH  11  21
ATOM     21  C   UNL     1       2.776  -1.955  -0.340  0.00  0.00    +0.356 C 
ATOM     22  O   UNL     1       3.508  -1.387  -1.125  0.00  0.00    -0.243 OA
BRANCH  21  24
ATOM     23  C   UNL     1       4.182  -1.156   1.389  0.00  0.00    +0.280 C 
ATOM     24  O   UNL     1       3.032  -1.901   0.982  0.00  0.00    -0.463 OA
ENDBRANCH  21  24
ENDBRANCH  11  21
ENDBRANCH   1  12
BRANCH   7  25
ATOM     25  C   UNL     1       1.686   0.400  -7.414  0.00  0.00    +0.122 C 
BRANCH  25  26
ATOM     26  C   UNL     1       2.484   1.680  -7.158  0.00  0.00    +0.050 C 
BRANCH  26  27
ATOM     27  C   UNL     1       3.062   2.180  -8.457  0.00  0.00    -0.072 C 
ATOM     28  C   UNL     1       2.401   3.083  -9.108  0.00  0.00    -0.028 C 
ATOM     29  C   UNL     1       2.843   3.668 -10.417  0.00  0.00    +0.027 C 
ATOM     30  C   UNL     1       4.329   3.384 -10.646  0.00  0.00    +0.004 C 
ATOM     31  C   UNL     1       4.581   1.891 -10.402  0.00  0.00    +0.005 C 
ATOM     32  C   UNL     1       4.371   1.605  -8.912  0.00  0.00    +0.030 C 
ENDBRANCH  26  27
ENDBRANCH  25  26
ENDBRANCH   7  25
TORSDOF 6
