REMARK  Name = ZINC48016557
REMARK  10 active torsions:
REMARK  status: ('A' for Active; 'I' for Inactive)
REMARK    1  A    between atoms: C_1  and  C_2
REMARK    2  A    between atoms: N_12  and  C_13
REMARK    3  A    between atoms: C_13  and  C_14
REMARK    4  A    between atoms: C_14  and  C_15
REMARK    5  A    between atoms: C_20  and  N_23
REMARK    6  A    between atoms: C_24  and  O_26
REMARK    7  A    between atoms: O_26  and  C_27
REMARK    8  A    between atoms: C_27  and  C_28
REMARK    9  A    between atoms: C_27  and  C_29
REMARK   10  A    between atoms: C_27  and  C_30
REMARK                            x       y       z     vdW  Elec       q    Type
REMARK                         _______ _______ _______ _____ _____    ______ ____
ROOT
ATOM      1  C   UNL     1       2.267  -5.920  -2.523  0.00  0.00    +0.217 C 
ATOM      2  O   UNL     1       1.396  -6.245  -3.301  0.00  0.00    -0.276 OA
ATOM      3  N   UNL     1       3.551  -6.245  -2.775  0.00  0.00    -0.300 N 
ATOM      4  C   UNL     1       4.701  -5.921  -1.918  0.00  0.00    +0.109 C 
ATOM      5  C   UNL     1       5.956  -6.513  -2.593  0.00  0.00    +0.043 C 
ATOM      6  C   UNL     1       5.370  -7.625  -3.503  0.00  0.00    +0.095 C 
ATOM      7  C   UNL     1       4.034  -6.988  -3.953  0.00  0.00    +0.130 C 
ENDROOT
BRANCH   6   8
ATOM      8  N   UNL     1       6.245  -7.881  -4.649  0.00  0.00    -0.277 N 
ATOM      9  C   UNL     1       7.265  -8.755  -4.536  0.00  0.00    +0.401 C 
ATOM     10  O   UNL     1       7.458  -9.330  -3.483  0.00  0.00    -0.226 OA
ATOM     11  H   UNL     1       6.091  -7.422  -5.490  0.00  0.00    +0.152 HD
BRANCH   9  12
ATOM     12  O   UNL     1       8.070  -8.991  -5.589  0.00  0.00    -0.445 OA
BRANCH  12  13
ATOM     13  C   UNL     1       9.131  -9.929  -5.398  0.00  0.00    +0.107 C 
ATOM     14  C   UNL     1       8.545 -11.290  -5.016  0.00  0.00    +0.055 C 
ATOM     15  C   UNL     1       9.931 -10.064  -6.695  0.00  0.00    +0.055 C 
ATOM     16  C   UNL     1      10.051  -9.437  -4.279  0.00  0.00    +0.055 C 
ENDBRANCH  12  13
ENDBRANCH   9  12
ENDBRANCH   6   8
BRANCH   1  17
ATOM     17  C   UNL     1       1.915  -5.154  -1.274  0.00  0.00    +0.115 C 
BRANCH  17  18
ATOM     18  C   UNL     1       0.404  -4.917  -1.230  0.00  0.00    +0.123 C 
BRANCH  18  30
ATOM     19  C   UNL     1      -0.018   1.503   0.010  0.00  0.00    +0.044 C 
ATOM     20  C   UNL     1       0.002  -0.004   0.002  0.00  0.00    -0.047 A 
ATOM     21  C   UNL     1       0.006  -0.686  -1.201  0.00  0.00    +0.005 A 
ATOM     22  C   UNL     1       0.025  -2.069  -1.216  0.00  0.00    +0.027 A 
ATOM     23  C   UNL     1       0.041  -2.771  -0.022  0.00  0.00    +0.078 A 
ATOM     24  C   UNL     1       0.037  -2.083   1.190  0.00  0.00    +0.143 A 
ATOM     25  C   UNL     1       0.023  -0.699   1.198  0.00  0.00    +0.051 A 
ATOM     26  O   UNL     1       0.050  -2.783   2.356  0.00  0.00    -0.481 OA
ATOM     27  C   UNL     1      -0.626  -4.043   2.357  0.00  0.00    +0.325 C 
ATOM     28  C   UNL     1      -0.239  -4.826   1.128  0.00  0.00    +0.258 C 
ATOM     29  O   UNL     1      -0.198  -6.038   1.165  0.00  0.00    -0.272 OA
ATOM     30  N   UNL     1       0.062  -4.173  -0.016  0.00  0.00    -0.265 N 
ENDBRANCH  18  30
ENDBRANCH  17  18
ENDBRANCH   1  17
TORSDOF 6
