REMARK  Name = ZINC22507230
REMARK  10 active torsions:
REMARK  status: ('A' for Active; 'I' for Inactive)
REMARK    1  A    between atoms: C_1  and  C_2
REMARK    2  A    between atoms: C_2  and  C_25
REMARK    3  A    between atoms: N_3  and  N_4
REMARK    4  A    between atoms: N_4  and  C_5
REMARK    5  A    between atoms: C_9  and  C_12
REMARK    6  A    between atoms: C_12  and  C_13
REMARK    7  A    between atoms: N_15  and  C_16
REMARK    8  A    between atoms: C_20  and  N_22
REMARK    9  A    between atoms: C_30  and  C_32
REMARK   10  A    between atoms: C_30  and  C_33
REMARK                            x       y       z     vdW  Elec       q    Type
REMARK                         _______ _______ _______ _____ _____    ______ ____
ROOT
ATOM      1  C   UNL     1       0.051  -0.660   3.499  0.00  0.00    +0.191 C 
ATOM      2  N   UNL     1       0.069  -1.973   3.687  0.00  0.00    -0.155 NA
ATOM      3  C   UNL     1       0.084  -2.552   4.856  0.00  0.00    +0.252 C 
ATOM      4  O   UNL     1       0.101  -3.761   4.983  0.00  0.00    -0.272 OA
ATOM      5  C   UNL     1       0.079  -1.607   6.052  0.00  0.00    +0.150 C 
ATOM      6  S   UNL     1       0.060   0.005   5.159  0.00  0.00    -0.076 S 
ENDROOT
BRANCH   1   7
ATOM      7  N   UNL     1       0.036   0.024   2.317  0.00  0.00    -0.094 NA
BRANCH   7  10
ATOM      8  C   UNL     1       0.004   1.471  -0.004  0.00  0.00    +0.063 C 
ATOM      9  C   UNL     1       0.016  -0.035  -0.004  0.00  0.00    +0.039 C 
ATOM     10  N   UNL     1       0.031  -0.676   1.104  0.00  0.00    -0.167 NA
BRANCH   9  11
ATOM     11  C   UNL     1       0.011  -0.788  -1.310  0.00  0.00    +0.035 C 
ATOM     12  C   UNL     1      -1.304  -0.525  -2.045  0.00  0.00    +0.009 C 
ATOM     13  C   UNL     1      -1.309  -1.290  -3.371  0.00  0.00    +0.001 C 
ATOM     14  C   UNL     1      -1.169  -2.788  -3.096  0.00  0.00    +0.006 C 
ATOM     15  C   UNL     1       0.146  -3.051  -2.361  0.00  0.00    -0.034 C 
ATOM     16  C   UNL     1       0.151  -2.287  -1.035  0.00  0.00    +0.015 C 
ATOM     17  C   UNL     1       0.286  -4.550  -2.086  0.00  0.00    +0.011 C 
ATOM     18  C   UNL     1       1.317  -2.580  -3.226  0.00  0.00    +0.011 C 
ENDBRANCH   9  11
ENDBRANCH   7  10
ENDBRANCH   1   7
BRANCH   5  19
ATOM     19  C   UNL     1       1.349  -1.762   6.891  0.00  0.00    +0.120 C 
BRANCH  19  20
ATOM     20  C   UNL     1       1.244  -0.900   8.123  0.00  0.00    +0.219 C 
ATOM     21  O   UNL     1       0.252  -0.229   8.312  0.00  0.00    -0.275 OA
ATOM     22  N   UNL     1       2.254  -0.876   9.016  0.00  0.00    -0.285 N 
ATOM     23  H   UNL     1       3.018  -1.463   8.901  0.00  0.00    +0.155 HD
BRANCH  22  24
ATOM     24  C   UNL     1       2.200  -0.005  10.110  0.00  0.00    +0.036 A 
ATOM     25  C   UNL     1       3.363   0.587  10.586  0.00  0.00    +0.023 A 
ATOM     26  C   UNL     1       3.306   1.446  11.665  0.00  0.00    +0.004 A 
ATOM     27  C   UNL     1       2.093   1.718  12.272  0.00  0.00    +0.033 A 
ATOM     28  C   UNL     1       0.934   1.130  11.800  0.00  0.00    +0.128 A 
ATOM     29  C   UNL     1       0.983   0.274  10.717  0.00  0.00    +0.056 A 
BRANCH  28  30
ATOM     30  N   UNL     1      -0.361   1.423  12.453  0.00  0.00    +0.056 N 
ATOM     31  O   UNL     1      -0.406   2.176  13.398  0.00  0.00    -0.126 OA
ATOM     32  O   UNL     1      -1.376   0.909  12.042  0.00  0.00    -0.126 OA
ENDBRANCH  28  30
ENDBRANCH  22  24
ENDBRANCH  19  20
ENDBRANCH   5  19
TORSDOF 7
