REMARK  Name = ZINC36588701
REMARK  16 active torsions:
REMARK  status: ('A' for Active; 'I' for Inactive)
REMARK    1  A    between atoms: C_1  and  C_2
REMARK    2  A    between atoms: C_2  and  C_3
REMARK    3  A    between atoms: C_2  and  C_4
REMARK    4  A    between atoms: C_2  and  N_5
REMARK    5  A    between atoms: C_6  and  C_8
REMARK    6  A    between atoms: C_8  and  C_10
REMARK    7  A    between atoms: C_8  and  N_19
REMARK    8  A    between atoms: C_13  and  N_16
REMARK    9  A    between atoms: N_19  and  C_36
REMARK   10  A    between atoms: C_20  and  C_22
REMARK   11  A    between atoms: C_22  and  C_23
REMARK   12  A    between atoms: C_22  and  C_29
REMARK   13  A    between atoms: C_22  and  O_35
REMARK   14  A    between atoms: C_36  and  C_37
REMARK   15  A    between atoms: C_36  and  C_38
REMARK   16  A    between atoms: C_36  and  C_39
REMARK                            x       y       z     vdW  Elec       q    Type
REMARK                         _______ _______ _______ _____ _____    ______ ____
ROOT
ATOM      1  N   UNL     1       4.589  -1.391  -2.127  0.00  0.00    -0.278 N 
ATOM      2  C   UNL     1       4.000  -1.415  -3.339  0.00  0.00    +0.258 C 
ATOM      3  O   UNL     1       3.146  -2.240  -3.582  0.00  0.00    -0.272 OA
ENDROOT
BRANCH   1   4
ATOM      4  C   UNL     1       5.923  -0.805  -1.972  0.00  0.00    +0.030 C 
ATOM      5  C   UNL     1       6.695  -1.570  -0.895  0.00  0.00    +0.031 C 
ATOM      6  C   UNL     1       6.677  -0.894  -3.300  0.00  0.00    +0.031 C 
ATOM      7  C   UNL     1       5.790   0.662  -1.559  0.00  0.00    +0.031 C 
ENDBRANCH   1   4
BRANCH   1   8
ATOM      8  C   UNL     1       3.896  -1.953  -0.965  0.00  0.00    +0.193 C 
BRANCH   8   9
ATOM      9  C   UNL     1       2.533  -1.324  -0.841  0.00  0.00    -0.018 A 
ATOM     10  C   UNL     1       1.862  -0.899  -1.973  0.00  0.00    +0.008 A 
ATOM     11  C   UNL     1       0.611  -0.322  -1.860  0.00  0.00    +0.033 A 
ATOM     12  C   UNL     1       0.030  -0.170  -0.614  0.00  0.00    +0.126 A 
ATOM     13  C   UNL     1       0.701  -0.595   0.517  0.00  0.00    +0.033 A 
ATOM     14  C   UNL     1       1.950  -1.176   0.404  0.00  0.00    +0.008 A 
BRANCH  12  15
ATOM     15  N   UNL     1      -1.309   0.449  -0.493  0.00  0.00    +0.056 N 
ATOM     16  O   UNL     1      -1.895   0.821  -1.482  0.00  0.00    -0.126 OA
ATOM     17  O   UNL     1      -1.817   0.582   0.597  0.00  0.00    -0.126 OA
ENDBRANCH  12  15
ENDBRANCH   8   9
BRANCH   8  19
ATOM     18  N   UNL     1       3.227  -4.189  -0.146  0.00  0.00    -0.309 N 
ATOM     19  C   UNL     1       3.748  -3.442  -1.140  0.00  0.00    +0.239 C 
ATOM     20  O   UNL     1       4.099  -3.970  -2.174  0.00  0.00    -0.273 OA
ATOM     21  H   UNL     1       2.946  -3.767   0.681  0.00  0.00    +0.149 HD
BRANCH  18  23
ATOM     22  C   UNL     1       4.458  -6.260  -0.563  0.00  0.00    +0.031 C 
ATOM     23  C   UNL     1       3.083  -5.637  -0.316  0.00  0.00    +0.026 C 
ATOM     24  C   UNL     1       2.171  -5.922  -1.511  0.00  0.00    +0.031 C 
ATOM     25  C   UNL     1       2.469  -6.240   0.949  0.00  0.00    +0.031 C 
ENDBRANCH  18  23
ENDBRANCH   8  19
ENDBRANCH   1   8
BRANCH   2  26
ATOM     26  C   UNL     1       4.404  -0.415  -4.392  0.00  0.00    +0.192 C 
BRANCH  26  27
ATOM     27  C   UNL     1       3.327  -0.331  -5.444  0.00  0.00    -0.003 A 
ATOM     28  C   UNL     1       1.996  -0.413  -5.079  0.00  0.00    +0.007 A 
ATOM     29  C   UNL     1       1.009  -0.336  -6.043  0.00  0.00    +0.000 A 
ATOM     30  C   UNL     1       1.353  -0.177  -7.373  0.00  0.00    +0.000 A 
ATOM     31  C   UNL     1       2.684  -0.095  -7.738  0.00  0.00    +0.000 A 
ATOM     32  C   UNL     1       3.671  -0.167  -6.773  0.00  0.00    +0.007 A 
ENDBRANCH  26  27
BRANCH  26  33
ATOM     33  C   UNL     1       4.590   0.938  -3.755  0.00  0.00    -0.003 A 
ATOM     34  C   UNL     1       3.662   1.407  -2.844  0.00  0.00    +0.007 A 
ATOM     35  C   UNL     1       3.833   2.648  -2.259  0.00  0.00    +0.000 A 
ATOM     36  C   UNL     1       4.932   3.420  -2.587  0.00  0.00    +0.000 A 
ATOM     37  C   UNL     1       5.860   2.951  -3.498  0.00  0.00    +0.000 A 
ATOM     38  C   UNL     1       5.691   1.709  -4.079  0.00  0.00    +0.007 A 
ENDBRANCH  26  33
BRANCH  26  39
ATOM     39  O   UNL     1       5.630  -0.829  -4.998  0.00  0.00    -0.371 OA
ATOM     40  H   UNL     1       5.563  -1.656  -5.495  0.00  0.00    +0.212 HD
ENDBRANCH  26  39
ENDBRANCH   2  26
TORSDOF 10
