REMARK  Name = ZINC66701677
REMARK  12 active torsions:
REMARK  status: ('A' for Active; 'I' for Inactive)
REMARK    1  A    between atoms: C_1  and  C_2
REMARK    2  A    between atoms: C_2  and  C_3
REMARK    3  A    between atoms: C_2  and  N_4
REMARK    4  A    between atoms: C_7  and  N_10
REMARK    5  A    between atoms: C_16  and  C_19
REMARK    6  A    between atoms: C_16  and  N_20
REMARK    7  A    between atoms: N_20  and  C_21
REMARK    8  A    between atoms: C_22  and  O_24
REMARK    9  A    between atoms: O_24  and  C_25
REMARK   10  A    between atoms: C_25  and  C_26
REMARK   11  A    between atoms: C_25  and  C_27
REMARK   12  A    between atoms: C_25  and  C_28
REMARK                            x       y       z     vdW  Elec       q    Type
REMARK                         _______ _______ _______ _____ _____    ______ ____
ROOT
ATOM      1  N   UNL     1       0.157  -1.744   4.680  0.00  0.00    -0.298 N 
ATOM      2  C   UNL     1      -0.427  -2.497   5.634  0.00  0.00    +0.302 C 
ATOM      3  O   UNL     1      -1.070  -3.480   5.322  0.00  0.00    -0.253 OA
ATOM      4  N   UNL     1      -0.297  -2.159   6.932  0.00  0.00    -0.286 N 
ATOM      5  C   UNL     1       0.374  -0.910   7.318  0.00  0.00    +0.111 C 
ATOM      6  C   UNL     1       1.484  -1.237   8.322  0.00  0.00    +0.045 C 
ATOM      7  C   UNL     1       0.891  -2.020   9.495  0.00  0.00    +0.040 C 
ATOM      8  C   UNL     1       0.298  -3.336   8.985  0.00  0.00    +0.045 C 
ATOM      9  C   UNL     1      -0.830  -3.030   7.989  0.00  0.00    +0.111 C 
ATOM     10  C   UNL     1       1.990  -2.318  10.517  0.00  0.00    +0.032 C 
ATOM     11  H   UNL     1       0.604  -0.917   4.921  0.00  0.00    +0.150 HD
ENDROOT
BRANCH   1  15
ATOM     12  N   UNL     1       1.220  -1.478   1.231  0.00  0.00    +0.382 N 
ATOM     13  C   UNL     1       1.474  -2.919   1.443  0.00  0.00    -0.077 C 
ATOM     14  C   UNL     1       1.294  -3.133   2.966  0.00  0.00    +0.002 C 
ATOM     15  C   UNL     1       0.116  -2.173   3.280  0.00  0.00    +0.056 C 
ATOM     16  C   UNL     1       0.375  -0.983   2.333  0.00  0.00    -0.056 C 
ATOM     17  H   UNL     1       2.097  -0.978   1.225  0.00  0.00    -0.081 HD
BRANCH  12  19
ATOM     18  C   UNL     1       0.249   0.209  -0.255  0.00  0.00    -0.014 C 
ATOM     19  C   UNL     1       0.529  -1.281  -0.050  0.00  0.00    -0.075 C 
ATOM     20  C   UNL     1       1.410  -1.796  -1.190  0.00  0.00    -0.014 C 
ENDBRANCH  12  19
ENDBRANCH   1  15
BRANCH   7  21
ATOM     21  N   UNL     1      -0.163  -1.224  10.130  0.00  0.00    -0.265 N 
ATOM     22  C   UNL     1      -0.360   0.174   9.739  0.00  0.00    +0.136 C 
ATOM     23  C   UNL     1      -0.949  -1.778  11.074  0.00  0.00    +0.404 C 
ATOM     24  O   UNL     1      -0.785  -2.937  11.398  0.00  0.00    -0.226 OA
BRANCH  23  25
ATOM     25  O   UNL     1      -1.917  -1.046  11.658  0.00  0.00    -0.445 OA
BRANCH  25  26
ATOM     26  C   UNL     1      -2.714  -1.697  12.650  0.00  0.00    +0.107 C 
ATOM     27  C   UNL     1      -1.815  -2.176  13.792  0.00  0.00    +0.055 C 
ATOM     28  C   UNL     1      -3.752  -0.715  13.195  0.00  0.00    +0.055 C 
ATOM     29  C   UNL     1      -3.426  -2.898  12.024  0.00  0.00    +0.055 C 
ENDBRANCH  25  26
ENDBRANCH  23  25
ENDBRANCH   7  21
TORSDOF 5
