REMARK  Name = ZINC67285787
REMARK  12 active torsions:
REMARK  status: ('A' for Active; 'I' for Inactive)
REMARK    1  A    between atoms: C_1  and  C_2
REMARK    2  A    between atoms: C_2  and  O_3
REMARK    3  A    between atoms: O_3  and  C_4
REMARK    4  A    between atoms: C_6  and  C_11
REMARK    5  A    between atoms: C_9  and  O_10
REMARK    6  A    between atoms: C_13  and  C_33
REMARK    7  A    between atoms: C_14  and  C_19
REMARK    8  A    between atoms: C_19  and  N_20
REMARK    9  A    between atoms: N_23  and  C_26
REMARK   10  A    between atoms: C_29  and  C_32
REMARK   11  A    between atoms: C_33  and  O_35
REMARK   12  A    between atoms: O_35  and  C_36
REMARK                            x       y       z     vdW  Elec       q    Type
REMARK                         _______ _______ _______ _____ _____    ______ ____
ROOT
ATOM      1  C   UNL     1       0.635  -4.907   0.073  0.00  0.00    +0.144 C 
ATOM      2  C   UNL     1       0.894  -5.241  -1.382  0.00  0.00    +0.079 C 
ATOM      3  C   UNL     1       0.870  -6.542  -1.742  0.00  0.00    +0.038 C 
ATOM      4  N   UNL     1       0.620  -7.523  -0.826  0.00  0.00    -0.271 N 
ATOM      5  C   UNL     1       0.385  -7.285   0.471  0.00  0.00    +0.304 C 
ATOM      6  O   UNL     1       0.173  -8.225   1.212  0.00  0.00    -0.252 OA
ATOM      7  N   UNL     1       0.376  -6.038   0.980  0.00  0.00    -0.288 N 
ATOM      8  H   UNL     1       0.613  -8.444  -1.131  0.00  0.00    +0.156 HD
ATOM      9  H   UNL     1       0.204  -5.888   1.923  0.00  0.00    +0.151 HD
ENDROOT
BRANCH   1  12
ATOM     10  C   UNL     1      -1.450  -1.762   0.263  0.00  0.00    +0.162 A 
ATOM     11  C   UNL     1      -0.359  -2.615   0.207  0.00  0.00    +0.055 A 
ATOM     12  C   UNL     1      -0.552  -3.982   0.133  0.00  0.00    -0.019 A 
ATOM     13  C   UNL     1      -1.833  -4.501   0.114  0.00  0.00    +0.009 A 
ATOM     14  C   UNL     1      -2.926  -3.656   0.168  0.00  0.00    +0.049 A 
ATOM     15  C   UNL     1      -2.739  -2.286   0.249  0.00  0.00    +0.158 A 
BRANCH  15  16
ATOM     16  O   UNL     1      -3.813  -1.454   0.309  0.00  0.00    -0.503 OA
ATOM     17  H   UNL     1      -4.135  -1.163  -0.556  0.00  0.00    +0.292 HD
ENDBRANCH  15  16
BRANCH  10  18
ATOM     18  O   UNL     1      -1.261  -0.418   0.336  0.00  0.00    -0.489 OA
BRANCH  18  20
ATOM     19  C   UNL     1       0.102   1.576   0.432  0.00  0.00    +0.048 C 
ATOM     20  C   UNL     1       0.090   0.048   0.346  0.00  0.00    +0.226 C 
ENDBRANCH  18  20
ENDBRANCH  10  18
ENDBRANCH   1  12
BRANCH   2  21
ATOM     21  C   UNL     1       1.152  -4.224  -2.331  0.00  0.00    +0.339 C 
ATOM     22  O   UNL     1       2.237  -3.674  -2.353  0.00  0.00    -0.245 OA
BRANCH  21  23
ATOM     23  O   UNL     1       0.195  -3.864  -3.211  0.00  0.00    -0.465 OA
ATOM     24  C   UNL     1       0.524  -2.830  -4.141  0.00  0.00    +0.280 C 
ENDBRANCH  21  23
ENDBRANCH   2  21
BRANCH   3  25
ATOM     25  C   UNL     1       1.122  -6.918  -3.180  0.00  0.00    +0.136 C 
BRANCH  25  26
ATOM     26  N   UNL     1       2.354  -7.713  -3.269  0.00  0.00    -0.294 NA
ATOM     27  C   UNL     1       3.527  -6.910  -2.900  0.00  0.00    +0.103 C 
ATOM     28  C   UNL     1       4.761  -7.816  -2.830  0.00  0.00    +0.120 C 
ATOM     29  N   UNL     1       4.880  -8.542  -4.104  0.00  0.00    -0.327 N 
ATOM     30  C   UNL     1       3.700  -9.260  -4.609  0.00  0.00    +0.120 C 
ATOM     31  C   UNL     1       2.507  -8.297  -4.609  0.00  0.00    +0.103 C 
BRANCH  29  32
ATOM     32  C   UNL     1       6.082  -8.549  -4.815  0.00  0.00    +0.030 A 
ATOM     33  C   UNL     1       7.219  -7.971  -4.266  0.00  0.00    +0.023 A 
ATOM     34  C   UNL     1       8.406  -7.981  -4.971  0.00  0.00    +0.005 A 
ATOM     35  C   UNL     1       8.464  -8.564  -6.224  0.00  0.00    -0.050 A 
ATOM     36  C   UNL     1       7.333  -9.140  -6.774  0.00  0.00    +0.005 A 
ATOM     37  C   UNL     1       6.144  -9.139  -6.071  0.00  0.00    +0.023 A 
ATOM     38  C   UNL     1       9.761  -8.572  -6.991  0.00  0.00    +0.044 C 
ENDBRANCH  29  32
ENDBRANCH  25  26
ENDBRANCH   3  25
TORSDOF 9
