REMARK  Name = ZINC16221281
REMARK  8 active torsions:
REMARK  status: ('A' for Active; 'I' for Inactive)
REMARK    1  A    between atoms: C_4  and  N_7
REMARK    2  A    between atoms: C_8  and  C_29
REMARK    3  A    between atoms: C_11  and  S_12
REMARK    4  A    between atoms: S_12  and  C_13
REMARK    5  A    between atoms: C_13  and  C_14
REMARK    6  A    between atoms: C_14  and  C_16
REMARK    7  A    between atoms: C_17  and  N_28
REMARK    8  A    between atoms: N_18  and  C_25
REMARK                            x       y       z     vdW  Elec       q    Type
REMARK                         _______ _______ _______ _____ _____    ______ ____
ROOT
ATOM      1  S   UNL     1       1.720  -2.394  -1.554  0.00  0.00    -0.078 S 
ENDROOT
BRANCH   1   6
ATOM      2  N   UNL     1       1.994   0.216  -2.528  0.00  0.00    -0.270 N 
ATOM      3  C   UNL     1       1.139   1.242  -2.869  0.00  0.00    +0.169 A 
ATOM      4  N   UNL     1      -0.083   0.812  -2.657  0.00  0.00    -0.128 NA
ATOM      5  N   UNL     1      -0.054  -0.394  -2.213  0.00  0.00    -0.122 NA
ATOM      6  C   UNL     1       1.189  -0.810  -2.114  0.00  0.00    +0.197 A 
BRANCH   3   7
ATOM      7  C   UNL     1       1.526   2.575  -3.379  0.00  0.00    +0.020 A 
ATOM      8  C   UNL     1       2.822   2.797  -3.846  0.00  0.00    +0.013 A 
ATOM      9  C   UNL     1       3.176   4.042  -4.325  0.00  0.00    +0.021 A 
ATOM     10  C   UNL     1       2.250   5.072  -4.333  0.00  0.00    +0.041 A 
ATOM     11  C   UNL     1       0.964   4.858  -3.866  0.00  0.00    +0.021 A 
ATOM     12  C   UNL     1       0.598   3.617  -3.389  0.00  0.00    +0.013 A 
ATOM     13 CL   UNL     1       2.704   6.637  -4.931  0.00  0.00    -0.084 Cl
ENDBRANCH   3   7
BRANCH   2  17
ATOM     14  C   UNL     1       6.158   0.235  -2.717  0.00  0.00    +0.000 A 
ATOM     15  C   UNL     1       5.434  -0.619  -3.529  0.00  0.00    +0.002 A 
ATOM     16  C   UNL     1       4.054  -0.627  -3.469  0.00  0.00    +0.026 A 
ATOM     17  C   UNL     1       3.394   0.223  -2.592  0.00  0.00    +0.051 A 
ATOM     18  C   UNL     1       4.123   1.083  -1.782  0.00  0.00    +0.026 A 
ATOM     19  C   UNL     1       5.503   1.083  -1.843  0.00  0.00    +0.002 A 
ENDBRANCH   2  17
ENDBRANCH   1   6
BRANCH   1  20
ATOM     20  C   UNL     1       0.116  -3.156  -1.202  0.00  0.00    +0.157 C 
BRANCH  20  21
ATOM     21  C   UNL     1       0.327  -4.559  -0.694  0.00  0.00    +0.182 C 
ATOM     22  O   UNL     1       1.453  -5.001  -0.581  0.00  0.00    -0.291 OA
BRANCH  21  23
ATOM     23  C   UNL     1      -0.783  -5.360  -0.350  0.00  0.00    +0.120 A 
ATOM     24  C   UNL     1      -0.623  -6.714  -0.009  0.00  0.00    +0.116 A 
ATOM     25  N   UNL     1      -1.727  -7.447   0.322  0.00  0.00    -0.278 N 
ATOM     26  C   UNL     1      -2.953  -6.902   0.317  0.00  0.00    +0.331 A 
ATOM     27  O   UNL     1      -3.904  -7.598   0.615  0.00  0.00    -0.246 OA
ATOM     28  N   UNL     1      -3.168  -5.616  -0.006  0.00  0.00    -0.274 N 
ATOM     29  H   UNL     1      -4.101  -5.254   0.004  0.00  0.00    +0.173 HD
ATOM     30  C   UNL     1      -2.143  -4.806  -0.343  0.00  0.00    +0.266 A 
ATOM     31  O   UNL     1      -2.341  -3.641  -0.634  0.00  0.00    -0.267 OA
BRANCH  25  32
ATOM     32  C   UNL     1      -1.570  -8.857   0.685  0.00  0.00    +0.094 C 
ATOM     33  C   UNL     1      -2.289  -9.348   1.943  0.00  0.00    +0.027 C 
ATOM     34  C   UNL     1      -0.768  -9.177   1.948  0.00  0.00    +0.027 C 
ENDBRANCH  25  32
BRANCH  24  35
ATOM     35  N   UNL     1       0.613  -7.284  -0.004  0.00  0.00    -0.344 N 
ATOM     36  H   UNL     1       1.398  -6.738   0.153  0.00  0.00    +0.144 HD
ATOM     37  H   UNL     1       0.707  -8.238  -0.156  0.00  0.00    +0.144 HD
ENDBRANCH  24  35
ENDBRANCH  21  23
ENDBRANCH  20  21
ENDBRANCH   1  20
TORSDOF 8
