REMARK  Name = ZINC08334825
REMARK  9 active torsions:
REMARK  status: ('A' for Active; 'I' for Inactive)
REMARK    1  A    between atoms: C_1  and  C_2
REMARK    2  A    between atoms: C_6  and  C_8
REMARK    3  A    between atoms: C_11  and  S_13
REMARK    4  A    between atoms: S_13  and  C_14
REMARK    5  A    between atoms: C_14  and  C_15
REMARK    6  A    between atoms: C_21  and  C_23
REMARK    7  A    between atoms: C_23  and  C_24
REMARK    8  A    between atoms: C_23  and  C_25
REMARK    9  A    between atoms: C_23  and  C_26
REMARK                            x       y       z     vdW  Elec       q    Type
REMARK                         _______ _______ _______ _____ _____    ______ ____
ROOT
ATOM      1  C   UNL     1      -0.434  10.100   0.051  0.00  0.00    +0.175 C 
ENDROOT
BRANCH   1   2
ATOM      2  C   UNL     1      -1.072  11.465   0.062  0.00  0.00    +0.229 C 
ATOM      3  O   UNL     1      -2.280  11.570   0.075  0.00  0.00    -0.275 OA
ATOM      4  N   UNL     1      -0.300  12.570   0.059  0.00  0.00    -0.263 N 
ATOM      5  C   UNL     1      -0.888  13.830   0.070  0.00  0.00    +0.188 A 
ATOM      6  N   UNL     1      -2.168  14.162   0.085  0.00  0.00    -0.126 NA
ATOM      7  N   UNL     1      -2.544  15.367   0.093  0.00  0.00    -0.144 NA
ATOM      8  C   UNL     1      -1.662  16.346   0.087  0.00  0.00    +0.109 A 
ATOM      9  S   UNL     1      -0.143  15.401   0.075  0.00  0.00    -0.035 S 
ATOM     10  H   UNL     1       0.666  12.486   0.049  0.00  0.00    +0.157 HD
BRANCH   8  11
ATOM     11  C   UNL     1      -1.873  17.838   0.095  0.00  0.00    +0.013 C 
ATOM     12  C   UNL     1      -2.646  18.238   1.353  0.00  0.00    +0.018 C 
ATOM     13  C   UNL     1      -0.516  18.545   0.083  0.00  0.00    +0.018 C 
ATOM     14  C   UNL     1      -2.671  18.247  -1.145  0.00  0.00    +0.018 C 
ENDBRANCH   8  11
ENDBRANCH   1   2
BRANCH   1  15
ATOM     15  S   UNL     1      -1.725   8.831   0.059  0.00  0.00    -0.056 S 
BRANCH  15  19
ATOM     16  C   UNL     1      -0.070   5.322   0.029  0.00  0.00    +0.249 A 
ATOM     17  N   UNL     1       0.976   6.112   0.021  0.00  0.00    -0.106 NA
ATOM     18  N   UNL     1       0.585   7.338   0.030  0.00  0.00    -0.101 NA
ATOM     19  C   UNL     1      -0.727   7.379   0.043  0.00  0.00    +0.278 A 
ATOM     20  O   UNL     1      -1.170   6.107   0.037  0.00  0.00    -0.411 OA
BRANCH  16  26
ATOM     21  C   UNL     1       2.490   1.040  -0.016  0.00  0.00    +0.044 C 
ATOM     22  C   UNL     1       1.178   1.781   0.000  0.00  0.00    -0.050 A 
ATOM     23  C   UNL     1      -0.013   1.076   0.008  0.00  0.00    +0.003 A 
ATOM     24  C   UNL     1      -1.222   1.748   0.017  0.00  0.00    +0.001 A 
ATOM     25  C   UNL     1      -1.248   3.127   0.030  0.00  0.00    +0.013 A 
ATOM     26  C   UNL     1      -0.050   3.845   0.022  0.00  0.00    +0.039 A 
ATOM     27  C   UNL     1       1.167   3.160   0.007  0.00  0.00    +0.016 A 
ENDBRANCH  16  26
ENDBRANCH  15  19
ENDBRANCH   1  15
TORSDOF 5
