REMARK  Name = ZINC40992869
REMARK  9 active torsions:
REMARK  status: ('A' for Active; 'I' for Inactive)
REMARK    1  A    between atoms: C_1  and  C_2
REMARK    2  A    between atoms: C_2  and  C_3
REMARK    3  A    between atoms: C_2  and  C_4
REMARK    4  A    between atoms: C_2  and  C_5
REMARK    5  A    between atoms: C_8  and  O_11
REMARK    6  A    between atoms: O_11  and  C_12
REMARK    7  A    between atoms: C_12  and  C_13
REMARK    8  A    between atoms: C_18  and  C_21
REMARK    9  A    between atoms: C_24  and  N_27
REMARK                            x       y       z     vdW  Elec       q    Type
REMARK                         _______ _______ _______ _____ _____    ______ ____
ROOT
ATOM      1  C   UNL     1       4.536  -2.000  -6.087  0.00  0.00    +0.256 C 
ATOM      2  O   UNL     1       3.822  -2.685  -6.788  0.00  0.00    -0.272 OA
ATOM      3  N   UNL     1       5.809  -1.755  -6.457  0.00  0.00    -0.262 N 
ATOM      4  C   UNL     1       6.302  -2.287  -7.641  0.00  0.00    +0.165 A 
ATOM      5  N   UNL     1       7.505  -2.170  -8.172  0.00  0.00    -0.225 NA
ATOM      6  C   UNL     1       7.809  -2.751  -9.323  0.00  0.00    +0.080 A 
ATOM      7  C   UNL     1       6.858  -3.486  -9.975  0.00  0.00    +0.076 A 
ATOM      8  S   UNL     1       5.479  -3.317  -8.848  0.00  0.00    -0.060 S 
ATOM      9  H   UNL     1       6.380  -1.207  -5.896  0.00  0.00    +0.157 HD
ENDROOT
BRANCH   6  10
ATOM     10  C   UNL     1       9.167  -2.606  -9.899  0.00  0.00    +0.001 A 
ATOM     11  C   UNL     1       9.479  -3.214 -11.114  0.00  0.00    +0.012 A 
ATOM     12  C   UNL     1      10.743  -3.077 -11.648  0.00  0.00    +0.028 A 
ATOM     13  C   UNL     1      11.706  -2.334 -10.977  0.00  0.00    +0.069 A 
ATOM     14  C   UNL     1      11.398  -1.726  -9.766  0.00  0.00    +0.028 A 
ATOM     15  C   UNL     1      10.133  -1.855  -9.230  0.00  0.00    +0.012 A 
BRANCH  13  16
ATOM     16  N   UNL     1      12.990  -2.197 -11.522  0.00  0.00    -0.200 N 
ATOM     17  C   UNL     1      14.035  -1.519 -10.999  0.00  0.00    +0.250 A 
ATOM     18  N   UNL     1      15.037  -1.650 -11.828  0.00  0.00    -0.116 NA
ATOM     19  N   UNL     1      14.697  -2.364 -12.840  0.00  0.00    -0.023 NA
ATOM     20  N   UNL     1      13.469  -2.741 -12.726  0.00  0.00    -0.039 NA
ENDBRANCH  13  16
ENDBRANCH   6  10
BRANCH   1  21
ATOM     21  C   UNL     1       4.000  -1.423  -4.801  0.00  0.00    +0.324 C 
BRANCH  21  22
ATOM     22  O   UNL     1       2.639  -1.822  -4.631  0.00  0.00    -0.483 OA
BRANCH  22  26
ATOM     23  C   UNL     1       0.707  -0.490  -1.238  0.00  0.00    -0.042 A 
ATOM     24  C   UNL     1       0.035  -1.284  -2.148  0.00  0.00    +0.008 A 
ATOM     25  C   UNL     1       0.679  -1.732  -3.285  0.00  0.00    +0.046 A 
ATOM     26  C   UNL     1       2.002  -1.383  -3.514  0.00  0.00    +0.121 A 
ATOM     27  C   UNL     1       2.675  -0.585  -2.599  0.00  0.00    +0.046 A 
ATOM     28  C   UNL     1       2.024  -0.136  -1.466  0.00  0.00    +0.008 A 
BRANCH  23  30
ATOM     29  C   UNL     1      -0.019   1.526   0.010  0.00  0.00    +0.015 C 
ATOM     30  C   UNL     1       0.002  -0.004   0.002  0.00  0.00    -0.013 C 
ATOM     31  C   UNL     1       0.742  -0.511   1.242  0.00  0.00    +0.015 C 
ATOM     32  C   UNL     1      -1.433  -0.534   0.013  0.00  0.00    +0.015 C 
ENDBRANCH  23  30
ENDBRANCH  22  26
ENDBRANCH  21  22
ENDBRANCH   1  21
TORSDOF 6
