REMARK  Name = ZINC12893700
REMARK  13 active torsions:
REMARK  status: ('A' for Active; 'I' for Inactive)
REMARK    1  A    between atoms: C_1  and  C_2
REMARK    2  A    between atoms: C_2  and  C_3
REMARK    3  A    between atoms: C_2  and  C_4
REMARK    4  A    between atoms: C_2  and  C_5
REMARK    5  A    between atoms: C_10  and  O_11
REMARK    6  A    between atoms: O_11  and  C_12
REMARK    7  A    between atoms: C_12  and  C_13
REMARK    8  A    between atoms: C_13  and  C_15
REMARK    9  A    between atoms: C_13  and  O_34
REMARK   10  A    between atoms: C_15  and  N_16
REMARK   11  A    between atoms: N_19  and  S_22
REMARK   12  A    between atoms: S_22  and  C_25
REMARK   13  A    between atoms: C_28  and  C_31
REMARK                            x       y       z     vdW  Elec       q    Type
REMARK                         _______ _______ _______ _____ _____    ______ ____
ROOT
ATOM      1  N   UNL     1      -1.552   3.915   2.425  0.00  0.00    -0.297 NA
ATOM      2  C   UNL     1      -2.941   3.439   2.462  0.00  0.00    +0.101 C 
ATOM      3  C   UNL     1      -3.566   3.799   3.814  0.00  0.00    +0.125 C 
ATOM      4  N   UNL     1      -3.397   5.243   4.037  0.00  0.00    -0.174 NA
ATOM      5  C   UNL     1      -2.053   5.819   3.883  0.00  0.00    +0.125 C 
ATOM      6  C   UNL     1      -1.488   5.380   2.528  0.00  0.00    +0.101 C 
ENDROOT
BRANCH   4   7
ATOM      7  S   UNL     1      -4.688   6.195   4.451  0.00  0.00    +0.061 S 
ATOM      8  O   UNL     1      -5.649   5.338   5.052  0.00  0.00    -0.153 OA
ATOM      9  O   UNL     1      -4.157   7.331   5.119  0.00  0.00    -0.153 OA
BRANCH   7  10
ATOM     10  C   UNL     1      -5.404   6.782   2.952  0.00  0.00    +0.106 A 
ATOM     11  C   UNL     1      -4.969   7.974   2.401  0.00  0.00    +0.029 A 
ATOM     12  C   UNL     1      -5.522   8.437   1.225  0.00  0.00    +0.015 A 
ATOM     13  C   UNL     1      -6.530   7.705   0.596  0.00  0.00    +0.037 A 
ATOM     14  C   UNL     1      -6.968   6.505   1.159  0.00  0.00    +0.015 A 
ATOM     15  C   UNL     1      -6.403   6.051   2.333  0.00  0.00    +0.029 A 
BRANCH  13  16
ATOM     16  C   UNL     1      -7.130   8.197  -0.662  0.00  0.00    +0.242 C 
ATOM     17  O   UNL     1      -8.008   7.557  -1.208  0.00  0.00    -0.270 OA
ATOM     18  N   UNL     1      -6.705   9.356  -1.203  0.00  0.00    -0.325 N 
ATOM     19  H   UNL     1      -7.152   9.722  -2.139  0.00  0.00    +0.145 HD
ATOM     20  H   UNL     1      -5.911   9.935  -0.710  0.00  0.00    +0.145 HD
ENDBRANCH  13  16
ENDBRANCH   7  10
ENDBRANCH   4   7
BRANCH   1  21
ATOM     21  C   UNL     1      -0.865   3.442   1.217  0.00  0.00    +0.119 C 
BRANCH  21  22
ATOM     22  C   UNL     1      -0.733   1.918   1.269  0.00  0.00    +0.166 C 
BRANCH  22  23
ATOM     23  O   UNL     1       0.021   1.544   2.423  0.00  0.00    -0.387 OA
ATOM     24  H   UNL     1      -0.340   1.814   3.427  0.00  0.00    +0.210 HD
ENDBRANCH  22  23
BRANCH  22  25
ATOM     25  C   UNL     1      -0.017   1.425   0.010  0.00  0.00    +0.261 C 
BRANCH  25  26
ATOM     26  O   UNL     1       0.002  -0.004   0.002  0.00  0.00    -0.489 OA
BRANCH  26  32
ATOM     27  C   UNL     1       0.661  -1.991  -1.128  0.00  0.00    -0.000 A 
ATOM     28  C   UNL     1       1.275  -2.602  -2.204  0.00  0.00    +0.008 A 
ATOM     29  C   UNL     1       1.835  -1.835  -3.209  0.00  0.00    +0.001 A 
ATOM     30  C   UNL     1       1.781  -0.455  -3.140  0.00  0.00    +0.004 A 
ATOM     31  C   UNL     1       1.163   0.161  -2.068  0.00  0.00    +0.046 A 
ATOM     32  C   UNL     1       0.606  -0.607  -1.056  0.00  0.00    +0.124 A 
BRANCH  27  34
ATOM     33  C   UNL     1       0.248  -4.311  -0.355  0.00  0.00    +0.015 C 
ATOM     34  C   UNL     1       0.051  -2.828  -0.033  0.00  0.00    -0.009 C 
ATOM     35  C   UNL     1       0.730  -2.500   1.298  0.00  0.00    +0.015 C 
ATOM     36  C   UNL     1      -1.445  -2.523   0.069  0.00  0.00    +0.015 C 
ENDBRANCH  27  34
ENDBRANCH  26  32
ENDBRANCH  25  26
ENDBRANCH  22  25
ENDBRANCH  21  22
ENDBRANCH   1  21
TORSDOF 10
