REMARK  Name = ZINC60342969
REMARK  11 active torsions:
REMARK  status: ('A' for Active; 'I' for Inactive)
REMARK    1  A    between atoms: C_1  and  C_2
REMARK    2  A    between atoms: C_2  and  C_28
REMARK    3  A    between atoms: N_5  and  N_9
REMARK    4  A    between atoms: C_10  and  C_12
REMARK    5  A    between atoms: C_12  and  N_13
REMARK    6  A    between atoms: N_13  and  C_14
REMARK    7  A    between atoms: N_13  and  C_15
REMARK    8  A    between atoms: C_18  and  O_21
REMARK    9  A    between atoms: O_21  and  C_22
REMARK   10  A    between atoms: C_31  and  O_34
REMARK   11  A    between atoms: O_34  and  C_35
REMARK                            x       y       z     vdW  Elec       q    Type
REMARK                         _______ _______ _______ _____ _____    ______ ____
ROOT
ATOM      1  N   UNL     1      -4.511  -2.237   2.878  0.00  0.00    -0.222 N 
ATOM      2  C   UNL     1      -4.227  -3.522   2.590  0.00  0.00    +0.247 C 
ATOM      3  O   UNL     1      -3.151  -3.813   2.111  0.00  0.00    -0.273 OA
ATOM      4  H   UNL     1      -5.371  -2.004   3.261  0.00  0.00    +0.174 HD
ENDROOT
BRANCH   1   9
ATOM      5  C   UNL     1      -2.821   1.979   1.937  0.00  0.00    +0.047 C 
ATOM      6  C   UNL     1      -2.413   0.520   1.723  0.00  0.00    +0.137 C 
ATOM      7  C   UNL     1      -3.638  -0.364   1.600  0.00  0.00    +0.267 C 
ATOM      8  O   UNL     1      -4.505  -0.300   0.755  0.00  0.00    -0.271 OA
ATOM      9  N   UNL     1      -3.563  -1.236   2.625  0.00  0.00    -0.137 N 
ATOM     10  C   UNL     1      -2.472  -1.028   3.370  0.00  0.00    +0.327 C 
ATOM     11  O   UNL     1      -2.187  -1.689   4.350  0.00  0.00    -0.251 OA
ATOM     12  N   UNL     1      -1.725  -0.006   2.915  0.00  0.00    -0.280 N 
ATOM     13  H   UNL     1      -0.895   0.321   3.296  0.00  0.00    +0.152 HD
BRANCH   6  14
ATOM     14  C   UNL     1      -1.537   0.390   0.504  0.00  0.00    -0.015 A 
ATOM     15  C   UNL     1      -2.106   0.149  -0.733  0.00  0.00    +0.010 A 
ATOM     16  C   UNL     1      -1.304   0.029  -1.851  0.00  0.00    +0.046 A 
ATOM     17  C   UNL     1       0.072   0.150  -1.733  0.00  0.00    +0.120 A 
ATOM     18  C   UNL     1       0.641   0.392  -0.491  0.00  0.00    +0.046 A 
ATOM     19  C   UNL     1      -0.165   0.516   0.624  0.00  0.00    +0.010 A 
BRANCH  17  20
ATOM     20  O   UNL     1       0.863   0.032  -2.832  0.00  0.00    -0.495 OA
ATOM     21  C   UNL     1       2.272   0.168  -2.636  0.00  0.00    +0.277 C 
ENDBRANCH  17  20
ENDBRANCH   6  14
ENDBRANCH   1   9
BRANCH   2  22
ATOM     22  C   UNL     1      -5.246  -4.598   2.862  0.00  0.00    +0.202 C 
BRANCH  22  23
ATOM     23  N   UNL     1      -4.701  -5.899   2.465  0.00  0.00    -0.324 N 
ATOM     24  C   UNL     1      -3.952  -6.705   3.432  0.00  0.00    +0.130 C 
BRANCH  23  25
ATOM     25  C   UNL     1      -4.897  -6.371   1.163  0.00  0.00    +0.030 A 
ATOM     26  C   UNL     1      -5.602  -5.604   0.244  0.00  0.00    +0.027 A 
ATOM     27  C   UNL     1      -5.793  -6.070  -1.041  0.00  0.00    +0.048 A 
ATOM     28  C   UNL     1      -5.282  -7.304  -1.416  0.00  0.00    +0.129 A 
ATOM     29  C   UNL     1      -4.578  -8.071  -0.499  0.00  0.00    +0.048 A 
ATOM     30  C   UNL     1      -4.380  -7.604   0.786  0.00  0.00    +0.027 A 
BRANCH  28  31
ATOM     31  O   UNL     1      -5.471  -7.763  -2.682  0.00  0.00    -0.456 OA
BRANCH  31  32
ATOM     32  C   UNL     1      -6.160  -6.975  -3.549  0.00  0.00    +0.128 A 
ATOM     33  C   UNL     1      -5.485  -6.052  -4.335  0.00  0.00    +0.046 A 
ATOM     34  C   UNL     1      -6.188  -5.252  -5.216  0.00  0.00    +0.004 A 
ATOM     35  C   UNL     1      -7.562  -5.372  -5.314  0.00  0.00    +0.000 A 
ATOM     36  C   UNL     1      -8.236  -6.291  -4.532  0.00  0.00    +0.004 A 
ATOM     37  C   UNL     1      -7.538  -7.097  -3.654  0.00  0.00    +0.046 A 
ENDBRANCH  31  32
ENDBRANCH  28  31
ENDBRANCH  23  25
ENDBRANCH  22  23
ENDBRANCH   2  22
TORSDOF 8
