REMARK  Name = ZINC20832782
REMARK  12 active torsions:
REMARK  status: ('A' for Active; 'I' for Inactive)
REMARK    1  A    between atoms: C_1  and  C_2
REMARK    2  A    between atoms: C_2  and  C_3
REMARK    3  A    between atoms: C_2  and  S_4
REMARK    4  A    between atoms: S_4  and  C_5
REMARK    5  A    between atoms: C_11  and  C_13
REMARK    6  A    between atoms: C_13  and  S_14
REMARK    7  A    between atoms: S_14  and  C_15
REMARK    8  A    between atoms: N_20  and  N_21
REMARK    9  A    between atoms: C_22  and  C_23
REMARK   10  A    between atoms: C_26  and  N_29
REMARK   11  A    between atoms: N_29  and  C_30
REMARK   12  A    between atoms: N_29  and  C_31
REMARK                            x       y       z     vdW  Elec       q    Type
REMARK                         _______ _______ _______ _____ _____    ______ ____
ROOT
ATOM      1  C   UNL     1      -8.214   2.045   0.109  0.00  0.00    +0.211 A 
ATOM      2  N   UNL     1      -7.289   1.040   0.082  0.00  0.00    -0.186 NA
ATOM      3  C   UNL     1      -6.046   1.610   0.076  0.00  0.00    +0.232 A 
ATOM      4  N   UNL     1      -6.198   2.912   0.104  0.00  0.00    -0.245 N 
ATOM      5  N   UNL     1      -7.571   3.188   0.119  0.00  0.00    -0.144 NA
ATOM      6  N   UNL     1      -4.837   0.930   0.051  0.00  0.00    -0.205 N 
ATOM      7  H   UNL     1      -4.825  -0.169   0.035  0.00  0.00    +0.177 HD
ATOM      8  H   UNL     1      -5.315   3.569   0.111  0.00  0.00    +0.192 HD
ENDROOT
BRANCH   6   9
ATOM      9  N   UNL     1      -3.632   1.645   0.048  0.00  0.00    -0.188 NA
ATOM     10  C   UNL     1      -2.500   1.008   0.025  0.00  0.00    +0.138 C 
BRANCH  10  11
ATOM     11  C   UNL     1      -1.232   1.759   0.021  0.00  0.00    -0.005 A 
ATOM     12  C   UNL     1      -0.013   1.076  -0.004  0.00  0.00    +0.011 A 
ATOM     13  C   UNL     1       1.170   1.782  -0.013  0.00  0.00    +0.024 A 
ATOM     14  C   UNL     1       1.153   3.172   0.009  0.00  0.00    +0.029 A 
ATOM     15  C   UNL     1      -0.058   3.856   0.039  0.00  0.00    +0.024 A 
ATOM     16  C   UNL     1      -1.246   3.157   0.048  0.00  0.00    +0.011 A 
BRANCH  14  17
ATOM     17  N   UNL     1       2.353   3.884  -0.001  0.00  0.00    -0.336 N 
ATOM     18  C   UNL     1       3.629   3.169   0.094  0.00  0.00    +0.129 C 
ATOM     19  C   UNL     1       2.338   5.345  -0.105  0.00  0.00    +0.129 C 
ENDBRANCH  14  17
ENDBRANCH  10  11
ENDBRANCH   6   9
BRANCH   1  20
ATOM     20  S   UNL     1      -9.964   1.841   0.126  0.00  0.00    -0.075 S 
BRANCH  20  21
ATOM     21  C   UNL     1     -10.604   3.538   0.160  0.00  0.00    +0.173 C 
BRANCH  21  28
ATOM     22  C   UNL     1     -16.844   4.949   0.255  0.00  0.00    +0.160 A 
ATOM     23  N   UNL     1     -16.282   3.750   0.230  0.00  0.00    -0.133 NA
ATOM     24  N   UNL     1     -15.030   3.600   0.213  0.00  0.00    -0.125 NA
ATOM     25  C   UNL     1     -14.200   4.631   0.219  0.00  0.00    +0.189 A 
ATOM     26  S   UNL     1     -15.379   5.978   0.261  0.00  0.00    -0.024 S 
ATOM     27  N   UNL     1     -12.808   4.660   0.203  0.00  0.00    -0.263 N 
ATOM     28  C   UNL     1     -12.110   3.507   0.177  0.00  0.00    +0.229 C 
ATOM     29  O   UNL     1     -12.695   2.444   0.167  0.00  0.00    -0.275 OA
ATOM     30  H   UNL     1     -12.277   5.623   0.212  0.00  0.00    +0.157 HD
BRANCH  22  31
ATOM     31  S   UNL     1     -18.547   5.402   0.283  0.00  0.00    -0.094 S 
BRANCH  31  33
ATOM     32  C   UNL     1     -20.926   4.060   0.418  0.00  0.00    +0.019 C 
ATOM     33  C   UNL     1     -19.423   3.814   0.270  0.00  0.00    +0.047 C 
ATOM     34  C   UNL     1     -19.152   3.093  -1.052  0.00  0.00    +0.019 C 
ENDBRANCH  31  33
ENDBRANCH  22  31
ENDBRANCH  21  28
ENDBRANCH  20  21
ENDBRANCH   1  20
TORSDOF 8
