REMARK  Name = ZINC09641494
REMARK  7 active torsions:
REMARK  status: ('A' for Active; 'I' for Inactive)
REMARK    1  A    between atoms: C_1  and  C_2
REMARK    2  A    between atoms: C_7  and  O_8
REMARK    3  A    between atoms: O_8  and  C_9
REMARK    4  A    between atoms: C_9  and  C_10
REMARK    5  A    between atoms: C_10  and  S_11
REMARK    6  A    between atoms: S_11  and  C_12
REMARK    7  A    between atoms: C_14  and  C_23
REMARK                            x       y       z     vdW  Elec       q    Type
REMARK                         _______ _______ _______ _____ _____    ______ ____
ROOT
ATOM      1  C   UNL     1      -3.580  -0.752   0.034  0.00  0.00    +0.192 A 
ATOM      2  N   UNL     1      -2.428  -0.101   0.026  0.00  0.00    -0.202 NA
ATOM      3  C   UNL     1      -1.268  -0.763   0.011  0.00  0.00    +0.165 A 
ATOM      4  N   UNL     1      -1.235  -2.090  -0.002  0.00  0.00    -0.208 NA
ATOM      5  C   UNL     1      -2.374  -2.788   0.011  0.00  0.00    +0.162 A 
ATOM      6  N   UNL     1      -3.580  -2.117   0.026  0.00  0.00    -0.210 N 
ATOM      7  N   UNL     1      -4.602  -3.071   0.031  0.00  0.00    -0.256 N 
ATOM      8  H   UNL     1      -5.553  -2.883   0.042  0.00  0.00    +0.191 HD
ATOM      9  C   UNL     1      -4.042  -4.297   0.019  0.00  0.00    +0.267 A 
ATOM     10  O   UNL     1      -4.646  -5.357   0.019  0.00  0.00    -0.266 OA
ATOM     11  C   UNL     1      -2.654  -4.149   0.006  0.00  0.00    +0.119 A 
ENDROOT
BRANCH   3  12
ATOM     12  C   UNL     1       0.002  -0.004   0.002  0.00  0.00    +0.023 A 
ATOM     13  C   UNL     1       1.222  -0.682  -0.013  0.00  0.00    +0.015 A 
ATOM     14  C   UNL     1       2.405   0.026  -0.021  0.00  0.00    +0.050 A 
ATOM     15  C   UNL     1       2.387   1.414  -0.013  0.00  0.00    +0.166 A 
ATOM     16  C   UNL     1       1.171   2.097   0.002  0.00  0.00    +0.167 A 
ATOM     17  C   UNL     1      -0.017   1.392   0.010  0.00  0.00    +0.061 A 
ATOM     18  O   UNL     1       1.426   3.439   0.007  0.00  0.00    -0.453 OA
ATOM     19  C   UNL     1       2.803   3.567   0.407  0.00  0.00    +0.466 C 
ATOM     20  O   UNL     1       3.400   2.328  -0.018  0.00  0.00    -0.453 OA
ENDBRANCH   3  12
BRANCH   1  21
ATOM     21  S   UNL     1      -5.102   0.136   0.053  0.00  0.00    -0.083 S 
BRANCH  21  22
ATOM     22  C   UNL     1      -4.475   1.834   0.055  0.00  0.00    +0.118 C 
BRANCH  22  23
ATOM     23  C   UNL     1      -5.652   2.812   0.072  0.00  0.00    +0.240 C 
BRANCH  23  24
ATOM     24  O   UNL     1      -5.157   4.152   0.074  0.00  0.00    -0.491 OA
BRANCH  24  31
ATOM     25  C   UNL     1      -4.200   6.810   0.077  0.00  0.00    +0.047 C 
ATOM     26  C   UNL     1      -5.670   6.475   0.090  0.00  0.00    -0.009 A 
ATOM     27  C   UNL     1      -6.609   7.488   0.105  0.00  0.00    +0.007 A 
ATOM     28  C   UNL     1      -7.957   7.182   0.116  0.00  0.00    +0.000 A 
ATOM     29  C   UNL     1      -8.369   5.862   0.113  0.00  0.00    +0.004 A 
ATOM     30  C   UNL     1      -7.433   4.845   0.094  0.00  0.00    +0.046 A 
ATOM     31  C   UNL     1      -6.080   5.150   0.088  0.00  0.00    +0.123 A 
ENDBRANCH  24  31
ENDBRANCH  23  24
ENDBRANCH  22  23
ENDBRANCH  21  22
ENDBRANCH   1  21
TORSDOF 6
