REMARK  Name = ZINC20517368
REMARK  8 active torsions:
REMARK  status: ('A' for Active; 'I' for Inactive)
REMARK    1  A    between atoms: C_1  and  C_2
REMARK    2  A    between atoms: C_5  and  O_12
REMARK    3  A    between atoms: C_8  and  C_10
REMARK    4  A    between atoms: C_8  and  C_11
REMARK    5  A    between atoms: O_12  and  C_13
REMARK    6  A    between atoms: C_16  and  C_22
REMARK    7  A    between atoms: C_18  and  N_19
REMARK    8  A    between atoms: C_22  and  O_23
REMARK                            x       y       z     vdW  Elec       q    Type
REMARK                         _______ _______ _______ _____ _____    ______ ____
ROOT
ATOM      1  C   UNL     1       0.656   5.816   0.387  0.00  0.00    +0.151 A 
ATOM      2  C   UNL     1       1.013   5.086  -0.737  0.00  0.00    +0.048 A 
ATOM      3  C   UNL     1       1.334   5.740  -1.911  0.00  0.00    +0.009 A 
ATOM      4  C   UNL     1       1.310   7.122  -1.963  0.00  0.00    -0.020 A 
ATOM      5  C   UNL     1       0.959   7.852  -0.842  0.00  0.00    +0.042 A 
ATOM      6  C   UNL     1       0.632   7.202   0.333  0.00  0.00    +0.168 A 
ENDROOT
BRANCH   6   7
ATOM      7  N   UNL     1       0.258   7.984   1.532  0.00  0.00    +0.060 N 
ATOM      8  O   UNL     1       0.237   9.201   1.483  0.00  0.00    -0.126 OA
ATOM      9  O   UNL     1      -0.030   7.411   2.567  0.00  0.00    -0.126 OA
ENDBRANCH   6   7
BRANCH   1  10
ATOM     10  O   UNL     1       0.335   5.175   1.542  0.00  0.00    -0.487 OA
BRANCH  10  14
ATOM     11  C   UNL     1       0.320   1.115  -0.105  0.00  0.00    +0.007 C 
ATOM     12  C   UNL     1      -0.622   1.578   1.007  0.00  0.00    -0.010 C 
ATOM     13  C   UNL     1      -0.756   3.094   0.999  0.00  0.00    +0.048 C 
ATOM     14  C   UNL     1       0.501   3.752   1.563  0.00  0.00    +0.174 C 
ATOM     15  C   UNL     1       0.694   3.293   3.007  0.00  0.00    +0.051 C 
ATOM     16  C   UNL     1       0.891   1.783   3.073  0.00  0.00    -0.031 C 
ATOM     17  C   UNL     1      -0.211   1.023   2.356  0.00  0.00    +0.010 C 
ATOM     18  C   UNL     1       0.865   1.370   4.561  0.00  0.00    +0.011 C 
ATOM     19  C   UNL     1       2.268   1.408   2.518  0.00  0.00    +0.011 C 
ENDBRANCH  10  14
ENDBRANCH   1  10
BRANCH   4  20
ATOM     20  C   UNL     1       1.666   7.832  -3.243  0.00  0.00    +0.191 C 
BRANCH  20  21
ATOM     21  O   UNL     1       3.070   8.095  -3.267  0.00  0.00    -0.390 OA
ATOM     22  H   UNL     1       3.518   8.611  -4.129  0.00  0.00    +0.210 HD
ENDBRANCH  20  21
ENDBRANCH   4  20
TORSDOF 5
