REMARK  Name = ZINC03007294
REMARK  12 active torsions:
REMARK  status: ('A' for Active; 'I' for Inactive)
REMARK    1  A    between atoms: C_1  and  C_2
REMARK    2  A    between atoms: C_2  and  C_3
REMARK    3  A    between atoms: C_3  and  C_4
REMARK    4  A    between atoms: C_4  and  N_5
REMARK    5  A    between atoms: N_5  and  C_6
REMARK    6  A    between atoms: N_5  and  S_8
REMARK    7  A    between atoms: C_6  and  C_7
REMARK    8  A    between atoms: S_8  and  C_11
REMARK    9  A    between atoms: C_14  and  C_17
REMARK   10  A    between atoms: N_19  and  C_20
REMARK   11  A    between atoms: C_21  and  C_32
REMARK   12  A    between atoms: C_29  and  C_31
REMARK                            x       y       z     vdW  Elec       q    Type
REMARK                         _______ _______ _______ _____ _____    ______ ____
ROOT
ATOM      1  C   UNL     1      -3.119   3.066   4.885  0.00  0.00    +0.249 C 
ATOM      2  O   UNL     1      -3.928   2.303   5.378  0.00  0.00    -0.270 OA
ATOM      3  N   UNL     1      -2.918   4.281   5.433  0.00  0.00    -0.275 N 
ATOM      4  H   UNL     1      -2.273   4.889   5.040  0.00  0.00    +0.156 HD
ENDROOT
BRANCH   3   5
ATOM      5  C   UNL     1      -3.634   4.661   6.556  0.00  0.00    +0.085 A 
ATOM      6  C   UNL     1      -3.568   5.857   7.257  0.00  0.00    +0.068 A 
ATOM      7  C   UNL     1      -4.434   6.008   8.415  0.00  0.00    -0.020 A 
ATOM      8  C   UNL     1      -5.222   4.944   8.682  0.00  0.00    +0.013 A 
ATOM      9  S   UNL     1      -4.834   3.761   7.425  0.00  0.00    -0.076 S 
ATOM     10  C   UNL     1      -6.211   4.817   9.801  0.00  0.00    +0.150 C 
ATOM     11  N   UNL     1      -6.003   5.970  10.700  0.00  0.00    -0.297 N 
ATOM     12  C   UNL     1      -5.777   7.283  10.077  0.00  0.00    +0.113 C 
ATOM     13  C   UNL     1      -4.468   7.257   9.286  0.00  0.00    +0.056 C 
ATOM     14  C   UNL     1      -6.019   5.824  12.039  0.00  0.00    +0.213 C 
ATOM     15  O   UNL     1      -5.846   6.787  12.756  0.00  0.00    -0.276 OA
ATOM     16  C   UNL     1      -6.253   4.465  12.647  0.00  0.00    +0.109 C 
BRANCH   6  17
ATOM     17  C   UNL     1      -2.659   6.931   6.843  0.00  0.00    +0.244 C 
ATOM     18  O   UNL     1      -3.037   7.778   6.055  0.00  0.00    -0.270 OA
ATOM     19  N   UNL     1      -1.406   6.980   7.335  0.00  0.00    -0.325 N 
ATOM     20  H   UNL     1      -1.105   6.304   7.963  0.00  0.00    +0.145 HD
ATOM     21  H   UNL     1      -0.804   7.690   7.061  0.00  0.00    +0.145 HD
ENDBRANCH   6  17
ENDBRANCH   3   5
BRANCH   1  25
ATOM     22  C   UNL     1      -0.927   1.900   1.439  0.00  0.00    +0.106 A 
ATOM     23  C   UNL     1      -0.715   3.146   2.002  0.00  0.00    +0.029 A 
ATOM     24  C   UNL     1      -1.427   3.533   3.118  0.00  0.00    +0.015 A 
ATOM     25  C   UNL     1      -2.356   2.660   3.687  0.00  0.00    +0.037 A 
ATOM     26  C   UNL     1      -2.561   1.402   3.117  0.00  0.00    +0.015 A 
ATOM     27  C   UNL     1      -1.846   1.030   1.998  0.00  0.00    +0.029 A 
BRANCH  22  28
ATOM     28  S   UNL     1      -0.017   1.417   0.010  0.00  0.00    +0.061 S 
ATOM     29  O   UNL     1       0.002  -0.004   0.002  0.00  0.00    -0.153 OA
ATOM     30  O   UNL     1       1.172   2.195   0.003  0.00  0.00    -0.153 OA
BRANCH  28  31
ATOM     31  N   UNL     1      -0.897   1.885  -1.312  0.00  0.00    -0.177 NA
BRANCH  31  32
ATOM     32  C   UNL     1      -0.691   3.213  -1.897  0.00  0.00    +0.106 C 
ATOM     33  C   UNL     1       0.306   3.112  -3.053  0.00  0.00    +0.022 C 
ENDBRANCH  31  32
BRANCH  31  34
ATOM     34  C   UNL     1      -1.883   0.973  -1.897  0.00  0.00    +0.109 C 
BRANCH  34  35
ATOM     35  C   UNL     1      -3.267   1.280  -1.323  0.00  0.00    +0.017 C 
BRANCH  35  37
ATOM     36  C   UNL     1      -5.680   0.634  -1.359  0.00  0.00    +0.004 C 
ATOM     37  C   UNL     1      -4.296   0.327  -1.934  0.00  0.00    -0.002 C 
ENDBRANCH  35  37
ENDBRANCH  34  35
ENDBRANCH  31  34
ENDBRANCH  28  31
ENDBRANCH  22  28
ENDBRANCH   1  25
TORSDOF 9
