REMARK  Name = ZINC63269469
REMARK  7 active torsions:
REMARK  status: ('A' for Active; 'I' for Inactive)
REMARK    1  A    between atoms: C_1  and  C_2
REMARK    2  A    between atoms: C_2  and  C_3
REMARK    3  A    between atoms: C_2  and  N_4
REMARK    4  A    between atoms: N_7  and  N_8
REMARK    5  A    between atoms: C_9  and  C_11
REMARK    6  A    between atoms: N_16  and  S_17
REMARK    7  A    between atoms: S_17  and  C_20
REMARK                            x       y       z     vdW  Elec       q    Type
REMARK                         _______ _______ _______ _____ _____    ______ ____
ROOT
ATOM      1  C   UNL     1      -6.339  -1.145   0.905  0.00  0.00    +0.167 C 
ATOM      2  C   UNL     1      -6.091   0.195   0.205  0.00  0.00    +0.030 C 
ATOM      3  C   UNL     1      -7.305   1.105   0.410  0.00  0.00    +0.003 C 
ATOM      4  C   UNL     1      -8.543   0.455  -0.213  0.00  0.00    +0.017 C 
ATOM      5  C   UNL     1      -8.818  -0.882   0.483  0.00  0.00    +0.110 C 
ATOM      6  N   UNL     1      -7.604  -1.708   0.416  0.00  0.00    -0.165 NA
ENDROOT
BRANCH   1   8
ATOM      7  N   UNL     1      -4.566  -2.727   1.595  0.00  0.00    -0.232 N 
ATOM      8  C   UNL     1      -5.210  -2.094   0.594  0.00  0.00    +0.248 C 
ATOM      9  O   UNL     1      -4.881  -2.288  -0.557  0.00  0.00    -0.273 OA
ATOM     10  H   UNL     1      -4.830  -2.572   2.515  0.00  0.00    +0.173 HD
BRANCH   7  14
ATOM     11  N   UNL     1      -3.239  -4.027   3.585  0.00  0.00    -0.296 N 
ATOM     12  C   UNL     1      -2.873  -4.242   2.306  0.00  0.00    +0.316 C 
ATOM     13  O   UNL     1      -1.963  -5.008   2.055  0.00  0.00    -0.251 OA
ATOM     14  N   UNL     1      -3.517  -3.609   1.305  0.00  0.00    -0.218 N 
ATOM     15  H   UNL     1      -3.966  -3.416   3.786  0.00  0.00    +0.151 HD
ATOM     16  H   UNL     1      -3.254  -3.764   0.385  0.00  0.00    +0.174 HD
BRANCH  11  18
ATOM     17  C   UNL     1      -2.669  -3.898   5.960  0.00  0.00    +0.027 C 
ATOM     18  C   UNL     1      -2.540  -4.715   4.673  0.00  0.00    +0.068 C 
ATOM     19  C   UNL     1      -3.159  -6.098   4.883  0.00  0.00    +0.027 C 
ENDBRANCH  11  18
ENDBRANCH   7  14
ENDBRANCH   1   8
BRANCH   6  20
ATOM     20  S   UNL     1      -7.663  -3.244  -0.199  0.00  0.00    +0.062 S 
ATOM     21  O   UNL     1      -6.458  -3.886   0.197  0.00  0.00    -0.153 OA
ATOM     22  O   UNL     1      -8.945  -3.764   0.126  0.00  0.00    -0.153 OA
BRANCH  20  23
ATOM     23  C   UNL     1      -7.606  -3.106  -1.954  0.00  0.00    +0.106 A 
ATOM     24  C   UNL     1      -8.778  -2.986  -2.677  0.00  0.00    +0.028 A 
ATOM     25  C   UNL     1      -8.733  -2.877  -4.054  0.00  0.00    +0.002 A 
ATOM     26  C   UNL     1      -7.516  -2.887  -4.709  0.00  0.00    +0.000 A 
ATOM     27  C   UNL     1      -6.343  -3.006  -3.986  0.00  0.00    +0.002 A 
ATOM     28  C   UNL     1      -6.388  -3.110  -2.609  0.00  0.00    +0.028 A 
ENDBRANCH  20  23
ENDBRANCH   6  20
TORSDOF 5
