REMARK  Name = ZINC23552139
REMARK  11 active torsions:
REMARK  status: ('A' for Active; 'I' for Inactive)
REMARK    1  A    between atoms: C_1  and  C_2
REMARK    2  A    between atoms: C_5  and  S_24
REMARK    3  A    between atoms: C_7  and  N_8
REMARK    4  A    between atoms: C_9  and  C_11
REMARK    5  A    between atoms: C_11  and  C_13
REMARK    6  A    between atoms: C_11  and  O_14
REMARK    7  A    between atoms: O_14  and  C_15
REMARK    8  A    between atoms: C_18  and  N_21
REMARK    9  A    between atoms: S_24  and  N_27
REMARK   10  A    between atoms: N_27  and  C_28
REMARK   11  A    between atoms: N_27  and  C_29
REMARK                            x       y       z     vdW  Elec       q    Type
REMARK                         _______ _______ _______ _____ _____    ______ ____
ROOT
ATOM      1  N   UNL     1      -0.032   0.005  -2.412  0.00  0.00    -0.282 N 
ATOM      2  C   UNL     1      -0.527  -0.577  -3.522  0.00  0.00    +0.258 C 
ATOM      3  O   UNL     1      -1.026  -1.681  -3.457  0.00  0.00    -0.271 OA
ATOM      4  H   UNL     1       0.337   1.041  -2.452  0.00  0.00    +0.155 HD
ENDROOT
BRANCH   1  11
ATOM      5  C   UNL     1      -0.017   1.478   0.022  0.00  0.00    +0.045 C 
ATOM      6  C   UNL     1       0.022  -0.028   0.002  0.00  0.00    -0.029 A 
ATOM      7  C   UNL     1       0.060  -0.735   1.189  0.00  0.00    +0.007 A 
ATOM      8  C   UNL     1       0.095  -2.117   1.171  0.00  0.00    +0.029 A 
ATOM      9  C   UNL     1       0.091  -2.796  -0.034  0.00  0.00    +0.107 A 
ATOM     10  C   UNL     1       0.054  -2.096  -1.223  0.00  0.00    +0.052 A 
ATOM     11  C   UNL     1       0.013  -0.707  -1.209  0.00  0.00    +0.038 A 
BRANCH   9  12
ATOM     12  S   UNL     1       0.135  -4.558  -0.050  0.00  0.00    +0.060 S 
ATOM     13  O   UNL     1       0.674  -4.938  -1.309  0.00  0.00    -0.153 OA
ATOM     14  O   UNL     1       0.718  -4.961   1.181  0.00  0.00    -0.153 OA
BRANCH  12  15
ATOM     15  N   UNL     1      -1.434  -5.087  -0.028  0.00  0.00    -0.183 NA
ATOM     16  C   UNL     1      -2.150  -5.309  -1.286  0.00  0.00    +0.131 C 
ATOM     17  C   UNL     1      -2.106  -5.332   1.251  0.00  0.00    +0.131 C 
ENDBRANCH  12  15
ENDBRANCH   9  12
ENDBRANCH   1  11
BRANCH   2  18
ATOM     18  C   UNL     1      -0.460   0.142  -4.844  0.00  0.00    +0.256 C 
ATOM     19  C   UNL     1       1.004   0.316  -5.256  0.00  0.00    +0.062 C 
BRANCH  18  20
ATOM     20  O   UNL     1      -1.147  -0.622  -5.838  0.00  0.00    -0.480 OA
BRANCH  20  21
ATOM     21  C   UNL     1      -1.634   0.057  -6.910  0.00  0.00    +0.122 A 
ATOM     22  C   UNL     1      -1.548   1.441  -6.954  0.00  0.00    +0.048 A 
ATOM     23  C   UNL     1      -2.039   2.127  -8.047  0.00  0.00    +0.036 A 
ATOM     24  C   UNL     1      -2.626   1.437  -9.092  0.00  0.00    +0.126 A 
ATOM     25  C   UNL     1      -2.718   0.059  -9.048  0.00  0.00    +0.036 A 
ATOM     26  C   UNL     1      -2.223  -0.633  -7.959  0.00  0.00    +0.048 A 
BRANCH  24  27
ATOM     27  N   UNL     1      -3.158   2.176 -10.259  0.00  0.00    +0.056 N 
ATOM     28  O   UNL     1      -3.675   1.569 -11.180  0.00  0.00    -0.126 OA
ATOM     29  O   UNL     1      -3.077   3.391 -10.299  0.00  0.00    -0.126 OA
ENDBRANCH  24  27
ENDBRANCH  20  21
ENDBRANCH  18  20
ENDBRANCH   2  18
TORSDOF 7
