REMARK  Name = ZINC12261328
REMARK  7 active torsions:
REMARK  status: ('A' for Active; 'I' for Inactive)
REMARK    1  A    between atoms: C_1  and  C_2
REMARK    2  A    between atoms: N_11  and  C_15
REMARK    3  A    between atoms: C_15  and  C_16
REMARK    4  A    between atoms: C_16  and  O_18
REMARK    5  A    between atoms: O_18  and  C_19
REMARK    6  A    between atoms: C_19  and  C_21
REMARK    7  A    between atoms: C_19  and  C_27
REMARK                            x       y       z     vdW  Elec       q    Type
REMARK                         _______ _______ _______ _____ _____    ______ ____
ROOT
ATOM      1  C   UNL     1      -3.301  -0.488   2.955  0.00  0.00    +0.238 C 
ENDROOT
BRANCH   1  11
ATOM      2  C   UNL     1      -1.536   3.561   2.539  0.00  0.00    +0.010 C 
ATOM      3  C   UNL     1      -0.790   3.101   1.286  0.00  0.00    +0.018 C 
ATOM      4  C   UNL     1      -1.527   3.600   0.040  0.00  0.00    +0.006 C 
ATOM      5  C   UNL     1      -0.790   3.122  -1.213  0.00  0.00    +0.000 C 
ATOM      6  C   UNL     1      -0.753   1.593  -1.233  0.00  0.00    +0.003 C 
ATOM      7  C   UNL     1      -0.013   1.086   0.008  0.00  0.00    +0.035 C 
ATOM      8  C   UNL     1      -0.726   1.577   1.263  0.00  0.00    +0.115 C 
ATOM      9  C   UNL     1      -2.117   0.991   1.342  0.00  0.00    +0.247 C 
ATOM     10  O   UNL     1      -3.023   1.142   0.552  0.00  0.00    -0.273 OA
ATOM     11  N   UNL     1      -2.136   0.263   2.478  0.00  0.00    -0.213 N 
ATOM     12  C   UNL     1      -0.960   0.312   3.115  0.00  0.00    +0.310 C 
ATOM     13  O   UNL     1      -0.734  -0.264   4.161  0.00  0.00    -0.252 OA
ATOM     14  N   UNL     1      -0.056   1.072   2.468  0.00  0.00    -0.285 N 
ATOM     15  H   UNL     1       0.857   1.250   2.743  0.00  0.00    +0.151 HD
ENDBRANCH   1  11
BRANCH   1  16
ATOM     16  C   UNL     1      -3.260  -1.886   2.395  0.00  0.00    +0.326 C 
ATOM     17  O   UNL     1      -2.352  -2.222   1.671  0.00  0.00    -0.249 OA
BRANCH  16  18
ATOM     18  O   UNL     1      -4.233  -2.760   2.699  0.00  0.00    -0.446 OA
BRANCH  18  19
ATOM     19  C   UNL     1      -4.129  -4.089   2.124  0.00  0.00    +0.292 C 
BRANCH  19  20
ATOM     20  C   UNL     1      -4.768  -5.089   3.053  0.00  0.00    +0.002 A 
ATOM     21  C   UNL     1      -5.940  -4.770   3.713  0.00  0.00    +0.008 A 
ATOM     22  C   UNL     1      -6.528  -5.689   4.561  0.00  0.00    +0.000 A 
ATOM     23  C   UNL     1      -5.939  -6.924   4.757  0.00  0.00    +0.000 A 
ATOM     24  C   UNL     1      -4.765  -7.242   4.101  0.00  0.00    +0.000 A 
ATOM     25  C   UNL     1      -4.179  -6.324   3.249  0.00  0.00    +0.008 A 
ENDBRANCH  19  20
BRANCH  19  26
ATOM     26  C   UNL     1      -4.836  -4.117   0.793  0.00  0.00    +0.256 C 
ATOM     27  O   UNL     1      -5.373  -3.115   0.371  0.00  0.00    -0.272 OA
ATOM     28  N   UNL     1      -4.870  -5.255   0.072  0.00  0.00    -0.326 N 
ATOM     29  H   UNL     1      -4.439  -6.056   0.410  0.00  0.00    +0.145 HD
ATOM     30  H   UNL     1      -5.324  -5.273  -0.785  0.00  0.00    +0.145 HD
ENDBRANCH  19  26
ENDBRANCH  18  19
ENDBRANCH  16  18
ENDBRANCH   1  16
TORSDOF 6
