REMARK  Name = ZINC49308554
REMARK  6 active torsions:
REMARK  status: ('A' for Active; 'I' for Inactive)
REMARK    1  A    between atoms: C_1  and  C_2
REMARK    2  A    between atoms: C_2  and  C_29
REMARK    3  A    between atoms: C_7  and  N_11
REMARK    4  A    between atoms: C_12  and  C_14
REMARK    5  A    between atoms: N_16  and  C_17
REMARK    6  A    between atoms: C_17  and  C_18
REMARK                            x       y       z     vdW  Elec       q    Type
REMARK                         _______ _______ _______ _____ _____    ______ ____
ROOT
ATOM      1  N   UNL     1      -0.081  -4.875   3.288  0.00  0.00    -0.278 N 
ATOM      2  C   UNL     1      -0.955  -5.871   3.535  0.00  0.00    +0.303 C 
ATOM      3  O   UNL     1      -2.034  -5.884   2.979  0.00  0.00    -0.265 OA
ATOM      4  H   UNL     1       0.806  -4.900   3.680  0.00  0.00    +0.155 HD
ENDROOT
BRANCH   1  11
ATOM      5  C   UNL     1      -2.903  -1.164  -2.188  0.00  0.00    +0.104 C 
ATOM      6  C   UNL     1      -2.792  -1.521  -0.704  0.00  0.00    +0.248 C 
ATOM      7  O   UNL     1      -1.686  -0.826  -0.098  0.00  0.00    -0.448 OA
ATOM      8  C   UNL     1      -1.186  -1.684   0.840  0.00  0.00    +0.167 A 
ATOM      9  C   UNL     1      -0.352  -1.470   1.925  0.00  0.00    +0.051 A 
ATOM     10  C   UNL     1       0.015  -2.527   2.737  0.00  0.00    +0.027 A 
ATOM     11  C   UNL     1      -0.453  -3.806   2.466  0.00  0.00    +0.038 A 
ATOM     12  C   UNL     1      -1.290  -4.024   1.380  0.00  0.00    +0.073 A 
ATOM     13  C   UNL     1      -1.657  -2.966   0.566  0.00  0.00    +0.169 A 
ATOM     14  O   UNL     1      -2.452  -2.911  -0.542  0.00  0.00    -0.448 OA
ATOM     15  C   UNL     1      -4.098  -1.199   0.024  0.00  0.00    +0.104 C 
ENDBRANCH   1  11
BRANCH   2  16
ATOM     16  C   UNL     1      -0.596  -6.959   4.493  0.00  0.00    +0.299 C 
ATOM     17  O   UNL     1       0.482  -6.946   5.050  0.00  0.00    -0.265 OA
ATOM     18  N   UNL     1      -1.470  -7.955   4.740  0.00  0.00    -0.307 N 
ATOM     19  H   UNL     1      -2.332  -7.965   4.296  0.00  0.00    +0.149 HD
BRANCH  18  20
ATOM     20  C   UNL     1      -1.118  -9.022   5.680  0.00  0.00    +0.111 C 
BRANCH  20  21
ATOM     21  C   UNL     1      -2.275 -10.018   5.779  0.00  0.00    +0.048 C 
ATOM     22  C   UNL     1      -1.871 -11.192   6.673  0.00  0.00    +0.047 C 
ATOM     23  C   UNL     1      -3.088 -12.015   7.011  0.00  0.00    -0.005 A 
ATOM     24  C   UNL     1      -2.910 -13.305   7.482  0.00  0.00    +0.007 A 
ATOM     25  C   UNL     1      -4.002 -14.086   7.806  0.00  0.00    +0.000 A 
ATOM     26  C   UNL     1      -5.281 -13.580   7.660  0.00  0.00    +0.004 A 
ATOM     27  C   UNL     1      -5.464 -12.296   7.189  0.00  0.00    +0.046 A 
ATOM     28  C   UNL     1      -4.366 -11.507   6.861  0.00  0.00    +0.124 A 
ATOM     29  O   UNL     1      -4.587 -10.252   6.391  0.00  0.00    -0.491 OA
ATOM     30  C   UNL     1      -3.496  -9.332   6.405  0.00  0.00    +0.234 C 
ENDBRANCH  20  21
ENDBRANCH  18  20
ENDBRANCH   2  16
TORSDOF 4
