REMARK  Name = ZINC16492909
REMARK  8 active torsions:
REMARK  status: ('A' for Active; 'I' for Inactive)
REMARK    1  A    between atoms: C_4  and  C_7
REMARK    2  A    between atoms: C_10  and  C_36
REMARK    3  A    between atoms: C_11  and  S_13
REMARK    4  A    between atoms: S_13  and  C_14
REMARK    5  A    between atoms: C_14  and  C_15
REMARK    6  A    between atoms: C_22  and  N_35
REMARK    7  A    between atoms: C_23  and  C_33
REMARK    8  A    between atoms: C_24  and  C_26
REMARK                            x       y       z     vdW  Elec       q    Type
REMARK                         _______ _______ _______ _____ _____    ______ ____
ROOT
ATOM      1  C   UNL     1      -0.016   1.308   0.009  0.00  0.00    +0.081 A 
ATOM      2  C   UNL     1       1.298   1.757  -0.001  0.00  0.00    +0.050 A 
ATOM      3  C   UNL     1       2.119   0.664  -0.016  0.00  0.00    +0.223 A 
ATOM      4  N   UNL     1       1.340  -0.429  -0.013  0.00  0.00    -0.246 N 
ATOM      5  H   UNL     1       1.656  -1.378  -0.021  0.00  0.00    +0.192 HD
ATOM      6  N   UNL     1       0.002  -0.004   0.002  0.00  0.00    -0.175 NA
ATOM      7  O   UNL     1       3.472   0.764  -0.031  0.00  0.00    -0.423 OA
ATOM      8  C   UNL     1       4.005   1.972  -0.306  0.00  0.00    +0.200 C 
ATOM      9  C   UNL     1       3.298   3.123  -0.310  0.00  0.00    +0.098 C 
ATOM     10  C   UNL     1       1.824   3.169   0.004  0.00  0.00    +0.104 C 
ENDROOT
BRANCH  10  11
ATOM     11  C   UNL     1       1.611   3.786   1.362  0.00  0.00    +0.001 A 
ATOM     12  C   UNL     1       2.169   3.200   2.482  0.00  0.00    +0.007 A 
ATOM     13  C   UNL     1       1.975   3.767   3.728  0.00  0.00    +0.000 A 
ATOM     14  C   UNL     1       1.223   4.920   3.855  0.00  0.00    +0.003 A 
ATOM     15  C   UNL     1       0.664   5.508   2.736  0.00  0.00    +0.038 A 
ATOM     16  C   UNL     1       0.862   4.944   1.487  0.00  0.00    +0.127 A 
ATOM     17  F   UNL     1       0.321   5.521   0.391  0.00  0.00    -0.205 F 
ENDBRANCH  10  11
BRANCH   8  18
ATOM     18  N   UNL     1       5.345   2.034  -0.600  0.00  0.00    -0.328 N 
ATOM     19  H   UNL     1       5.878   1.224  -0.606  0.00  0.00    +0.145 HD
ATOM     20  H   UNL     1       5.757   2.889  -0.803  0.00  0.00    +0.145 HD
ENDBRANCH   8  18
BRANCH   9  21
ATOM     21  C   UNL     1       3.975   4.346  -0.623  0.00  0.00    +0.101 C 
ATOM     22  N   UNL     1       4.511   5.316  -0.871  0.00  0.00    -0.191 NA
ENDBRANCH   9  21
BRANCH   1  23
ATOM     23  C   UNL     1      -1.248   2.176   0.020  0.00  0.00    +0.133 C 
BRANCH  23  24
ATOM     24  S   UNL     1      -1.732   2.515   1.731  0.00  0.00    -0.098 S 
BRANCH  24  29
ATOM     25  C   UNL     1      -4.600   4.540  -0.036  0.00  0.00    +0.072 A 
ATOM     26  C   UNL     1      -5.363   5.076   1.001  0.00  0.00    +0.030 A 
ATOM     27  C   UNL     1      -5.004   4.821   2.309  0.00  0.00    +0.023 A 
ATOM     28  C   UNL     1      -3.876   4.025   2.549  0.00  0.00    +0.084 A 
ATOM     29  C   UNL     1      -3.154   3.518   1.453  0.00  0.00    +0.115 A 
ATOM     30  N   UNL     1      -3.532   3.793   0.216  0.00  0.00    -0.239 NA
BRANCH  25  34
ATOM     31  C   UNL     1      -5.702   5.322  -4.067  0.00  0.00    +0.000 A 
ATOM     32  C   UNL     1      -4.593   4.541  -3.795  0.00  0.00    +0.001 A 
ATOM     33  C   UNL     1      -4.230   4.284  -2.489  0.00  0.00    +0.010 A 
ATOM     34  C   UNL     1      -4.984   4.813  -1.442  0.00  0.00    +0.000 A 
ATOM     35  C   UNL     1      -6.103   5.596  -1.722  0.00  0.00    +0.010 A 
ATOM     36  C   UNL     1      -6.453   5.850  -3.032  0.00  0.00    +0.001 A 
ENDBRANCH  25  34
BRANCH  28  37
ATOM     37  C   UNL     1      -3.464   3.732   3.889  0.00  0.00    +0.102 C 
ATOM     38  N   UNL     1      -3.137   3.501   4.952  0.00  0.00    -0.191 NA
ENDBRANCH  28  37
ENDBRANCH  24  29
ENDBRANCH  23  24
ENDBRANCH   1  23
TORSDOF 8
