REMARK  Name = ZINC08646260
REMARK  13 active torsions:
REMARK  status: ('A' for Active; 'I' for Inactive)
REMARK    1  A    between atoms: C_1  and  C_2
REMARK    2  A    between atoms: C_2  and  C_3
REMARK    3  A    between atoms: C_4  and  C_34
REMARK    4  A    between atoms: C_6  and  N_13
REMARK    5  A    between atoms: C_7  and  C_8
REMARK    6  A    between atoms: C_8  and  O_10
REMARK    7  A    between atoms: O_10  and  C_11
REMARK    8  A    between atoms: C_11  and  C_12
REMARK    9  A    between atoms: C_14  and  C_16
REMARK   10  A    between atoms: C_16  and  N_17
REMARK   11  A    between atoms: C_20  and  C_24
REMARK   12  A    between atoms: C_20  and  C_25
REMARK   13  A    between atoms: C_28  and  N_31
REMARK                            x       y       z     vdW  Elec       q    Type
REMARK                         _______ _______ _______ _____ _____    ______ ____
ROOT
ATOM      1  C   UNL     1      -1.239   2.150   0.020  0.00  0.00    +0.214 C 
ENDROOT
BRANCH   1   2
ATOM      2  N   UNL     1      -0.016   1.343   0.009  0.00  0.00    -0.215 N 
ATOM      3  C   UNL     1       0.002  -0.004   0.002  0.00  0.00    +0.251 C 
ATOM      4  O   UNL     1      -0.954  -0.749   0.008  0.00  0.00    -0.272 OA
ATOM      5  C   UNL     1       1.467  -0.394  -0.014  0.00  0.00    +0.135 C 
ATOM      6  N   UNL     1       2.170   0.901  -0.014  0.00  0.00    -0.281 N 
ATOM      7  C   UNL     1       1.220   1.854   0.000  0.00  0.00    +0.310 C 
ATOM      8  O   UNL     1       1.460   3.045   0.004  0.00  0.00    -0.252 OA
ATOM      9  C   UNL     1       1.799  -1.187  -1.280  0.00  0.00    +0.047 C 
ATOM     10  H   UNL     1       3.130   1.039  -0.022  0.00  0.00    +0.152 HD
BRANCH   5  11
ATOM     11  C   UNL     1       1.818  -1.188   1.218  0.00  0.00    -0.015 A 
ATOM     12  C   UNL     1       0.860  -1.975   1.829  0.00  0.00    +0.008 A 
ATOM     13  C   UNL     1       1.183  -2.707   2.956  0.00  0.00    +0.033 A 
ATOM     14  C   UNL     1       2.461  -2.644   3.478  0.00  0.00    +0.126 A 
ATOM     15  C   UNL     1       3.418  -1.853   2.870  0.00  0.00    +0.033 A 
ATOM     16  C   UNL     1       3.096  -1.125   1.740  0.00  0.00    +0.008 A 
BRANCH  14  17
ATOM     17  N   UNL     1       2.805  -3.423   4.689  0.00  0.00    +0.056 N 
ATOM     18  O   UNL     1       3.932  -3.368   5.149  0.00  0.00    -0.126 OA
ATOM     19  O   UNL     1       1.962  -4.120   5.224  0.00  0.00    -0.126 OA
ENDBRANCH  14  17
ENDBRANCH   5  11
ENDBRANCH   1   2
BRANCH   1  21
ATOM     20  N   UNL     1      -2.757   3.147   1.700  0.00  0.00    -0.278 N 
ATOM     21  C   UNL     1      -1.652   2.419   1.444  0.00  0.00    +0.236 C 
ATOM     22  O   UNL     1      -0.989   1.980   2.360  0.00  0.00    -0.274 OA
ATOM     23  H   UNL     1      -3.287   3.498   0.967  0.00  0.00    +0.155 HD
BRANCH  20  27
ATOM     24  C   UNL     1      -4.388   4.215   4.902  0.00  0.00    -0.022 A 
ATOM     25  C   UNL     1      -3.464   3.604   5.665  0.00  0.00    -0.008 A 
ATOM     26  S   UNL     1      -2.360   2.880   4.470  0.00  0.00    -0.078 S 
ATOM     27  C   UNL     1      -3.136   3.394   3.010  0.00  0.00    +0.086 A 
ATOM     28  C   UNL     1      -4.229   4.120   3.470  0.00  0.00    +0.091 A 
ATOM     29  C   UNL     1      -3.381   3.547   7.168  0.00  0.00    +0.052 C 
BRANCH  24  31
ATOM     30  C   UNL     1      -5.133   6.431   5.728  0.00  0.00    +0.009 C 
ATOM     31  C   UNL     1      -5.538   4.971   5.517  0.00  0.00    +0.033 C 
ENDBRANCH  24  31
BRANCH  28  32
ATOM     32  C   UNL     1      -5.174   4.754   2.549  0.00  0.00    +0.342 C 
ATOM     33  O   UNL     1      -6.151   4.141   2.163  0.00  0.00    -0.245 OA
BRANCH  32  34
ATOM     34  O   UNL     1      -4.961   6.018   2.128  0.00  0.00    -0.461 OA
BRANCH  34  35
ATOM     35  C   UNL     1      -5.939   6.582   1.215  0.00  0.00    +0.229 C 
ATOM     36  C   UNL     1      -5.532   8.012   0.852  0.00  0.00    +0.048 C 
ENDBRANCH  34  35
ENDBRANCH  32  34
ENDBRANCH  28  32
ENDBRANCH  20  27
ENDBRANCH   1  21
TORSDOF 9
