REMARK  Name = ZINC39666228
REMARK  8 active torsions:
REMARK  status: ('A' for Active; 'I' for Inactive)
REMARK    1  A    between atoms: C_1  and  C_2
REMARK    2  A    between atoms: C_5  and  O_8
REMARK    3  A    between atoms: O_8  and  C_9
REMARK    4  A    between atoms: C_9  and  C_11
REMARK    5  A    between atoms: C_9  and  C_12
REMARK    6  A    between atoms: C_12  and  N_13
REMARK    7  A    between atoms: C_14  and  C_16
REMARK    8  A    between atoms: C_27  and  C_29
REMARK                            x       y       z     vdW  Elec       q    Type
REMARK                         _______ _______ _______ _____ _____    ______ ____
ROOT
ATOM      1  C   UNL     1       5.140  -6.126   0.916  0.00  0.00    +0.100 C 
ATOM      2  C   UNL     1       5.152  -5.503  -0.497  0.00  0.00    +0.121 C 
ATOM      3  N   UNL     1       6.384  -6.030  -1.129  0.00  0.00    -0.300 N 
ATOM      4  C   UNL     1       6.457  -7.440  -0.676  0.00  0.00    +0.115 C 
ATOM      5  C   UNL     1       5.997  -7.397   0.795  0.00  0.00    -0.004 C 
ATOM      6  C   UNL     1       5.161  -8.631   1.122  0.00  0.00    -0.010 C 
ATOM      7  C   UNL     1       6.048  -9.877   1.052  0.00  0.00    -0.082 C 
ATOM      8  N   UNL     1       7.156  -9.745   2.006  0.00  0.00    +0.379 N 
ATOM      9  C   UNL     1       8.009  -8.611   1.629  0.00  0.00    -0.082 C 
ATOM     10  C   UNL     1       7.204  -7.312   1.724  0.00  0.00    -0.010 C 
ATOM     11  C   UNL     1       7.246  -5.376  -1.932  0.00  0.00    +0.219 C 
ATOM     12  O   UNL     1       6.998  -4.245  -2.294  0.00  0.00    -0.275 OA
ATOM     13  H   UNL     1       6.785  -9.592   2.931  0.00  0.00    -0.086 HD
ATOM     14  H   UNL     1       7.705 -10.592   2.001  0.00  0.00    -0.086 HD
ENDROOT
BRANCH  11  15
ATOM     15  C   UNL     1       8.517  -6.049  -2.381  0.00  0.00    +0.079 C 
ATOM     16  C   UNL     1       9.491  -4.998  -2.931  0.00  0.00    +0.017 C 
ATOM     17  C   UNL     1      10.831  -5.680  -3.211  0.00  0.00    +0.027 C 
ATOM     18  C   UNL     1      10.617  -6.931  -4.012  0.00  0.00    -0.031 C 
ATOM     19  C   UNL     1       9.476  -7.529  -4.133  0.00  0.00    -0.030 C 
ATOM     20  C   UNL     1       8.203  -7.052  -3.493  0.00  0.00    +0.039 C 
ENDBRANCH  11  15
BRANCH   1  22
ATOM     21  N   UNL     1       3.386  -6.475   2.625  0.00  0.00    -0.312 N 
ATOM     22  C   UNL     1       3.732  -6.479   1.323  0.00  0.00    +0.218 C 
ATOM     23  O   UNL     1       2.911  -6.766   0.478  0.00  0.00    -0.275 OA
ATOM     24  H   UNL     1       4.042  -6.245   3.301  0.00  0.00    +0.149 HD
BRANCH  21  25
ATOM     25  C   UNL     1       2.017  -6.818   3.020  0.00  0.00    +0.148 C 
BRANCH  25  26
ATOM     26  C   UNL     1       1.891  -6.738   4.543  0.00  0.00    +0.187 C 
ATOM     27  C   UNL     1       0.499  -7.215   4.965  0.00  0.00    +0.053 C 
BRANCH  26  28
ATOM     28  O   UNL     1       2.079  -5.386   4.966  0.00  0.00    -0.488 OA
BRANCH  28  33
ATOM     29  C   UNL     1       3.791  -4.582  10.271  0.00  0.00    +0.044 C 
ATOM     30  C   UNL     1       3.333  -4.797   8.852  0.00  0.00    -0.050 A 
ATOM     31  C   UNL     1       3.029  -6.072   8.410  0.00  0.00    +0.007 A 
ATOM     32  C   UNL     1       2.609  -6.271   7.109  0.00  0.00    +0.046 A 
ATOM     33  C   UNL     1       2.491  -5.192   6.246  0.00  0.00    +0.121 A 
ATOM     34  C   UNL     1       2.796  -3.914   6.692  0.00  0.00    +0.046 A 
ATOM     35  C   UNL     1       3.211  -3.719   7.995  0.00  0.00    +0.007 A 
ENDBRANCH  28  33
ENDBRANCH  26  28
ENDBRANCH  25  26
ENDBRANCH  21  25
ENDBRANCH   1  22
TORSDOF 6
