REMARK  Name = ZINC20813178
REMARK  9 active torsions:
REMARK  status: ('A' for Active; 'I' for Inactive)
REMARK    1  A    between atoms: C_8  and  C_12
REMARK    2  A    between atoms: C_12  and  C_14
REMARK    3  A    between atoms: C_14  and  S_15
REMARK    4  A    between atoms: S_15  and  C_16
REMARK    5  A    between atoms: C_17  and  C_32
REMARK    6  A    between atoms: C_18  and  C_25
REMARK    7  A    between atoms: C_19  and  C_23
REMARK    8  A    between atoms: C_20  and  N_22
REMARK    9  A    between atoms: C_29  and  O_31
REMARK                            x       y       z     vdW  Elec       q    Type
REMARK                         _______ _______ _______ _____ _____    ______ ____
ROOT
ATOM      1  C   UNL     1      -0.611   7.456  -1.003  0.00  0.00    +0.117 A 
ATOM      2  C   UNL     1      -0.609   6.049  -1.055  0.00  0.00    +0.093 A 
ATOM      3  C   UNL     1      -0.076   5.328   0.031  0.00  0.00    +0.023 A 
ATOM      4  C   UNL     1       0.428   6.055   1.127  0.00  0.00    +0.100 A 
ATOM      5  C   UNL     1       0.388   7.462   1.088  0.00  0.00    +0.136 A 
ATOM      6  N   UNL     1      -0.122   8.099   0.047  0.00  0.00    -0.224 NA
ENDROOT
BRANCH   3   7
ATOM      7  C   UNL     1      -0.051   3.848   0.023  0.00  0.00    -0.012 A 
ATOM      8  C   UNL     1      -1.247   3.128   0.031  0.00  0.00    +0.009 A 
ATOM      9  C   UNL     1      -1.221   1.748   0.017  0.00  0.00    +0.004 A 
ATOM     10  C   UNL     1      -0.013   1.076   0.008  0.00  0.00    +0.045 A 
ATOM     11  C   UNL     1       1.181   1.784   0.000  0.00  0.00    +0.117 A 
ATOM     12  C   UNL     1       1.166   3.169   0.008  0.00  0.00    +0.054 A 
BRANCH  11  13
ATOM     13  O   UNL     1       2.366   1.118  -0.015  0.00  0.00    -0.507 OA
ATOM     14  H   UNL     1       3.312   1.679  -0.021  0.00  0.00    +0.292 HD
ENDBRANCH  11  13
ENDBRANCH   3   7
BRANCH   5  15
ATOM     15  N   UNL     1       0.883   8.186   2.154  0.00  0.00    -0.342 N 
ATOM     16  H   UNL     1       0.856   9.286   2.132  0.00  0.00    +0.144 HD
ATOM     17  H   UNL     1       1.305   7.664   3.025  0.00  0.00    +0.144 HD
ENDBRANCH   5  15
BRANCH   4  18
ATOM     18  C   UNL     1       0.976   5.375   2.262  0.00  0.00    +0.103 C 
ATOM     19  N   UNL     1       1.411   4.835   3.161  0.00  0.00    -0.191 NA
ENDBRANCH   4  18
BRANCH   2  20
ATOM     20  C   UNL     1      -1.139   5.363  -2.194  0.00  0.00    +0.102 C 
ATOM     21  N   UNL     1      -1.560   4.818  -3.098  0.00  0.00    -0.191 NA
ENDBRANCH   2  20
BRANCH   1  22
ATOM     22  S   UNL     1      -1.274   8.375  -2.353  0.00  0.00    -0.097 S 
BRANCH  22  23
ATOM     23  C   UNL     1      -1.016  10.059  -1.744  0.00  0.00    +0.155 C 
BRANCH  23  24
ATOM     24  C   UNL     1      -1.522  11.046  -2.764  0.00  0.00    +0.180 C 
ATOM     25  O   UNL     1      -2.010  10.649  -3.802  0.00  0.00    -0.291 OA
BRANCH  24  33
ATOM     26  C   UNL     1      -0.175  16.209   0.268  0.00  0.00    +0.001 A 
ATOM     27  C   UNL     1      -0.652  17.084  -0.698  0.00  0.00    +0.004 A 
ATOM     28  C   UNL     1      -1.201  16.608  -1.869  0.00  0.00    +0.047 A 
ATOM     29  C   UNL     1      -1.281  15.237  -2.092  0.00  0.00    +0.139 A 
ATOM     30  C   UNL     1      -0.797  14.351  -1.112  0.00  0.00    +0.018 A 
ATOM     31  C   UNL     1      -0.241  14.860   0.073  0.00  0.00    +0.011 A 
ATOM     32  C   UNL     1      -0.870  12.952  -1.321  0.00  0.00    +0.030 A 
ATOM     33  C   UNL     1      -1.425  12.483  -2.504  0.00  0.00    +0.103 A 
ATOM     34  C   UNL     1      -1.909  13.457  -3.492  0.00  0.00    +0.348 A 
ATOM     35  O   UNL     1      -2.396  13.071  -4.538  0.00  0.00    -0.244 OA
ATOM     36  O   UNL     1      -1.820  14.774  -3.240  0.00  0.00    -0.422 OA
ENDBRANCH  24  33
ENDBRANCH  23  24
ENDBRANCH  22  23
ENDBRANCH   1  22
TORSDOF 9
