REMARK  Name = ZINC39685875
REMARK  12 active torsions:
REMARK  status: ('A' for Active; 'I' for Inactive)
REMARK    1  A    between atoms: C_1  and  C_2
REMARK    2  A    between atoms: C_2  and  C_3
REMARK    3  A    between atoms: C_2  and  C_4
REMARK    4  A    between atoms: C_4  and  C_6
REMARK    5  A    between atoms: C_4  and  N_13
REMARK    6  A    between atoms: N_8  and  C_9
REMARK    7  A    between atoms: C_9  and  C_10
REMARK    8  A    between atoms: C_9  and  C_11
REMARK    9  A    between atoms: C_9  and  C_12
REMARK   10  A    between atoms: C_14  and  C_16
REMARK   11  A    between atoms: C_27  and  C_29
REMARK   12  A    between atoms: C_32  and  C_34
REMARK                            x       y       z     vdW  Elec       q    Type
REMARK                         _______ _______ _______ _____ _____    ______ ____
ROOT
ATOM      1  C   UNL     1      -1.296  -0.763  -3.804  0.00  0.00    +0.100 C 
ATOM      2  C   UNL     1      -0.492   0.505  -4.167  0.00  0.00    +0.121 C 
ATOM      3  N   UNL     1       0.826  -0.004  -4.615  0.00  0.00    -0.294 N 
ATOM      4  C   UNL     1       0.505  -1.221  -5.397  0.00  0.00    +0.115 C 
ATOM      5  C   UNL     1      -0.641  -1.893  -4.616  0.00  0.00    -0.004 C 
ATOM      6  C   UNL     1      -1.652  -2.504  -5.582  0.00  0.00    -0.010 C 
ATOM      7  C   UNL     1      -0.994  -3.663  -6.336  0.00  0.00    -0.082 C 
ATOM      8  N   UNL     1      -0.531  -4.673  -5.377  0.00  0.00    +0.379 N 
ATOM      9  C   UNL     1       0.509  -4.103  -4.512  0.00  0.00    -0.082 C 
ATOM     10  C   UNL     1      -0.086  -2.963  -3.680  0.00  0.00    -0.010 C 
ATOM     11  C   UNL     1       2.042   0.522  -4.367  0.00  0.00    +0.282 C 
ATOM     12  O   UNL     1       3.040  -0.017  -4.808  0.00  0.00    -0.267 OA
ATOM     13  H   UNL     1      -1.308  -4.979  -4.810  0.00  0.00    -0.086 HD
ATOM     14  H   UNL     1      -0.153  -5.463  -5.879  0.00  0.00    -0.086 HD
ENDROOT
BRANCH  11  15
ATOM     15  C   UNL     1       2.162   1.743  -3.565  0.00  0.00    +0.190 A 
ATOM     16  C   UNL     1       3.337   2.386  -3.243  0.00  0.00    +0.055 A 
ATOM     17  C   UNL     1       2.989   3.499  -2.471  0.00  0.00    +0.051 A 
ATOM     18  C   UNL     1       1.629   3.496  -2.352  0.00  0.00    +0.139 A 
ATOM     19  O   UNL     1       1.141   2.436  -3.019  0.00  0.00    -0.450 OA
BRANCH  18  20
ATOM     20  C   UNL     1       0.827   4.494  -1.617  0.00  0.00    +0.052 A 
ATOM     21  C   UNL     1       1.167   4.840  -0.308  0.00  0.00    +0.014 A 
ATOM     22  C   UNL     1       0.413   5.773   0.373  0.00  0.00    +0.001 A 
ATOM     23  C   UNL     1      -0.679   6.367  -0.237  0.00  0.00    +0.003 A 
ATOM     24  C   UNL     1      -1.023   6.029  -1.533  0.00  0.00    +0.039 A 
ATOM     25  C   UNL     1      -0.274   5.101  -2.231  0.00  0.00    +0.134 A 
ATOM     26  F   UNL     1      -0.607   4.776  -3.499  0.00  0.00    -0.205 F 
ENDBRANCH  18  20
ENDBRANCH  11  15
BRANCH   1  28
ATOM     27  N   UNL     1      -2.194  -1.679  -1.688  0.00  0.00    -0.303 N 
ATOM     28  C   UNL     1      -1.189  -1.048  -2.328  0.00  0.00    +0.219 C 
ATOM     29  O   UNL     1      -0.199  -0.709  -1.715  0.00  0.00    -0.275 OA
ATOM     30  H   UNL     1      -2.986  -1.950  -2.178  0.00  0.00    +0.149 HD
BRANCH  27  31
ATOM     31  C   UNL     1      -2.089  -1.955  -0.253  0.00  0.00    +0.161 C 
BRANCH  31  32
ATOM     32  C   UNL     1      -2.959  -3.136   0.096  0.00  0.00    +0.234 C 
ATOM     33  O   UNL     1      -3.839  -3.486  -0.662  0.00  0.00    -0.274 OA
ATOM     34  N   UNL     1      -2.759  -3.802   1.250  0.00  0.00    -0.309 N 
ATOM     35  H   UNL     1      -2.014  -3.565   1.824  0.00  0.00    +0.149 HD
BRANCH  34  36
ATOM     36  C   UNL     1      -3.667  -4.885   1.637  0.00  0.00    +0.026 C 
ATOM     37  C   UNL     1      -3.640  -5.980   0.569  0.00  0.00    +0.031 C 
ATOM     38  C   UNL     1      -3.220  -5.470   2.978  0.00  0.00    +0.031 C 
ATOM     39  C   UNL     1      -5.089  -4.335   1.769  0.00  0.00    +0.031 C 
ENDBRANCH  34  36
ENDBRANCH  31  32
BRANCH  31  41
ATOM     40  C   UNL     1      -1.625   0.450   0.237  0.00  0.00    +0.009 C 
ATOM     41  C   UNL     1      -2.551  -0.730   0.537  0.00  0.00    +0.012 C 
ATOM     42  C   UNL     1      -3.982  -0.371   0.131  0.00  0.00    +0.009 C 
ENDBRANCH  31  41
ENDBRANCH  27  31
ENDBRANCH   1  28
TORSDOF 7
