REMARK  Name = ZINC52662378
REMARK  12 active torsions:
REMARK  status: ('A' for Active; 'I' for Inactive)
REMARK    1  A    between atoms: C_1  and  C_2
REMARK    2  A    between atoms: C_2  and  C_4
REMARK    3  A    between atoms: C_2  and  N_14
REMARK    4  A    between atoms: N_9  and  C_10
REMARK    5  A    between atoms: C_10  and  C_11
REMARK    6  A    between atoms: C_10  and  C_12
REMARK    7  A    between atoms: C_10  and  C_13
REMARK    8  A    between atoms: N_14  and  C_15
REMARK    9  A    between atoms: C_15  and  C_17
REMARK   10  A    between atoms: C_15  and  C_23
REMARK   11  A    between atoms: C_26  and  O_29
REMARK   12  A    between atoms: O_29  and  C_30
REMARK                            x       y       z     vdW  Elec       q    Type
REMARK                         _______ _______ _______ _____ _____    ______ ____
ROOT
ATOM      1  N   UNL     1       0.713  -0.491   1.192  0.00  0.00    -0.295 NA
ATOM      2  H   UNL     1       0.492   0.072   2.000  0.00  0.00    +0.124 HD
ENDROOT
BRANCH   1   4
ATOM      3  C   UNL     1      -0.019   1.526   0.010  0.00  0.00    +0.034 C 
ATOM      4  C   UNL     1       0.002  -0.004   0.002  0.00  0.00    +0.138 C 
BRANCH   4   5
ATOM      5  C   UNL     1      -1.412  -0.526   0.013  0.00  0.00    +0.237 C 
ATOM      6  O   UNL     1      -1.790  -1.233   0.922  0.00  0.00    -0.274 OA
ATOM      7  N   UNL     1      -2.256  -0.206  -0.988  0.00  0.00    -0.239 N 
ATOM      8  C   UNL     1      -3.520  -0.672  -0.979  0.00  0.00    +0.306 C 
ATOM      9  O   UNL     1      -3.899  -1.381  -0.067  0.00  0.00    -0.252 OA
ATOM     10  N   UNL     1      -4.364  -0.353  -1.980  0.00  0.00    -0.294 N 
ATOM     11  H   UNL     1      -1.953   0.360  -1.716  0.00  0.00    +0.159 HD
ATOM     12  H   UNL     1      -4.061   0.213  -2.707  0.00  0.00    +0.151 HD
BRANCH  10  13
ATOM     13  C   UNL     1      -5.738  -0.860  -1.970  0.00  0.00    +0.028 C 
ATOM     14  C   UNL     1      -6.454  -0.366  -0.711  0.00  0.00    +0.031 C 
ATOM     15  C   UNL     1      -6.478  -0.353  -3.209  0.00  0.00    +0.031 C 
ATOM     16  C   UNL     1      -5.718  -2.390  -1.978  0.00  0.00    +0.031 C 
ENDBRANCH  10  13
ENDBRANCH   4   5
ENDBRANCH   1   4
BRANCH   1  17
ATOM     17  C   UNL     1       2.162  -0.532   0.959  0.00  0.00    +0.115 C 
BRANCH  17  18
ATOM     18  C   UNL     1       2.526  -1.833   0.290  0.00  0.00    -0.026 A 
ATOM     19  C   UNL     1       1.909  -3.007   0.678  0.00  0.00    +0.005 A 
ATOM     20  C   UNL     1       2.243  -4.199   0.065  0.00  0.00    +0.000 A 
ATOM     21  C   UNL     1       3.194  -4.218  -0.939  0.00  0.00    +0.000 A 
ATOM     22  C   UNL     1       3.811  -3.044  -1.328  0.00  0.00    +0.000 A 
ATOM     23  C   UNL     1       3.474  -1.851  -0.717  0.00  0.00    +0.005 A 
ENDBRANCH  17  18
BRANCH  17  24
ATOM     24  C   UNL     1       2.886  -0.426   2.277  0.00  0.00    -0.026 A 
ATOM     25  C   UNL     1       2.405  -1.098   3.385  0.00  0.00    +0.009 A 
ATOM     26  C   UNL     1       3.066  -1.002   4.594  0.00  0.00    +0.046 A 
ATOM     27  C   UNL     1       4.214  -0.230   4.696  0.00  0.00    +0.120 A 
ATOM     28  C   UNL     1       4.696   0.443   3.582  0.00  0.00    +0.046 A 
ATOM     29  C   UNL     1       4.034   0.339   2.374  0.00  0.00    +0.009 A 
BRANCH  27  30
ATOM     30  O   UNL     1       4.866  -0.134   5.884  0.00  0.00    -0.495 OA
ATOM     31  C   UNL     1       6.042   0.678   5.915  0.00  0.00    +0.277 C 
ENDBRANCH  27  30
ENDBRANCH  17  24
ENDBRANCH   1  17
TORSDOF 7
