REMARK  Name = ZINC13255284
REMARK  10 active torsions:
REMARK  status: ('A' for Active; 'I' for Inactive)
REMARK    1  A    between atoms: C_1  and  C_2
REMARK    2  A    between atoms: C_2  and  N_3
REMARK    3  A    between atoms: N_3  and  C_4
REMARK    4  A    between atoms: N_3  and  S_6
REMARK    5  A    between atoms: C_4  and  C_5
REMARK    6  A    between atoms: S_6  and  C_9
REMARK    7  A    between atoms: C_12  and  N_26
REMARK    8  A    between atoms: C_13  and  N_15
REMARK    9  A    between atoms: C_16  and  C_18
REMARK   10  A    between atoms: C_21  and  C_24
REMARK                            x       y       z     vdW  Elec       q    Type
REMARK                         _______ _______ _______ _____ _____    ______ ____
ROOT
ATOM      1  C   UNL     1      -2.607   4.516   4.713  0.00  0.00    +0.107 A 
ATOM      2  C   UNL     1      -3.326   3.703   3.856  0.00  0.00    +0.030 A 
ATOM      3  C   UNL     1      -2.737   3.212   2.705  0.00  0.00    +0.027 A 
ATOM      4  C   UNL     1      -1.421   3.534   2.408  0.00  0.00    +0.051 A 
ATOM      5  C   UNL     1      -0.694   4.349   3.275  0.00  0.00    +0.057 A 
ATOM      6  C   UNL     1      -1.295   4.843   4.424  0.00  0.00    +0.053 A 
ENDROOT
BRANCH   4   7
ATOM      7  N   UNL     1      -0.823   3.038   1.245  0.00  0.00    -0.324 N 
ATOM      8  C   UNL     1      -0.732   1.571   1.284  0.00  0.00    +0.133 C 
ATOM      9  C   UNL     1      -0.021   1.076   0.022  0.00  0.00    +0.178 C 
ATOM     10  O   UNL     1      -0.723   1.544  -1.132  0.00  0.00    -0.377 OA
ATOM     11  C   UNL     1      -0.830   2.969  -1.202  0.00  0.00    +0.178 C 
ATOM     12  C   UNL     1      -1.550   3.484   0.047  0.00  0.00    +0.133 C 
ENDBRANCH   4   7
BRANCH   5  13
ATOM     13  N   UNL     1       0.637   4.674   2.984  0.00  0.00    -0.280 N 
ATOM     14  C   UNL     1       1.122   5.888   3.311  0.00  0.00    +0.248 C 
ATOM     15  O   UNL     1       0.430   6.672   3.931  0.00  0.00    -0.270 OA
ATOM     16  H   UNL     1       1.210   4.025   2.547  0.00  0.00    +0.155 HD
BRANCH  14  17
ATOM     17  C   UNL     1       2.497   6.267   2.916  0.00  0.00    +0.037 A 
ATOM     18  C   UNL     1       3.293   5.365   2.209  0.00  0.00    +0.014 A 
ATOM     19  C   UNL     1       4.572   5.720   1.836  0.00  0.00    +0.016 A 
ATOM     20  C   UNL     1       5.074   6.978   2.174  0.00  0.00    +0.063 A 
ATOM     21  C   UNL     1       4.279   7.878   2.886  0.00  0.00    +0.016 A 
ATOM     22  C   UNL     1       2.999   7.525   3.255  0.00  0.00    +0.014 A 
BRANCH  20  23
ATOM     23  C   UNL     1       6.447   7.357   1.778  0.00  0.00    +0.387 C 
ATOM     24  O   UNL     1       6.884   8.451   2.073  0.00  0.00    -0.241 OA
ATOM     25  O   UNL     1       7.214   6.488   1.091  0.00  0.00    -0.241 OA
ENDBRANCH  20  23
ENDBRANCH  14  17
ENDBRANCH   5  13
BRANCH   1  26
ATOM     26  S   UNL     1      -3.365   5.138   6.176  0.00  0.00    +0.061 S 
ATOM     27  O   UNL     1      -2.656   6.317   6.531  0.00  0.00    -0.153 OA
ATOM     28  O   UNL     1      -4.766   5.134   5.941  0.00  0.00    -0.153 OA
BRANCH  26  29
ATOM     29  N   UNL     1      -3.084   4.036   7.380  0.00  0.00    -0.177 NA
BRANCH  29  31
ATOM     30  C   UNL     1      -2.224   4.917   9.494  0.00  0.00    +0.022 C 
ATOM     31  C   UNL     1      -1.884   4.152   8.213  0.00  0.00    +0.106 C 
ENDBRANCH  29  31
BRANCH  29  32
ATOM     32  C   UNL     1      -4.034   2.946   7.611  0.00  0.00    +0.106 C 
ATOM     33  C   UNL     1      -3.571   1.697   6.860  0.00  0.00    +0.022 C 
ENDBRANCH  29  32
ENDBRANCH  26  29
ENDBRANCH   1  26
TORSDOF 8
