REMARK  Name = ZINC36016905
REMARK  12 active torsions:
REMARK  status: ('A' for Active; 'I' for Inactive)
REMARK    1  A    between atoms: C_1  and  C_2
REMARK    2  A    between atoms: C_2  and  N_3
REMARK    3  A    between atoms: N_9  and  C_14
REMARK    4  A    between atoms: C_11  and  C_13
REMARK    5  A    between atoms: C_14  and  C_15
REMARK    6  A    between atoms: C_16  and  C_31
REMARK    7  A    between atoms: C_17  and  C_26
REMARK    8  A    between atoms: N_22  and  C_23
REMARK    9  A    between atoms: C_23  and  C_24
REMARK   10  A    between atoms: C_31  and  O_33
REMARK   11  A    between atoms: O_33  and  C_34
REMARK   12  A    between atoms: C_34  and  C_35
REMARK                            x       y       z     vdW  Elec       q    Type
REMARK                         _______ _______ _______ _____ _____    ______ ____
ROOT
ATOM      1  C   UNL     1       5.453  -2.407   5.965  0.00  0.00    +0.041 C 
ATOM      2  C   UNL     1       5.993  -2.946   7.080  0.00  0.00    +0.080 C 
ATOM      3  C   UNL     1       6.391  -2.004   8.197  0.00  0.00    +0.144 C 
ATOM      4  N   UNL     1       6.156  -0.567   7.974  0.00  0.00    -0.288 N 
ATOM      5  C   UNL     1       5.607  -0.181   6.805  0.00  0.00    +0.307 C 
ATOM      6  O   UNL     1       5.409   1.002   6.611  0.00  0.00    -0.252 OA
ATOM      7  N   UNL     1       5.279  -1.058   5.848  0.00  0.00    -0.254 N 
ATOM      8  H   UNL     1       6.390   0.086   8.652  0.00  0.00    +0.151 HD
ENDROOT
BRANCH   3   9
ATOM      9  C   UNL     1       5.639  -2.409   9.438  0.00  0.00    -0.015 A 
ATOM     10  C   UNL     1       6.258  -3.162  10.419  0.00  0.00    +0.013 A 
ATOM     11  C   UNL     1       5.553  -3.510  11.523  0.00  0.00    +0.045 A 
ATOM     12  S   UNL     1       3.963  -2.767  11.196  0.00  0.00    -0.105 S 
ATOM     13  C   UNL     1       4.348  -2.038   9.612  0.00  0.00    +0.051 A 
ENDBRANCH   3   9
BRANCH   2  14
ATOM     14  C   UNL     1       6.179  -4.343   7.200  0.00  0.00    +0.339 C 
ATOM     15  O   UNL     1       5.941  -5.072   6.255  0.00  0.00    -0.245 OA
BRANCH  14  16
ATOM     16  O   UNL     1       6.619  -4.867   8.363  0.00  0.00    -0.462 OA
BRANCH  16  17
ATOM     17  C   UNL     1       6.784  -6.286   8.414  0.00  0.00    +0.229 C 
ATOM     18  C   UNL     1       7.287  -6.692   9.801  0.00  0.00    +0.048 C 
ENDBRANCH  16  17
ENDBRANCH  14  16
ENDBRANCH   2  14
BRANCH   1  19
ATOM     19  C   UNL     1       5.042  -3.309   4.830  0.00  0.00    +0.136 C 
BRANCH  19  26
ATOM     20  N   UNL     1       9.706  -5.928   1.817  0.00  0.00    -0.299 N 
ATOM     21  C   UNL     1       8.634  -5.307   1.287  0.00  0.00    +0.303 C 
ATOM     22  O   UNL     1       8.277  -5.569   0.155  0.00  0.00    -0.253 OA
ATOM     23  N   UNL     1       7.957  -4.394   2.012  0.00  0.00    -0.280 N 
ATOM     24  C   UNL     1       8.434  -3.982   3.342  0.00  0.00    +0.125 C 
ATOM     25  C   UNL     1       7.274  -4.108   4.335  0.00  0.00    +0.104 C 
ATOM     26  N   UNL     1       6.117  -3.357   3.829  0.00  0.00    -0.294 NA
ATOM     27  C   UNL     1       5.630  -3.917   2.561  0.00  0.00    +0.107 C 
ATOM     28  C   UNL     1       6.727  -3.779   1.493  0.00  0.00    +0.088 C 
ATOM     29  C   UNL     1       6.293  -4.497   0.213  0.00  0.00    +0.029 C 
ATOM     30  H   UNL     1      10.034  -5.668   2.692  0.00  0.00    +0.150 HD
BRANCH  20  32
ATOM     31  C   UNL     1      11.552  -7.531   1.892  0.00  0.00    +0.024 C 
ATOM     32  C   UNL     1      10.375  -6.998   1.073  0.00  0.00    +0.102 C 
ENDBRANCH  20  32
ENDBRANCH  19  26
ENDBRANCH   1  19
BRANCH   7  33
ATOM     33  C   UNL     1       4.693  -0.542   4.609  0.00  0.00    +0.141 C 
BRANCH  33  34
ATOM     34  C   UNL     1       3.204  -0.383   4.784  0.00  0.00    -0.015 C 
ATOM     35  C   UNL     1       2.644   0.786   4.600  0.00  0.00    +0.005 C 
ENDBRANCH  33  34
ENDBRANCH   7  33
TORSDOF 9
