REMARK  Name = ZINC09297836
REMARK  9 active torsions:
REMARK  status: ('A' for Active; 'I' for Inactive)
REMARK    1  A    between atoms: C_1  and  C_2
REMARK    2  A    between atoms: C_2  and  O_3
REMARK    3  A    between atoms: O_3  and  C_4
REMARK    4  A    between atoms: C_4  and  C_6
REMARK    5  A    between atoms: C_7  and  C_28
REMARK    6  A    between atoms: C_8  and  C_26
REMARK    7  A    between atoms: C_9  and  N_11
REMARK    8  A    between atoms: C_12  and  C_14
REMARK    9  A    between atoms: C_18  and  N_23
REMARK                            x       y       z     vdW  Elec       q    Type
REMARK                         _______ _______ _______ _____ _____    ______ ____
ROOT
ATOM      1  N   UNL     1      -2.395  -0.459   0.023  0.00  0.00    -0.274 N 
ATOM      2  C   UNL     1      -1.134  -0.935   0.008  0.00  0.00    +0.255 C 
ATOM      3  O   UNL     1      -0.937  -2.136   0.000  0.00  0.00    -0.269 OA
ATOM      4  H   UNL     1      -2.553   0.498   0.029  0.00  0.00    +0.156 HD
ENDROOT
BRANCH   2   5
ATOM      5  C   UNL     1       0.002  -0.004   0.002  0.00  0.00    +0.075 A 
ATOM      6  C   UNL     1       1.332  -0.290  -0.012  0.00  0.00    +0.029 A 
ATOM      7  C   UNL     1       2.274   0.754  -0.016  0.00  0.00    -0.008 A 
ATOM      8  C   UNL     1       3.689   0.660  -0.030  0.00  0.00    +0.041 A 
ATOM      9  C   UNL     1       4.460   1.778  -0.032  0.00  0.00    +0.127 A 
ATOM     10  C   UNL     1       3.899   3.050  -0.020  0.00  0.00    +0.034 A 
ATOM     11  C   UNL     1       2.526   3.187  -0.005  0.00  0.00    +0.018 A 
ATOM     12  C   UNL     1       1.730   2.061  -0.003  0.00  0.00    +0.020 A 
ATOM     13  S   UNL     1      -0.022   1.780   0.012  0.00  0.00    -0.084 S 
BRANCH   9  14
ATOM     14  N   UNL     1       5.933   1.639  -0.047  0.00  0.00    +0.056 N 
ATOM     15  O   UNL     1       6.639   2.632  -0.049  0.00  0.00    -0.126 OA
ATOM     16  O   UNL     1       6.441   0.532  -0.058  0.00  0.00    -0.126 OA
ENDBRANCH   9  14
ENDBRANCH   2   5
BRANCH   1  20
ATOM     17  C   UNL     1      -5.193  -3.373   0.035  0.00  0.00    +0.102 A 
ATOM     18  C   UNL     1      -5.722  -2.098   0.047  0.00  0.00    -0.010 A 
ATOM     19  C   UNL     1      -4.830  -1.038   0.043  0.00  0.00    +0.084 A 
ATOM     20  C   UNL     1      -3.463  -1.334   0.029  0.00  0.00    +0.091 A 
ATOM     21  S   UNL     1      -3.437  -3.067   0.012  0.00  0.00    -0.065 S 
ATOM     22  C   UNL     1      -7.211  -1.867   0.063  0.00  0.00    +0.046 C 
BRANCH  17  23
ATOM     23  C   UNL     1      -5.898  -4.654   0.035  0.00  0.00    +0.346 C 
ATOM     24  O   UNL     1      -7.114  -4.679   0.046  0.00  0.00    -0.244 OA
BRANCH  23  25
ATOM     25  O   UNL     1      -5.199  -5.808   0.023  0.00  0.00    -0.461 OA
BRANCH  25  27
ATOM     26  C   UNL     1      -4.995  -8.216   0.008  0.00  0.00    +0.048 C 
ATOM     27  C   UNL     1      -5.952  -7.022   0.023  0.00  0.00    +0.229 C 
ENDBRANCH  25  27
ENDBRANCH  23  25
ENDBRANCH  17  23
BRANCH  19  28
ATOM     28  C   UNL     1      -5.292   0.317   0.055  0.00  0.00    +0.102 C 
ATOM     29  N   UNL     1      -5.659   1.392   0.064  0.00  0.00    -0.191 NA
ENDBRANCH  19  28
ENDBRANCH   1  20
TORSDOF 7
