REMARK  Name = ZINC11455967
REMARK  9 active torsions:
REMARK  status: ('A' for Active; 'I' for Inactive)
REMARK    1  A    between atoms: C_1  and  C_2
REMARK    2  A    between atoms: C_2  and  O_3
REMARK    3  A    between atoms: O_3  and  C_4
REMARK    4  A    between atoms: C_4  and  C_6
REMARK    5  A    between atoms: C_7  and  C_21
REMARK    6  A    between atoms: C_12  and  C_14
REMARK    7  A    between atoms: C_21  and  S_22
REMARK    8  A    between atoms: S_22  and  C_23
REMARK    9  A    between atoms: C_26  and  C_28
REMARK                            x       y       z     vdW  Elec       q    Type
REMARK                         _______ _______ _______ _____ _____    ______ ____
ROOT
ATOM      1  C   UNL     1       1.331  -2.340  -2.530  0.00  0.00    +0.079 C 
ATOM      2  C   UNL     1       1.628  -3.654  -2.615  0.00  0.00    +0.034 C 
ATOM      3  N   UNL     1       2.351  -4.147  -3.663  0.00  0.00    -0.272 N 
ATOM      4  C   UNL     1       2.815  -3.390  -4.666  0.00  0.00    +0.304 C 
ATOM      5  O   UNL     1       3.451  -3.920  -5.556  0.00  0.00    -0.252 OA
ATOM      6  N   UNL     1       2.599  -2.061  -4.720  0.00  0.00    -0.288 N 
ATOM      7  C   UNL     1       1.823  -1.432  -3.639  0.00  0.00    +0.144 C 
ATOM      8  H   UNL     1       2.541  -5.098  -3.682  0.00  0.00    +0.156 HD
ATOM      9  H   UNL     1       2.945  -1.532  -5.456  0.00  0.00    +0.151 HD
ENDROOT
BRANCH   7  10
ATOM     10  C   UNL     1       0.623  -0.757  -4.254  0.00  0.00    -0.022 A 
ATOM     11  C   UNL     1      -0.158  -1.437  -5.170  0.00  0.00    +0.007 A 
ATOM     12  C   UNL     1      -1.258  -0.819  -5.734  0.00  0.00    +0.020 A 
ATOM     13  C   UNL     1      -1.577   0.480  -5.382  0.00  0.00    +0.041 A 
ATOM     14  C   UNL     1      -0.795   1.160  -4.465  0.00  0.00    +0.020 A 
ATOM     15  C   UNL     1       0.301   0.539  -3.897  0.00  0.00    +0.007 A 
ATOM     16 CL   UNL     1      -2.958   1.257  -6.090  0.00  0.00    -0.084 Cl
ENDBRANCH   7  10
BRANCH   1  17
ATOM     17  C   UNL     1       0.580  -1.828  -1.445  0.00  0.00    +0.339 C 
ATOM     18  O   UNL     1       1.144  -1.251  -0.534  0.00  0.00    -0.245 OA
BRANCH  17  19
ATOM     19  O   UNL     1      -0.760  -1.980  -1.421  0.00  0.00    -0.462 OA
BRANCH  19  21
ATOM     20  C   UNL     1      -2.953  -1.707  -0.442  0.00  0.00    +0.048 C 
ATOM     21  C   UNL     1      -1.454  -1.439  -0.295  0.00  0.00    +0.229 C 
ENDBRANCH  19  21
ENDBRANCH  17  19
ENDBRANCH   1  17
BRANCH   2  22
ATOM     22  C   UNL     1       1.153  -4.593  -1.536  0.00  0.00    +0.130 C 
BRANCH  22  23
ATOM     23  S   UNL     1      -0.251  -5.562  -2.152  0.00  0.00    -0.060 S 
BRANCH  23  24
ATOM     24  C   UNL     1      -0.684  -6.596  -0.793  0.00  0.00    +0.278 A 
ATOM     25  N   UNL     1      -0.102  -6.622   0.382  0.00  0.00    -0.101 NA
ATOM     26  N   UNL     1      -0.681  -7.498   1.125  0.00  0.00    -0.111 NA
ATOM     27  C   UNL     1      -1.647  -8.061   0.462  0.00  0.00    +0.221 A 
ATOM     28  O   UNL     1      -1.679  -7.503  -0.764  0.00  0.00    -0.415 OA
BRANCH  27  29
ATOM     29  C   UNL     1      -2.568  -9.139   0.973  0.00  0.00    +0.077 C 
ATOM     30  C   UNL     1      -3.331  -8.621   2.194  0.00  0.00    +0.013 C 
ATOM     31  C   UNL     1      -4.266  -9.715   2.714  0.00  0.00    +0.001 C 
ATOM     32  C   UNL     1      -3.444 -10.943   3.110  0.00  0.00    +0.000 C 
ATOM     33  C   UNL     1      -2.681 -11.461   1.889  0.00  0.00    +0.001 C 
ATOM     34  C   UNL     1      -1.746 -10.367   1.369  0.00  0.00    +0.013 C 
ENDBRANCH  27  29
ENDBRANCH  23  24
ENDBRANCH  22  23
ENDBRANCH   2  22
TORSDOF 8
