REMARK  Name = ZINC21690117
REMARK  7 active torsions:
REMARK  status: ('A' for Active; 'I' for Inactive)
REMARK    1  A    between atoms: C_1  and  C_2
REMARK    2  A    between atoms: C_2  and  O_3
REMARK    3  A    between atoms: O_3  and  C_4
REMARK    4  A    between atoms: C_12  and  C_14
REMARK    5  A    between atoms: C_14  and  C_15
REMARK    6  A    between atoms: C_15  and  C_16
REMARK    7  A    between atoms: C_22  and  C_24
REMARK                            x       y       z     vdW  Elec       q    Type
REMARK                         _______ _______ _______ _____ _____    ______ ____
ROOT
ATOM      1  C   UNL     1       5.149  -6.990  -6.574  0.00  0.00    +0.051 A 
ATOM      2  C   UNL     1       4.706  -7.600  -7.700  0.00  0.00    +0.071 A 
ATOM      3  S   UNL     1       5.102  -9.302  -7.334  0.00  0.00    -0.060 S 
ATOM      4  C   UNL     1       5.779  -9.062  -5.812  0.00  0.00    +0.165 A 
ATOM      5  N   UNL     1       5.688  -7.759  -5.646  0.00  0.00    -0.230 NA
ATOM      6  N   UNL     1       6.307 -10.008  -4.943  0.00  0.00    -0.261 N 
ATOM      7  C   UNL     1       6.318 -11.310  -5.290  0.00  0.00    +0.251 C 
ATOM      8  O   UNL     1       5.865 -11.657  -6.364  0.00  0.00    -0.270 OA
ATOM      9  H   UNL     1       6.669  -9.731  -4.086  0.00  0.00    +0.157 HD
ENDROOT
BRANCH   7  10
ATOM     10  C   UNL     1       6.880 -12.314  -4.368  0.00  0.00    +0.053 A 
ATOM     11  C   UNL     1       7.404 -11.917  -3.114  0.00  0.00    +0.020 A 
ATOM     12  C   UNL     1       7.915 -12.864  -2.283  0.00  0.00    +0.071 A 
ATOM     13  C   UNL     1       7.912 -14.213  -2.685  0.00  0.00    +0.249 A 
ATOM     14  O   UNL     1       8.370 -15.066  -1.943  0.00  0.00    -0.268 OA
ATOM     15  N   UNL     1       7.409 -14.568  -3.881  0.00  0.00    -0.328 N 
ATOM     16  H   UNL     1       7.415 -15.502  -4.143  0.00  0.00    +0.168 HD
ATOM     17  C   UNL     1       6.894 -13.649  -4.718  0.00  0.00    +0.099 A 
ENDBRANCH   7  10
BRANCH   1  18
ATOM     18  C   UNL     1       5.037  -5.498  -6.391  0.00  0.00    +0.065 C 
BRANCH  18  19
ATOM     19  C   UNL     1       4.295  -5.199  -5.086  0.00  0.00    +0.102 C 
BRANCH  19  28
ATOM     20  C   UNL     1       0.776  -1.798  -1.335  0.00  0.00    +0.403 C 
ATOM     21  O   UNL     1       0.312  -2.549  -0.500  0.00  0.00    -0.226 OA
ATOM     22  N   UNL     1       1.395  -2.298  -2.422  0.00  0.00    -0.264 N 
ATOM     23  C   UNL     1       1.966  -1.402  -3.437  0.00  0.00    +0.130 C 
ATOM     24  C   UNL     1       3.447  -1.754  -3.624  0.00  0.00    +0.127 C 
ATOM     25  N   UNL     1       3.564  -3.206  -3.816  0.00  0.00    -0.298 N 
ATOM     26  C   UNL     1       2.993  -4.103  -2.801  0.00  0.00    +0.127 C 
ATOM     27  C   UNL     1       1.517  -3.751  -2.611  0.00  0.00    +0.130 C 
ATOM     28  C   UNL     1       4.183  -3.707  -4.903  0.00  0.00    +0.216 C 
ATOM     29  O   UNL     1       4.650  -2.957  -5.734  0.00  0.00    -0.276 OA
BRANCH  20  30
ATOM     30  O   UNL     1       0.671  -0.465  -1.174  0.00  0.00    -0.451 OA
BRANCH  30  32
ATOM     31  C   UNL     1      -0.019   1.526   0.010  0.00  0.00    +0.048 C 
ATOM     32  C   UNL     1       0.002  -0.004   0.002  0.00  0.00    +0.230 C 
ENDBRANCH  30  32
ENDBRANCH  20  30
ENDBRANCH  19  28
ENDBRANCH  18  19
ENDBRANCH   1  18
TORSDOF 6
