REMARK  Name = ZINC35057286
REMARK  13 active torsions:
REMARK  status: ('A' for Active; 'I' for Inactive)
REMARK    1  A    between atoms: C_1  and  C_2
REMARK    2  A    between atoms: C_2  and  C_4
REMARK    3  A    between atoms: C_2  and  O_7
REMARK    4  A    between atoms: O_7  and  C_8
REMARK    5  A    between atoms: C_10  and  N_40
REMARK    6  A    between atoms: C_12  and  O_29
REMARK    7  A    between atoms: C_20  and  C_24
REMARK    8  A    between atoms: O_29  and  C_30
REMARK    9  A    between atoms: C_33  and  C_36
REMARK   10  A    between atoms: C_36  and  C_37
REMARK   11  A    between atoms: C_36  and  C_38
REMARK   12  A    between atoms: C_36  and  C_39
REMARK   13  A    between atoms: C_41  and  C_43
REMARK                            x       y       z     vdW  Elec       q    Type
REMARK                         _______ _______ _______ _____ _____    ______ ____
ROOT
ATOM      1  C   UNL     1       2.223  -0.737   0.726  0.00  0.00    +0.177 C 
ATOM      2  C   UNL     1       2.979   0.496   1.235  0.00  0.00    +0.173 C 
ATOM      3  C   UNL     1       4.483   0.294   1.041  0.00  0.00    +0.331 C 
ATOM      4  O   UNL     1       4.905  -0.906   1.697  0.00  0.00    -0.332 OA
ATOM      5  C   UNL     1       4.264  -2.078   1.198  0.00  0.00    +0.179 C 
ATOM      6  C   UNL     1       2.755  -1.971   1.453  0.00  0.00    +0.183 C 
ATOM      7  O   UNL     1       2.124  -3.161   0.979  0.00  0.00    -0.336 OA
ATOM      8  C   UNL     1       2.616  -4.347   1.613  0.00  0.00    +0.319 C 
ATOM      9  O   UNL     1       4.026  -4.461   1.415  0.00  0.00    -0.342 OA
ATOM     10  C   UNL     1       4.783  -3.334   1.899  0.00  0.00    +0.197 C 
ENDROOT
BRANCH   8  11
ATOM     11  C   UNL     1       2.325  -4.281   3.090  0.00  0.00    +0.161 A 
ATOM     12  C   UNL     1       2.649  -5.219   3.998  0.00  0.00    +0.050 A 
ATOM     13  C   UNL     1       2.191  -4.752   5.251  0.00  0.00    +0.041 A 
ATOM     14  C   UNL     1       1.614  -3.556   5.034  0.00  0.00    +0.195 A 
ATOM     15  O   UNL     1       1.704  -3.273   3.724  0.00  0.00    -0.463 OA
ENDBRANCH   8  11
BRANCH   2  16
ATOM     16  N   UNL     1       2.547   1.678   0.485  0.00  0.00    -0.304 N 
ATOM     17  C   UNL     1       2.624   2.900   1.050  0.00  0.00    +0.210 C 
ATOM     18  O   UNL     1       3.051   3.020   2.178  0.00  0.00    -0.276 OA
ATOM     19  C   UNL     1       2.178   4.116   0.279  0.00  0.00    +0.109 C 
ATOM     20  H   UNL     1       2.204   1.582  -0.417  0.00  0.00    +0.149 HD
ENDBRANCH   2  16
BRANCH   1  21
ATOM     21  O   UNL     1       0.827  -0.587   0.991  0.00  0.00    -0.358 OA
BRANCH  21  23
ATOM     22  C   UNL     1      -0.302  -0.153  -1.101  0.00  0.00    +0.050 C 
ATOM     23  C   UNL     1      -0.020  -1.175   0.002  0.00  0.00    +0.228 C 
BRANCH  23  24
ATOM     24  C   UNL     1      -1.318  -1.598   0.638  0.00  0.00    +0.384 C 
ATOM     25  O   UNL     1      -2.148  -2.207  -0.015  0.00  0.00    -0.243 OA
ATOM     26  O   UNL     1      -1.539  -1.332   1.808  0.00  0.00    -0.243 OA
ENDBRANCH  23  24
ENDBRANCH  21  23
ENDBRANCH   1  21
BRANCH   3  27
ATOM     27  O   UNL     1       4.772   0.195  -0.355  0.00  0.00    -0.462 OA
BRANCH  27  28
ATOM     28  C   UNL     1       6.082   0.118  -0.710  0.00  0.00    +0.124 A 
ATOM     29  C   UNL     1       7.068   0.130   0.265  0.00  0.00    +0.046 A 
ATOM     30  C   UNL     1       8.398   0.051  -0.099  0.00  0.00    +0.008 A 
ATOM     31  C   UNL     1       8.747  -0.041  -1.433  0.00  0.00    -0.042 A 
ATOM     32  C   UNL     1       7.766  -0.053  -2.407  0.00  0.00    +0.008 A 
ATOM     33  C   UNL     1       6.434   0.020  -2.049  0.00  0.00    +0.046 A 
BRANCH  31  34
ATOM     34  C   UNL     1      10.199  -0.127  -1.827  0.00  0.00    -0.013 C 
ATOM     35  C   UNL     1      10.826  -1.371  -1.194  0.00  0.00    +0.015 C 
ATOM     36  C   UNL     1      10.310  -0.219  -3.350  0.00  0.00    +0.015 C 
ATOM     37  C   UNL     1      10.936   1.121  -1.337  0.00  0.00    +0.015 C 
ENDBRANCH  31  34
ENDBRANCH  27  28
ENDBRANCH   3  27
TORSDOF 8
