REMARK  Name = ZINC58856921
REMARK  8 active torsions:
REMARK  status: ('A' for Active; 'I' for Inactive)
REMARK    1  A    between atoms: C_1  and  C_2
REMARK    2  A    between atoms: C_2  and  C_3
REMARK    3  A    between atoms: C_2  and  C_4
REMARK    4  A    between atoms: C_2  and  O_5
REMARK    5  A    between atoms: O_5  and  C_6
REMARK    6  A    between atoms: N_16  and  C_17
REMARK    7  A    between atoms: C_22  and  O_23
REMARK    8  A    between atoms: O_23  and  C_24
REMARK                            x       y       z     vdW  Elec       q    Type
REMARK                         _______ _______ _______ _____ _____    ______ ____
ROOT
ATOM      1  C   UNL     1       2.163   0.001  -1.195  0.00  0.00    +0.403 C 
ATOM      2  O   UNL     1       2.593   0.894  -0.492  0.00  0.00    -0.226 OA
ATOM      3  N   UNL     1       2.874  -0.418  -2.261  0.00  0.00    -0.264 N 
ATOM      4  C   UNL     1       2.364  -1.493  -3.123  0.00  0.00    +0.130 C 
ATOM      5  C   UNL     1       2.322  -0.983  -4.569  0.00  0.00    +0.128 C 
ATOM      6  N   UNL     1       3.620  -0.372  -4.890  0.00  0.00    -0.282 N 
ATOM      7  C   UNL     1       4.130   0.703  -4.027  0.00  0.00    +0.128 C 
ATOM      8  C   UNL     1       4.169   0.196  -2.585  0.00  0.00    +0.130 C 
ATOM      9  C   UNL     1       4.330  -0.791  -5.956  0.00  0.00    +0.307 C 
ATOM     10  O   UNL     1       3.943  -1.742  -6.608  0.00  0.00    -0.252 OA
ATOM     11  N   UNL     1       5.468  -0.157  -6.299  0.00  0.00    -0.266 N 
ATOM     12  H   UNL     1       5.811   0.559  -5.742  0.00  0.00    +0.156 HD
ENDROOT
BRANCH  11  13
ATOM     13  C   UNL     1       6.157  -0.532  -7.461  0.00  0.00    +0.077 A 
ATOM     14  C   UNL     1       5.513  -1.269  -8.443  0.00  0.00    +0.027 A 
ATOM     15  C   UNL     1       6.194  -1.637  -9.588  0.00  0.00    +0.002 A 
ATOM     16  C   UNL     1       7.517  -1.273  -9.758  0.00  0.00    +0.004 A 
ATOM     17  C   UNL     1       8.165  -0.538  -8.782  0.00  0.00    +0.048 A 
ATOM     18  C   UNL     1       7.488  -0.160  -7.634  0.00  0.00    +0.150 A 
BRANCH  18  19
ATOM     19  O   UNL     1       8.123   0.568  -6.677  0.00  0.00    -0.454 OA
BRANCH  19  20
ATOM     20  C   UNL     1       9.446   0.826  -6.845  0.00  0.00    +0.129 A 
ATOM     21  C   UNL     1       9.856   1.805  -7.738  0.00  0.00    +0.046 A 
ATOM     22  C   UNL     1      11.202   2.066  -7.906  0.00  0.00    +0.004 A 
ATOM     23  C   UNL     1      12.141   1.350  -7.185  0.00  0.00    +0.000 A 
ATOM     24  C   UNL     1      11.736   0.374  -6.295  0.00  0.00    +0.004 A 
ATOM     25  C   UNL     1      10.390   0.113  -6.119  0.00  0.00    +0.046 A 
ENDBRANCH  19  20
ENDBRANCH  18  19
ENDBRANCH  11  13
BRANCH   1  26
ATOM     26  O   UNL     1       0.978  -0.570  -0.909  0.00  0.00    -0.445 OA
BRANCH  26  28
ATOM     27  C   UNL     1      -0.016   1.414   0.049  0.00  0.00    +0.055 C 
ATOM     28  C   UNL     1       0.279  -0.076   0.236  0.00  0.00    +0.107 C 
ATOM     29  C   UNL     1       1.142  -0.273   1.484  0.00  0.00    +0.055 C 
ATOM     30  C   UNL     1      -1.036  -0.840   0.399  0.00  0.00    +0.055 C 
ENDBRANCH  26  28
ENDBRANCH   1  26
TORSDOF 5
