REMARK  Name = ZINC33260300
REMARK  7 active torsions:
REMARK  status: ('A' for Active; 'I' for Inactive)
REMARK    1  A    between atoms: C_1  and  C_2
REMARK    2  A    between atoms: C_2  and  C_3
REMARK    3  A    between atoms: C_3  and  C_4
REMARK    4  A    between atoms: C_4  and  N_5
REMARK    5  A    between atoms: C_6  and  C_8
REMARK    6  A    between atoms: C_20  and  C_23
REMARK    7  A    between atoms: C_26  and  C_29
REMARK                            x       y       z     vdW  Elec       q    Type
REMARK                         _______ _______ _______ _____ _____    ______ ____
ROOT
ATOM      1  C   UNL     1      -1.330   1.944   0.019  0.00  0.00    +0.078 C 
ATOM      2  C   UNL     1      -1.419   2.815   1.276  0.00  0.00    +0.031 C 
ATOM      3  C   UNL     1      -2.782   3.510   1.312  0.00  0.00    +0.107 C 
ATOM      4  N   UNL     1      -3.849   2.502   1.314  0.00  0.00    -0.314 N 
ATOM      5  C   UNL     1      -3.812   1.686   0.094  0.00  0.00    +0.107 C 
ATOM      6  C   UNL     1      -2.481   0.935   0.022  0.00  0.00    +0.031 C 
ATOM      7  C   UNL     1      -5.096   3.096   1.478  0.00  0.00    +0.142 A 
ATOM      8  C   UNL     1      -5.332   3.922   2.595  0.00  0.00    +0.049 A 
ATOM      9  C   UNL     1      -6.547   4.508   2.765  0.00  0.00    +0.053 A 
ATOM     10  C   UNL     1      -7.559   4.278   1.814  0.00  0.00    +0.178 A 
ATOM     11  N   UNL     1      -8.813   4.689   1.696  0.00  0.00    -0.128 NA
ATOM     12  N   UNL     1      -9.332   4.191   0.628  0.00  0.00    -0.127 NA
ATOM     13  C   UNL     1      -8.446   3.437   0.004  0.00  0.00    +0.185 A 
ATOM     14  N   UNL     1      -7.297   3.469   0.737  0.00  0.00    -0.191 N 
ATOM     15  N   UNL     1      -6.037   2.886   0.588  0.00  0.00    -0.148 NA
ENDROOT
BRANCH  13  16
ATOM     16  C   UNL     1      -8.661   2.694  -1.255  0.00  0.00    +0.021 A 
ATOM     17  C   UNL     1      -7.761   1.701  -1.646  0.00  0.00    +0.012 A 
ATOM     18  C   UNL     1      -7.971   1.008  -2.821  0.00  0.00    +0.004 A 
ATOM     19  C   UNL     1      -9.063   1.304  -3.616  0.00  0.00    -0.050 A 
ATOM     20  C   UNL     1      -9.956   2.290  -3.237  0.00  0.00    +0.004 A 
ATOM     21  C   UNL     1      -9.762   2.987  -2.063  0.00  0.00    +0.012 A 
ATOM     22  C   UNL     1      -9.282   0.547  -4.901  0.00  0.00    +0.044 C 
ENDBRANCH  13  16
BRANCH   1  24
ATOM     23  N   UNL     1       1.143   1.898   0.001  0.00  0.00    -0.315 N 
ATOM     24  C   UNL     1      -0.014   1.209   0.009  0.00  0.00    +0.216 C 
ATOM     25  O   UNL     1       0.002  -0.004   0.002  0.00  0.00    -0.276 OA
ATOM     26  H   UNL     1       1.129   2.998   0.007  0.00  0.00    +0.149 HD
BRANCH  23  27
ATOM     27  C   UNL     1       2.422   1.183  -0.015  0.00  0.00    +0.104 C 
BRANCH  27  28
ATOM     28  C   UNL     1       3.571   2.193  -0.020  0.00  0.00    +0.018 C 
BRANCH  28  30
ATOM     29  C   UNL     1       6.056   2.456  -0.043  0.00  0.00    +0.004 C 
ATOM     30  C   UNL     1       4.907   1.446  -0.037  0.00  0.00    -0.002 C 
ENDBRANCH  28  30
ENDBRANCH  27  28
ENDBRANCH  23  27
ENDBRANCH   1  24
TORSDOF 5
