REMARK  Name = ZINC23470597
REMARK  8 active torsions:
REMARK  status: ('A' for Active; 'I' for Inactive)
REMARK    1  A    between atoms: C_3  and  C_11
REMARK    2  A    between atoms: C_4  and  N_10
REMARK    3  A    between atoms: C_6  and  N_7
REMARK    4  A    between atoms: C_11  and  O_13
REMARK    5  A    between atoms: O_13  and  C_14
REMARK    6  A    between atoms: C_14  and  C_15
REMARK    7  A    between atoms: N_17  and  C_18
REMARK    8  A    between atoms: N_17  and  C_26
REMARK                            x       y       z     vdW  Elec       q    Type
REMARK                         _______ _______ _______ _____ _____    ______ ____
ROOT
ATOM      1  C   UNL     1       4.684   4.415  -0.327  0.00  0.00    +0.328 C 
ENDROOT
BRANCH   1   2
ATOM      2  C   UNL     1       4.371   5.854  -0.648  0.00  0.00    +0.254 C 
ATOM      3  O   UNL     1       3.217   6.223  -0.715  0.00  0.00    -0.272 OA
ATOM      4  N   UNL     1       5.372   6.730  -0.861  0.00  0.00    -0.291 N 
BRANCH   4   5
ATOM      5  C   UNL     1       6.765   6.284  -0.779  0.00  0.00    +0.099 C 
ATOM      6  C   UNL     1       7.004   5.601   0.578  0.00  0.00    +0.047 C 
ATOM      7  C   UNL     1       8.375   4.868   0.516  0.00  0.00    +0.168 C 
ATOM      8  S   UNL     1       8.305   4.164  -1.185  0.00  0.00    -0.029 S 
ATOM      9  O   UNL     1       9.556   4.376  -1.825  0.00  0.00    -0.174 OA
ATOM     10  O   UNL     1       7.766   2.851  -1.120  0.00  0.00    -0.174 OA
ATOM     11  C   UNL     1       7.054   5.288  -1.928  0.00  0.00    +0.188 C 
ENDBRANCH   4   5
BRANCH   4  12
ATOM     12  C   UNL     1       5.068   8.129  -1.174  0.00  0.00    +0.077 C 
ATOM     13  C   UNL     1       4.274   8.748  -0.022  0.00  0.00    +0.022 C 
ATOM     14  C   UNL     1       3.956  10.209  -0.348  0.00  0.00    +0.002 C 
ATOM     15  C   UNL     1       3.128  10.275  -1.633  0.00  0.00    +0.000 C 
ATOM     16  C   UNL     1       3.922   9.656  -2.785  0.00  0.00    +0.002 C 
ATOM     17  C   UNL     1       4.240   8.196  -2.458  0.00  0.00    +0.022 C 
ENDBRANCH   4  12
ENDBRANCH   1   2
BRANCH   1  18
ATOM     18  O   UNL     1       3.548   3.602  -0.631  0.00  0.00    -0.452 OA
BRANCH  18  19
ATOM     19  C   UNL     1       3.664   2.279  -0.399  0.00  0.00    +0.341 C 
ATOM     20  O   UNL     1       4.700   1.829   0.048  0.00  0.00    -0.245 OA
BRANCH  19  23
ATOM     21  C   UNL     1       0.245   1.057  -1.343  0.00  0.00    +0.033 A 
ATOM     22  C   UNL     1       1.298   1.905  -1.074  0.00  0.00    +0.019 A 
ATOM     23  C   UNL     1       2.534   1.379  -0.689  0.00  0.00    +0.080 A 
ATOM     24  C   UNL     1       2.693  -0.012  -0.579  0.00  0.00    +0.041 A 
ATOM     25  C   UNL     1       1.620  -0.849  -0.855  0.00  0.00    +0.056 A 
ATOM     26  C   UNL     1       0.405  -0.315  -1.234  0.00  0.00    +0.128 A 
BRANCH  26  27
ATOM     27  N   UNL     1      -0.734  -1.213  -1.527  0.00  0.00    +0.056 N 
ATOM     28  O   UNL     1      -1.800  -0.749  -1.860  0.00  0.00    -0.126 OA
ATOM     29  O   UNL     1      -0.599  -2.411  -1.433  0.00  0.00    -0.126 OA
ENDBRANCH  26  27
BRANCH  24  30
ATOM     30  N   UNL     1       3.916  -0.547  -0.198  0.00  0.00    -0.357 N 
ATOM     31  H   UNL     1       4.629   0.038   0.102  0.00  0.00    +0.142 HD
ATOM     32  H   UNL     1       4.057  -1.506  -0.231  0.00  0.00    +0.142 HD
ENDBRANCH  24  30
ENDBRANCH  19  23
ENDBRANCH  18  19
ENDBRANCH   1  18
TORSDOF 8
