REMARK  Name = ZINC28854098
REMARK  7 active torsions:
REMARK  status: ('A' for Active; 'I' for Inactive)
REMARK    1  A    between atoms: C_1  and  C_2
REMARK    2  A    between atoms: C_2  and  C_4
REMARK    3  A    between atoms: C_2  and  O_10
REMARK    4  A    between atoms: O_10  and  C_11
REMARK    5  A    between atoms: C_11  and  C_13
REMARK    6  A    between atoms: C_13  and  O_14
REMARK    7  A    between atoms: O_14  and  C_15
REMARK                            x       y       z     vdW  Elec       q    Type
REMARK                         _______ _______ _______ _____ _____    ______ ____
ROOT
ATOM      1  C   UNL     1       1.998  -0.651  -1.087  0.00  0.00    +0.346 C 
ATOM      2  O   UNL     1       2.572  -0.429  -0.047  0.00  0.00    -0.247 OA
ENDROOT
BRANCH   1   3
ATOM      3  O   UNL     1       0.671  -0.465  -1.174  0.00  0.00    -0.450 OA
BRANCH   3   5
ATOM      4  C   UNL     1      -0.019   1.526   0.010  0.00  0.00    +0.062 C 
ATOM      5  C   UNL     1       0.002  -0.004   0.002  0.00  0.00    +0.259 C 
BRANCH   5   6
ATOM      6  C   UNL     1      -1.412  -0.526   0.013  0.00  0.00    +0.261 C 
ATOM      7  O   UNL     1      -1.836  -1.147  -0.938  0.00  0.00    -0.271 OA
ATOM      8  N   UNL     1      -2.204  -0.302   1.079  0.00  0.00    -0.237 N 
ATOM      9  C   UNL     1      -3.469  -0.768   1.089  0.00  0.00    +0.303 C 
ATOM     10  O   UNL     1      -3.894  -1.391   0.136  0.00  0.00    -0.253 OA
ATOM     11  N   UNL     1      -4.262  -0.544   2.156  0.00  0.00    -0.313 N 
ATOM     12  H   UNL     1      -1.865   0.195   1.840  0.00  0.00    +0.159 HD
ATOM     13  H   UNL     1      -3.922  -0.048   2.916  0.00  0.00    +0.146 HD
ATOM     14  H   UNL     1      -5.172  -0.880   2.163  0.00  0.00    +0.146 HD
ENDBRANCH   5   6
ENDBRANCH   3   5
ENDBRANCH   1   3
BRANCH   1  15
ATOM     15  C   UNL     1       2.771  -1.135  -2.286  0.00  0.00    +0.349 C 
BRANCH  15  16
ATOM     16  O   UNL     1       4.153  -1.253  -1.946  0.00  0.00    -0.480 OA
BRANCH  16  17
ATOM     17  C   UNL     1       4.995  -1.682  -2.923  0.00  0.00    +0.136 A 
ATOM     18  C   UNL     1       4.486  -1.977  -4.191  0.00  0.00    +0.047 A 
ATOM     19  C   UNL     1       5.303  -2.408  -5.190  0.00  0.00    +0.012 A 
ATOM     20  C   UNL     1       6.680  -2.560  -4.948  0.00  0.00    -0.017 A 
ATOM     21  C   UNL     1       7.552  -3.003  -5.957  0.00  0.00    +0.008 A 
ATOM     22  C   UNL     1       8.879  -3.139  -5.688  0.00  0.00    +0.001 A 
ATOM     23  C   UNL     1       9.389  -2.846  -4.425  0.00  0.00    +0.001 A 
ATOM     24  C   UNL     1       8.575  -2.416  -3.423  0.00  0.00    +0.010 A 
ATOM     25  C   UNL     1       7.198  -2.263  -3.663  0.00  0.00    -0.000 A 
ATOM     26  C   UNL     1       6.328  -1.814  -2.655  0.00  0.00    +0.067 A 
ATOM     27 BR   UNL     1       6.998  -1.402  -0.935  0.00  0.00    -0.046 Br
ENDBRANCH  16  17
ENDBRANCH  15  16
ENDBRANCH   1  15
TORSDOF 6
