REMARK  Name = ZINC20478892
REMARK  8 active torsions:
REMARK  status: ('A' for Active; 'I' for Inactive)
REMARK    1  A    between atoms: C_6  and  C_7
REMARK    2  A    between atoms: C_8  and  C_13
REMARK    3  A    between atoms: C_14  and  C_15
REMARK    4  A    between atoms: C_14  and  C_17
REMARK    5  A    between atoms: N_19  and  C_20
REMARK    6  A    between atoms: C_23  and  S_26
REMARK    7  A    between atoms: S_26  and  N_29
REMARK    8  A    between atoms: N_29  and  C_30
REMARK                            x       y       z     vdW  Elec       q    Type
REMARK                         _______ _______ _______ _____ _____    ______ ____
ROOT
ATOM      1  C   UNL     1       2.373   4.242  -0.370  0.00  0.00    +0.259 C 
ATOM      2  O   UNL     1       3.387   3.607  -0.146  0.00  0.00    -0.269 OA
ATOM      3  N   UNL     1       1.271   3.613  -0.824  0.00  0.00    -0.281 N 
ATOM      4  H   UNL     1       0.377   4.195  -1.092  0.00  0.00    +0.155 HD
ENDROOT
BRANCH   3   5
ATOM      5  C   UNL     1       1.264   2.221  -0.954  0.00  0.00    +0.034 A 
ATOM      6  C   UNL     1       1.832   1.426   0.033  0.00  0.00    +0.025 A 
ATOM      7  C   UNL     1       1.823   0.052  -0.099  0.00  0.00    +0.031 A 
ATOM      8  C   UNL     1       1.249  -0.534  -1.212  0.00  0.00    +0.111 A 
ATOM      9  C   UNL     1       0.683   0.254  -2.197  0.00  0.00    +0.031 A 
ATOM     10  C   UNL     1       0.688   1.629  -2.071  0.00  0.00    +0.025 A 
BRANCH   8  11
ATOM     11  S   UNL     1       1.240  -2.288  -1.376  0.00  0.00    +0.093 S 
ATOM     12  O   UNL     1       1.130  -2.566  -2.766  0.00  0.00    -0.148 OA
ATOM     13  O   UNL     1       2.314  -2.776  -0.585  0.00  0.00    -0.148 OA
BRANCH  11  14
ATOM     14  N   UNL     1      -0.154  -2.838  -0.672  0.00  0.00    -0.070 NA
BRANCH  14  15
ATOM     15  C   UNL     1      -1.385  -2.500  -1.214  0.00  0.00    +0.201 A 
ATOM     16  N   UNL     1      -1.649  -1.755  -2.270  0.00  0.00    -0.231 NA
ATOM     17  C   UNL     1      -2.891  -1.534  -2.656  0.00  0.00    +0.120 A 
ATOM     18  C   UNL     1      -3.899  -2.081  -1.935  0.00  0.00    +0.068 A 
ATOM     19  S   UNL     1      -2.974  -2.943  -0.672  0.00  0.00    -0.058 S 
ENDBRANCH  14  15
ENDBRANCH  11  14
ENDBRANCH   8  11
ENDBRANCH   3   5
BRANCH   1  21
ATOM     20  C   UNL     1       3.480   6.338   0.319  0.00  0.00    +0.035 C 
ATOM     21  C   UNL     1       2.351   5.694  -0.146  0.00  0.00    +0.114 C 
BRANCH  20  23
ATOM     22  C   UNL     1       4.416   8.566   1.335  0.00  0.00    +0.100 A 
ATOM     23  C   UNL     1       3.456   7.781   0.546  0.00  0.00    +0.021 A 
ATOM     24  C   UNL     1       2.527   8.686   0.055  0.00  0.00    +0.113 A 
ATOM     25  N   UNL     1       2.867   9.904   0.500  0.00  0.00    -0.284 N 
ATOM     26  H   UNL     1       2.255  10.778   0.234  0.00  0.00    +0.188 HD
ATOM     27  N   UNL     1       4.025   9.818   1.278  0.00  0.00    -0.173 NA
BRANCH  22  33
ATOM     28  C   UNL     1       5.552   6.789   2.663  0.00  0.00    +0.013 A 
ATOM     29  C   UNL     1       6.659   6.304   3.330  0.00  0.00    +0.039 A 
ATOM     30  C   UNL     1       7.813   7.067   3.405  0.00  0.00    +0.123 A 
ATOM     31  C   UNL     1       7.864   8.316   2.808  0.00  0.00    +0.039 A 
ATOM     32  C   UNL     1       6.764   8.807   2.136  0.00  0.00    +0.013 A 
ATOM     33  C   UNL     1       5.600   8.043   2.057  0.00  0.00    +0.003 A 
ATOM     34  F   UNL     1       8.893   6.590   4.064  0.00  0.00    -0.205 F 
ENDBRANCH  22  33
ENDBRANCH  20  23
BRANCH  21  35
ATOM     35  C   UNL     1       1.158   6.441  -0.410  0.00  0.00    +0.104 C 
ATOM     36  N   UNL     1       0.212   7.034  -0.619  0.00  0.00    -0.191 NA
ENDBRANCH  21  35
ENDBRANCH   1  21
TORSDOF 8
