REMARK  Name = ZINC38596516
REMARK  8 active torsions:
REMARK  status: ('A' for Active; 'I' for Inactive)
REMARK    1  A    between atoms: C_1  and  C_2
REMARK    2  A    between atoms: C_2  and  O_3
REMARK    3  A    between atoms: O_3  and  C_4
REMARK    4  A    between atoms: C_4  and  C_6
REMARK    5  A    between atoms: C_8  and  N_17
REMARK    6  A    between atoms: C_18  and  C_20
REMARK    7  A    between atoms: C_20  and  N_21
REMARK    8  A    between atoms: N_24  and  C_27
REMARK                            x       y       z     vdW  Elec       q    Type
REMARK                         _______ _______ _______ _____ _____    ______ ____
ROOT
ATOM      1  N   UNL     1       3.666  -0.892   1.709  0.00  0.00    -0.285 N 
ATOM      2  C   UNL     1       4.981  -1.105   1.503  0.00  0.00    +0.231 C 
ATOM      3  O   UNL     1       5.368  -2.194   1.137  0.00  0.00    -0.274 OA
ATOM      4  H   UNL     1       3.348  -0.003   1.931  0.00  0.00    +0.155 HD
ENDROOT
BRANCH   1   6
ATOM      5  C   UNL     1       3.111  -3.391   1.420  0.00  0.00    +0.234 C 
ATOM      6  C   UNL     1       2.783  -1.926   1.606  0.00  0.00    +0.053 C 
ATOM      7  C   UNL     1       1.402  -1.852   1.650  0.00  0.00    +0.020 A 
ATOM      8  C   UNL     1       0.508  -0.765   1.805  0.00  0.00    +0.050 A 
ATOM      9  C   UNL     1      -0.830  -0.991   1.813  0.00  0.00    +0.124 A 
ATOM     10  C   UNL     1      -1.357  -2.280   1.669  0.00  0.00    +0.040 A 
ATOM     11  C   UNL     1      -0.560  -3.365   1.517  0.00  0.00    +0.029 A 
ATOM     12  C   UNL     1       0.851  -3.210   1.500  0.00  0.00    +0.045 A 
ATOM     13  N   UNL     1       1.824  -4.091   1.367  0.00  0.00    -0.367 N 
ATOM     14  F   UNL     1      -1.674   0.053   1.961  0.00  0.00    -0.205 F 
ATOM     15  H   UNL     1       1.707  -5.047   1.252  0.00  0.00    +0.161 HD
BRANCH   5  16
ATOM     16  C   UNL     1       3.927  -3.892   2.583  0.00  0.00    +0.336 C 
ATOM     17  O   UNL     1       3.396  -4.100   3.648  0.00  0.00    -0.248 OA
BRANCH  16  18
ATOM     18  O   UNL     1       5.244  -4.107   2.437  0.00  0.00    -0.463 OA
BRANCH  18  20
ATOM     19  C   UNL     1       7.420  -4.817   3.211  0.00  0.00    +0.048 C 
ATOM     20  C   UNL     1       5.929  -4.713   3.535  0.00  0.00    +0.229 C 
ENDBRANCH  18  20
ENDBRANCH  16  18
ENDBRANCH   5  16
ENDBRANCH   1   6
BRANCH   2  21
ATOM     21  C   UNL     1       5.969   0.010   1.728  0.00  0.00    +0.180 C 
BRANCH  21  22
ATOM     22  N   UNL     1       7.301  -0.420   1.283  0.00  0.00    -0.298 NA
ATOM     23  C   UNL     1       7.916  -1.329   2.260  0.00  0.00    +0.066 C 
ATOM     24  C   UNL     1       9.273  -1.799   1.733  0.00  0.00    -0.063 C 
ATOM     25  N   UNL     1      10.141  -0.635   1.508  0.00  0.00    +0.383 N 
ATOM     26  C   UNL     1       9.526   0.251   0.511  0.00  0.00    -0.063 C 
ATOM     27  C   UNL     1       8.171   0.738   1.029  0.00  0.00    +0.066 C 
ATOM     28  H   UNL     1      10.261  -0.134   2.375  0.00  0.00    -0.081 HD
BRANCH  25  29
ATOM     29  C   UNL     1      11.450  -1.089   1.019  0.00  0.00    -0.068 C 
ATOM     30  C   UNL     1      12.091  -2.010   2.058  0.00  0.00    -0.015 C 
ATOM     31  C   UNL     1      13.455  -2.482   1.548  0.00  0.00    -0.002 C 
ATOM     32  C   UNL     1      14.359  -1.270   1.314  0.00  0.00    -0.000 C 
ATOM     33  C   UNL     1      13.717  -0.348   0.275  0.00  0.00    -0.002 C 
ATOM     34  C   UNL     1      12.354   0.123   0.784  0.00  0.00    -0.015 C 
ENDBRANCH  25  29
ENDBRANCH  21  22
ENDBRANCH   2  21
TORSDOF 7
