REMARK  Name = ZINC20158177
REMARK  8 active torsions:
REMARK  status: ('A' for Active; 'I' for Inactive)
REMARK    1  A    between atoms: C_1  and  C_2
REMARK    2  A    between atoms: C_2  and  N_3
REMARK    3  A    between atoms: N_3  and  N_4
REMARK    4  A    between atoms: C_5  and  C_7
REMARK    5  A    between atoms: C_7  and  O_8
REMARK    6  A    between atoms: O_8  and  C_9
REMARK    7  A    between atoms: C_17  and  C_18
REMARK    8  A    between atoms: N_20  and  C_21
REMARK                            x       y       z     vdW  Elec       q    Type
REMARK                         _______ _______ _______ _____ _____    ______ ____
ROOT
ATOM      1  N   UNL     1       0.436   2.166   4.189  0.00  0.00    -0.269 N 
ATOM      2  H   UNL     1       0.299   3.248   4.332  0.00  0.00    +0.170 HD
ENDROOT
BRANCH   1   3
ATOM      3  N   UNL     1       1.245   1.694   3.146  0.00  0.00    -0.234 N 
ATOM      4  C   UNL     1       1.855   2.567   2.319  0.00  0.00    +0.267 C 
ATOM      5  O   UNL     1       1.703   3.760   2.477  0.00  0.00    -0.271 OA
ATOM      6  H   UNL     1       1.383   0.613   3.003  0.00  0.00    +0.173 HD
BRANCH   4   7
ATOM      7  C   UNL     1       2.724   2.059   1.198  0.00  0.00    +0.326 C 
BRANCH   7   8
ATOM      8  O   UNL     1       3.254   3.167   0.467  0.00  0.00    -0.482 OA
BRANCH   8   9
ATOM      9  C   UNL     1       4.066   2.882  -0.585  0.00  0.00    +0.135 A 
ATOM     10  C   UNL     1       4.346   1.562  -0.907  0.00  0.00    +0.048 A 
ATOM     11  C   UNL     1       5.171   1.274  -1.977  0.00  0.00    +0.019 A 
ATOM     12  C   UNL     1       5.718   2.300  -2.727  0.00  0.00    +0.019 A 
ATOM     13  C   UNL     1       5.440   3.616  -2.408  0.00  0.00    +0.034 A 
ATOM     14  C   UNL     1       4.610   3.910  -1.342  0.00  0.00    +0.061 A 
ATOM     15 BR   UNL     1       4.223   5.710  -0.911  0.00  0.00    -0.046 Br
ATOM     16 BR   UNL     1       6.846   1.901  -4.191  0.00  0.00    -0.050 Br
ENDBRANCH   8   9
ENDBRANCH   7   8
ENDBRANCH   4   7
ENDBRANCH   1   3
BRANCH   1  18
ATOM     17  C   UNL     1       0.045  -0.145   4.778  0.00  0.00    +0.062 C 
ATOM     18  C   UNL     1      -0.143   1.338   4.974  0.00  0.00    +0.024 C 
ATOM     19  C   UNL     1      -1.013   1.845   6.096  0.00  0.00    +0.087 C 
BRANCH  19  20
ATOM     20  C   UNL     1      -1.571   0.676   6.866  0.00  0.00    +0.243 C 
ATOM     21  O   UNL     1      -1.291  -0.457   6.537  0.00  0.00    -0.270 OA
ATOM     22  N   UNL     1      -2.383   0.890   7.920  0.00  0.00    -0.282 N 
ATOM     23  H   UNL     1      -2.568   1.916   8.273  0.00  0.00    +0.155 HD
BRANCH  22  24
ATOM     24  C   UNL     1      -2.990  -0.192   8.568  0.00  0.00    +0.036 A 
ATOM     25  C   UNL     1      -3.364  -1.315   7.842  0.00  0.00    +0.023 A 
ATOM     26  C   UNL     1      -3.958  -2.385   8.483  0.00  0.00    +0.005 A 
ATOM     27  C   UNL     1      -4.190  -2.335   9.845  0.00  0.00    +0.038 A 
ATOM     28  C   UNL     1      -3.823  -1.214  10.572  0.00  0.00    +0.125 A 
ATOM     29  C   UNL     1      -3.223  -0.142   9.935  0.00  0.00    +0.061 A 
ATOM     30  F   UNL     1      -4.051  -1.168  11.902  0.00  0.00    -0.205 F 
ENDBRANCH  22  24
ENDBRANCH  19  20
ENDBRANCH   1  18
TORSDOF 7
