REMARK  Name = ZINC39982680
REMARK  5 active torsions:
REMARK  status: ('A' for Active; 'I' for Inactive)
REMARK    1  A    between atoms: C_1  and  C_2
REMARK    2  A    between atoms: C_2  and  C_4
REMARK    3  A    between atoms: C_2  and  S_17
REMARK    4  A    between atoms: S_17  and  C_18
REMARK    5  A    between atoms: C_22  and  C_24
REMARK                            x       y       z     vdW  Elec       q    Type
REMARK                         _______ _______ _______ _____ _____    ______ ____
ROOT
ATOM      1  S   UNL     1       0.879  -0.605   1.472  0.00  0.00    -0.084 S 
ENDROOT
BRANCH   1   2
ATOM      2  C   UNL     1      -0.166  -0.072   2.855  0.00  0.00    +0.340 C 
ATOM      3  N   UNL     1      -1.521  -0.631   2.721  0.00  0.00    -0.219 N 
ATOM      4  N   UNL     1      -2.376   0.476   2.619  0.00  0.00    -0.145 NA
ATOM      5  C   UNL     1      -1.686   1.584   2.678  0.00  0.00    +0.238 C 
ATOM      6  O   UNL     1      -0.356   1.350   2.820  0.00  0.00    -0.443 OA
ATOM      7  H   UNL     1      -1.771  -1.568   2.706  0.00  0.00    +0.173 HD
BRANCH   5   8
ATOM      8  C   UNL     1      -2.252   2.865   2.604  0.00  0.00    +0.043 C 
ATOM      9  C   UNL     1      -3.603   3.183   2.466  0.00  0.00    +0.008 A 
ATOM     10  C   UNL     1      -4.764   2.388   2.362  0.00  0.00    +0.010 A 
ATOM     11  C   UNL     1      -5.979   2.982   2.233  0.00  0.00    +0.001 A 
ATOM     12  C   UNL     1      -6.113   4.372   2.202  0.00  0.00    +0.002 A 
ATOM     13  C   UNL     1      -5.041   5.196   2.297  0.00  0.00    +0.026 A 
ATOM     14  C   UNL     1      -3.739   4.648   2.433  0.00  0.00    +0.043 A 
ATOM     15  N   UNL     1      -2.558   5.224   2.542  0.00  0.00    -0.380 N 
ATOM     16  C   UNL     1      -1.525   4.190   2.664  0.00  0.00    +0.154 C 
ATOM     17  H   UNL     1      -2.397   6.181   2.545  0.00  0.00    +0.160 HD
ENDBRANCH   5   8
ENDBRANCH   1   2
BRANCH   1  19
ATOM     18  C   UNL     1      -0.019   1.526   0.010  0.00  0.00    +0.029 C 
ATOM     19  C   UNL     1       0.002  -0.004   0.002  0.00  0.00    +0.135 C 
BRANCH  19  20
ATOM     20  C   UNL     1       0.707  -0.490  -1.238  0.00  0.00    +0.233 C 
ATOM     21  O   UNL     1       1.865  -0.849  -1.176  0.00  0.00    -0.274 OA
ATOM     22  N   UNL     1       0.053  -0.526  -2.415  0.00  0.00    -0.260 N 
ATOM     23  C   UNL     1      -1.348  -0.091  -2.518  0.00  0.00    +0.209 C 
ATOM     24  C   UNL     1      -2.099  -1.055  -3.401  0.00  0.00    +0.235 C 
ATOM     25  O   UNL     1      -3.286  -1.228  -3.225  0.00  0.00    -0.274 OA
ATOM     26  N   UNL     1      -1.467  -1.726  -4.383  0.00  0.00    -0.283 N 
ATOM     27  C   UNL     1      -0.089  -1.582  -4.576  0.00  0.00    +0.055 A 
ATOM     28  C   UNL     1       0.688  -0.975  -3.584  0.00  0.00    +0.058 A 
ATOM     29  C   UNL     1       2.052  -0.826  -3.758  0.00  0.00    +0.025 A 
ATOM     30  C   UNL     1       2.648  -1.274  -4.923  0.00  0.00    +0.002 A 
ATOM     31  C   UNL     1       1.884  -1.869  -5.910  0.00  0.00    +0.002 A 
ATOM     32  C   UNL     1       0.514  -2.031  -5.739  0.00  0.00    +0.025 A 
ATOM     33  H   UNL     1      -1.974  -2.316  -4.963  0.00  0.00    +0.155 HD
ENDBRANCH  19  20
ENDBRANCH   1  19
TORSDOF 4
