REMARK  Name = ZINC40173188
REMARK  10 active torsions:
REMARK  status: ('A' for Active; 'I' for Inactive)
REMARK    1  A    between atoms: C_1  and  C_2
REMARK    2  A    between atoms: C_2  and  C_3
REMARK    3  A    between atoms: C_3  and  C_5
REMARK    4  A    between atoms: C_3  and  N_21
REMARK    5  A    between atoms: N_7  and  C_8
REMARK    6  A    between atoms: C_9  and  C_19
REMARK    7  A    between atoms: N_12  and  C_13
REMARK    8  A    between atoms: C_25  and  S_26
REMARK    9  A    between atoms: S_26  and  C_27
REMARK   10  A    between atoms: C_27  and  C_28
REMARK                            x       y       z     vdW  Elec       q    Type
REMARK                         _______ _______ _______ _____ _____    ______ ____
ROOT
ATOM      1  C   UNL     1      -2.714  -0.626   1.030  0.00  0.00    +0.178 C 
ENDROOT
BRANCH   1   2
ATOM      2  N   UNL     1      -4.140  -0.321   0.892  0.00  0.00    -0.279 N 
ATOM      3  C   UNL     1      -4.954  -0.730  -0.127  0.00  0.00    +0.216 A 
ATOM      4  N   UNL     1      -6.156  -0.261   0.101  0.00  0.00    -0.113 NA
ATOM      5  N   UNL     1      -6.117   0.468   1.296  0.00  0.00    -0.121 NA
ATOM      6  C   UNL     1      -4.892   0.417   1.762  0.00  0.00    +0.194 A 
ATOM      7  N   UNL     1      -4.573  -1.507  -1.213  0.00  0.00    -0.328 N 
ATOM      8  H   UNL     1      -3.655  -1.808  -1.296  0.00  0.00    +0.145 HD
ATOM      9  H   UNL     1      -5.225  -1.748  -1.890  0.00  0.00    +0.145 HD
BRANCH   6  10
ATOM     10  S   UNL     1      -4.317   1.170   3.248  0.00  0.00    -0.081 S 
BRANCH  10  11
ATOM     11  C   UNL     1      -5.788   1.986   3.925  0.00  0.00    +0.114 C 
BRANCH  11  12
ATOM     12  C   UNL     1      -5.430   2.679   5.214  0.00  0.00    -0.019 A 
ATOM     13  C   UNL     1      -5.531   2.000   6.415  0.00  0.00    +0.006 A 
ATOM     14  C   UNL     1      -5.203   2.635   7.598  0.00  0.00    +0.000 A 
ATOM     15  C   UNL     1      -4.773   3.949   7.581  0.00  0.00    +0.001 A 
ATOM     16  C   UNL     1      -4.671   4.628   6.382  0.00  0.00    +0.020 A 
ATOM     17  C   UNL     1      -4.995   3.991   5.197  0.00  0.00    +0.045 A 
ATOM     18 CL   UNL     1      -4.861   4.842   3.689  0.00  0.00    -0.083 Cl
ENDBRANCH  11  12
ENDBRANCH  10  11
ENDBRANCH   6  10
ENDBRANCH   1   2
BRANCH   1  19
ATOM     19  C   UNL     1      -2.523  -2.119   1.096  0.00  0.00    +0.241 C 
ATOM     20  O   UNL     1      -3.484  -2.857   1.033  0.00  0.00    -0.273 OA
ATOM     21  N   UNL     1      -1.285  -2.635   1.224  0.00  0.00    -0.268 N 
ATOM     22  H   UNL     1      -0.512  -2.049   1.215  0.00  0.00    +0.156 HD
BRANCH  21  23
ATOM     23  C   UNL     1      -1.115  -4.003   1.369  0.00  0.00    +0.146 A 
ATOM     24  C   UNL     1      -1.098  -4.947   0.347  0.00  0.00    +0.111 A 
ATOM     25  C   UNL     1      -0.900  -6.209   0.951  0.00  0.00    +0.155 A 
ATOM     26  N   UNL     1      -0.806  -6.034   2.240  0.00  0.00    -0.172 NA
ATOM     27  N   UNL     1      -0.931  -4.671   2.530  0.00  0.00    -0.217 N 
BRANCH  27  28
ATOM     28  C   UNL     1      -0.877  -4.096   3.806  0.00  0.00    +0.067 A 
ATOM     29  C   UNL     1      -0.211  -2.893   4.000  0.00  0.00    +0.028 A 
ATOM     30  C   UNL     1      -0.160  -2.328   5.259  0.00  0.00    +0.002 A 
ATOM     31  C   UNL     1      -0.771  -2.960   6.327  0.00  0.00    +0.000 A 
ATOM     32  C   UNL     1      -1.435  -4.158   6.137  0.00  0.00    +0.002 A 
ATOM     33  C   UNL     1      -1.494  -4.725   4.879  0.00  0.00    +0.028 A 
ENDBRANCH  27  28
BRANCH  24  34
ATOM     34  C   UNL     1      -1.251  -4.688  -1.053  0.00  0.00    +0.104 C 
ATOM     35  N   UNL     1      -1.373  -4.482  -2.164  0.00  0.00    -0.191 NA
ENDBRANCH  24  34
ENDBRANCH  21  23
ENDBRANCH   1  19
BRANCH   1  37
ATOM     36  C   UNL     1      -2.044   1.461  -0.170  0.00  0.00    +0.006 C 
ATOM     37  C   UNL     1      -1.954  -0.067  -0.174  0.00  0.00    +0.031 C 
ENDBRANCH   1  37
TORSDOF 9
