REMARK  Name = ZINC12134705
REMARK  13 active torsions:
REMARK  status: ('A' for Active; 'I' for Inactive)
REMARK    1  A    between atoms: C_1  and  C_2
REMARK    2  A    between atoms: C_2  and  C_3
REMARK    3  A    between atoms: C_2  and  C_4
REMARK    4  A    between atoms: C_4  and  C_5
REMARK    5  A    between atoms: C_5  and  C_7
REMARK    6  A    between atoms: C_5  and  N_27
REMARK    7  A    between atoms: C_17  and  C_19
REMARK    8  A    between atoms: C_22  and  C_24
REMARK    9  A    between atoms: C_24  and  C_26
REMARK   10  A    between atoms: C_28  and  C_30
REMARK   11  A    between atoms: C_30  and  N_64
REMARK   12  A    between atoms: C_31  and  N_64
REMARK   13  A    between atoms: C_32  and  N_64
REMARK                            x       y       z     vdW  Elec       q    Type
REMARK                         _______ _______ _______ _____ _____    ______ ____
ROOT
ATOM      1  C   UNL     1       1.349  -4.456  -2.924  0.00  0.00    +0.154 A 
ATOM      2  N   UNL     1       2.632  -4.478  -3.166  0.00  0.00    -0.132 NA
ATOM      3  N   UNL     1       2.849  -5.048  -4.299  0.00  0.00    -0.134 NA
ATOM      4  C   UNL     1       1.715  -5.415  -4.827  0.00  0.00    +0.135 A 
ATOM      5  N   UNL     1       0.730  -5.029  -3.985  0.00  0.00    -0.312 N 
ATOM      6  C   UNL     1      -0.715  -5.163  -4.168  0.00  0.00    +0.144 C 
ATOM      7  C   UNL     1      -1.021  -6.382  -5.044  0.00  0.00    +0.129 C 
ATOM      8  N   UNL     1      -0.877  -6.003  -6.458  0.00  0.00    -0.295 N 
ATOM      9  C   UNL     1       0.410  -5.487  -6.930  0.00  0.00    +0.116 C 
ATOM     10  C   UNL     1       1.526  -6.159  -6.123  0.00  0.00    +0.095 C 
ATOM     11  C   UNL     1      -1.915  -6.130  -7.308  0.00  0.00    +0.253 C 
ATOM     12  O   UNL     1      -2.987  -6.537  -6.902  0.00  0.00    -0.269 OA
ENDROOT
BRANCH  11  13
ATOM     13  C   UNL     1      -1.752  -5.776  -8.728  0.00  0.00    +0.075 A 
ATOM     14  C   UNL     1      -2.636  -5.965  -9.781  0.00  0.00    +0.021 A 
ATOM     15  C   UNL     1      -2.269  -5.553 -11.029  0.00  0.00    +0.020 A 
ATOM     16  C   UNL     1      -1.021  -4.961 -11.196  0.00  0.00    +0.055 A 
ATOM     17  S   UNL     1      -0.368  -4.987  -9.535  0.00  0.00    -0.081 S 
BRANCH  16  18
ATOM     18  C   UNL     1      -0.405  -4.443 -12.418  0.00  0.00    +0.167 C 
ATOM     19  O   UNL     1      -1.004  -4.503 -13.472  0.00  0.00    -0.292 OA
ATOM     20  C   UNL     1       0.973  -3.835 -12.368  0.00  0.00    +0.092 C 
ENDBRANCH  16  18
ENDBRANCH  11  13
BRANCH   1  21
ATOM     21  C   UNL     1       0.681  -3.892  -1.697  0.00  0.00    +0.141 C 
BRANCH  21  22
ATOM     22  N   UNL     1       1.400  -4.338  -0.501  0.00  0.00    -0.307 N 
ATOM     23  C   UNL     1       0.778  -4.347   0.695  0.00  0.00    +0.197 C 
ATOM     24  O   UNL     1      -0.401  -4.073   0.768  0.00  0.00    -0.278 OA
ATOM     25  H   UNL     1       2.323  -4.626  -0.570  0.00  0.00    +0.149 HD
BRANCH  23  26
ATOM     26  C   UNL     1       1.548  -4.698   1.942  0.00  0.00    +0.018 C 
BRANCH  26  29
ATOM     27  C   UNL     1       1.208  -5.382   4.240  0.00  0.00    -0.096 C 
ATOM     28  C   UNL     1       0.379  -3.238   3.479  0.00  0.00    -0.096 C 
ATOM     29  N   UNL     1       0.629  -4.644   3.098  0.00  0.00    +0.382 N 
ATOM     30  H   UNL     1      -0.263  -5.082   2.836  0.00  0.00    -0.082 HD
ENDBRANCH  26  29
ENDBRANCH  23  26
ENDBRANCH  21  22
BRANCH  21  31
ATOM     31  C   UNL     1       0.699  -2.364  -1.763  0.00  0.00    +0.033 C 
BRANCH  31  33
ATOM     32  C   UNL     1      -0.010  -0.377  -3.102  0.00  0.00    +0.007 C 
ATOM     33  C   UNL     1      -0.137  -1.895  -2.955  0.00  0.00    -0.015 C 
ATOM     34  C   UNL     1      -1.604  -2.264  -2.727  0.00  0.00    +0.007 C 
ENDBRANCH  31  33
ENDBRANCH  21  31
ENDBRANCH   1  21
TORSDOF 8
