REMARK  Name = ZINC17303117
REMARK  9 active torsions:
REMARK  status: ('A' for Active; 'I' for Inactive)
REMARK    1  A    between atoms: C_1  and  C_2
REMARK    2  A    between atoms: C_3  and  N_15
REMARK    3  A    between atoms: N_6  and  C_9
REMARK    4  A    between atoms: N_7  and  C_8
REMARK    5  A    between atoms: C_16  and  C_18
REMARK    6  A    between atoms: C_18  and  C_20
REMARK    7  A    between atoms: C_18  and  N_21
REMARK    8  A    between atoms: N_21  and  S_22
REMARK    9  A    between atoms: S_22  and  C_25
REMARK                            x       y       z     vdW  Elec       q    Type
REMARK                         _______ _______ _______ _____ _____    ______ ____
ROOT
ATOM      1  N   UNL     1       0.137  -0.224  -2.455  0.00  0.00    -0.278 N 
ATOM      2  C   UNL     1       0.664  -0.904  -3.492  0.00  0.00    +0.236 C 
ATOM      3  O   UNL     1       1.177  -1.988  -3.308  0.00  0.00    -0.274 OA
ATOM      4  H   UNL     1      -0.209   0.673  -2.589  0.00  0.00    +0.155 HD
ENDROOT
BRANCH   1   7
ATOM      5  C   UNL     1      -2.430  -0.665  -0.833  0.00  0.00    +0.067 C 
ATOM      6  C   UNL     1      -1.022  -1.025  -0.433  0.00  0.00    +0.059 A 
ATOM      7  C   UNL     1       0.087  -0.814  -1.177  0.00  0.00    +0.121 A 
ATOM      8  C   UNL     1       1.227  -1.314  -0.407  0.00  0.00    +0.293 A 
ATOM      9  O   UNL     1       2.395  -1.298  -0.749  0.00  0.00    -0.264 OA
ATOM     10  N   UNL     1       0.735  -1.796   0.754  0.00  0.00    -0.216 N 
ATOM     11  N   UNL     1      -0.652  -1.615   0.746  0.00  0.00    -0.282 N 
ATOM     12  C   UNL     1      -1.565  -1.999   1.826  0.00  0.00    +0.171 C 
BRANCH  10  13
ATOM     13  C   UNL     1       1.483  -2.370   1.786  0.00  0.00    +0.067 A 
ATOM     14  C   UNL     1       1.080  -3.574   2.351  0.00  0.00    +0.028 A 
ATOM     15  C   UNL     1       1.821  -4.138   3.371  0.00  0.00    +0.002 A 
ATOM     16  C   UNL     1       2.962  -3.507   3.830  0.00  0.00    +0.000 A 
ATOM     17  C   UNL     1       3.366  -2.309   3.270  0.00  0.00    +0.002 A 
ATOM     18  C   UNL     1       2.633  -1.742   2.246  0.00  0.00    +0.028 A 
ENDBRANCH  10  13
ENDBRANCH   1   7
BRANCH   2  19
ATOM     19  C   UNL     1       0.617  -0.319  -4.880  0.00  0.00    +0.159 C 
ATOM     20  C   UNL     1      -0.840  -0.093  -5.289  0.00  0.00    +0.035 C 
BRANCH  19  21
ATOM     21  N   UNL     1       1.251  -1.244  -5.822  0.00  0.00    -0.178 NA
ATOM     22  H   UNL     1       1.164  -2.202  -5.694  0.00  0.00    +0.149 HD
BRANCH  21  23
ATOM     23  S   UNL     1       2.116  -0.655  -7.106  0.00  0.00    +0.059 S 
ATOM     24  O   UNL     1       2.621  -1.784  -7.807  0.00  0.00    -0.153 OA
ATOM     25  O   UNL     1       1.301   0.327  -7.729  0.00  0.00    -0.153 OA
BRANCH  23  26
ATOM     26  C   UNL     1       3.513   0.194  -6.447  0.00  0.00    +0.105 A 
ATOM     27  C   UNL     1       3.424   1.540  -6.146  0.00  0.00    +0.029 A 
ATOM     28  C   UNL     1       4.519   2.206  -5.629  0.00  0.00    +0.017 A 
ATOM     29  C   UNL     1       5.704   1.526  -5.412  0.00  0.00    +0.018 A 
ATOM     30  C   UNL     1       5.792   0.179  -5.714  0.00  0.00    +0.017 A 
ATOM     31  C   UNL     1       4.695  -0.488  -6.226  0.00  0.00    +0.029 A 
ATOM     32 BR   UNL     1       7.202   2.437  -4.706  0.00  0.00    -0.050 Br
ENDBRANCH  23  26
ENDBRANCH  21  23
ENDBRANCH  19  21
ENDBRANCH   2  19
TORSDOF 6
