REMARK  Name = ZINC13388019
REMARK  8 active torsions:
REMARK  status: ('A' for Active; 'I' for Inactive)
REMARK    1  A    between atoms: C_1  and  C_2
REMARK    2  A    between atoms: C_2  and  O_4
REMARK    3  A    between atoms: O_4  and  C_5
REMARK    4  A    between atoms: C_9  and  C_11
REMARK    5  A    between atoms: C_12  and  C_13
REMARK    6  A    between atoms: C_12  and  C_15
REMARK    7  A    between atoms: N_17  and  C_18
REMARK    8  A    between atoms: C_21  and  N_25
REMARK                            x       y       z     vdW  Elec       q    Type
REMARK                         _______ _______ _______ _____ _____    ______ ____
ROOT
ATOM      1  C   UNL     1      -0.167   5.334   0.024  0.00  0.00    +0.032 C 
ATOM      2  C   UNL     1      -1.367   5.967   0.188  0.00  0.00    +0.114 C 
ENDROOT
BRANCH   1   7
ATOM      3  C   UNL     1      -1.084   1.746  -0.575  0.00  0.00    +0.132 A 
ATOM      4  C   UNL     1       0.012   1.097  -0.020  0.00  0.00    +0.046 A 
ATOM      5  C   UNL     1       1.040   1.825   0.551  0.00  0.00    +0.004 A 
ATOM      6  C   UNL     1       0.992   3.203   0.563  0.00  0.00    +0.008 A 
ATOM      7  C   UNL     1      -0.107   3.868   0.007  0.00  0.00    -0.020 A 
ATOM      8  C   UNL     1      -1.149   3.128  -0.564  0.00  0.00    +0.054 A 
BRANCH   3   9
ATOM      9  O   UNL     1      -2.093   1.023  -1.128  0.00  0.00    -0.426 OA
BRANCH   9  11
ATOM     10  C   UNL     1      -3.439   0.462  -3.121  0.00  0.00    +0.136 C 
ATOM     11  C   UNL     1      -2.270   1.139  -2.454  0.00  0.00    +0.309 C 
ATOM     12  O   UNL     1      -1.491   1.786  -3.113  0.00  0.00    -0.251 OA
ENDBRANCH   9  11
ENDBRANCH   3   9
ENDBRANCH   1   7
BRANCH   2  13
ATOM     13  C   UNL     1      -1.420   7.436   0.261  0.00  0.00    +0.259 C 
ATOM     14  O   UNL     1      -0.396   8.087   0.175  0.00  0.00    -0.269 OA
ATOM     15  N   UNL     1      -2.604   8.060   0.422  0.00  0.00    -0.280 N 
ATOM     16  H   UNL     1      -3.415   7.540   0.532  0.00  0.00    +0.155 HD
BRANCH  15  17
ATOM     17  C   UNL     1      -2.662   9.458   0.431  0.00  0.00    +0.048 A 
ATOM     18  C   UNL     1      -1.552  10.198   0.815  0.00  0.00    +0.026 A 
ATOM     19  C   UNL     1      -1.612  11.578   0.822  0.00  0.00    +0.034 A 
ATOM     20  C   UNL     1      -2.777  12.223   0.449  0.00  0.00    +0.127 A 
ATOM     21  C   UNL     1      -3.885  11.490   0.065  0.00  0.00    +0.049 A 
ATOM     22  C   UNL     1      -3.829  10.109   0.050  0.00  0.00    +0.041 A 
ATOM     23 BR   UNL     1      -5.342   9.106  -0.481  0.00  0.00    -0.048 Br
BRANCH  20  24
ATOM     24  N   UNL     1      -2.838  13.702   0.458  0.00  0.00    +0.056 N 
ATOM     25  O   UNL     1      -1.863  14.350   0.795  0.00  0.00    -0.126 OA
ATOM     26  O   UNL     1      -3.863  14.271   0.129  0.00  0.00    -0.126 OA
ENDBRANCH  20  24
ENDBRANCH  15  17
ENDBRANCH   2  13
BRANCH   2  27
ATOM     27  C   UNL     1      -2.573   5.201   0.289  0.00  0.00    +0.104 C 
ATOM     28  N   UNL     1      -3.529   4.593   0.369  0.00  0.00    -0.191 NA
ENDBRANCH   2  27
TORSDOF 7
