REMARK  Name = ZINC23432354
REMARK  6 active torsions:
REMARK  status: ('A' for Active; 'I' for Inactive)
REMARK    1  A    between atoms: C_1  and  C_2
REMARK    2  A    between atoms: C_2  and  C_4
REMARK    3  A    between atoms: C_2  and  S_17
REMARK    4  A    between atoms: N_6  and  C_7
REMARK    5  A    between atoms: C_12  and  N_13
REMARK    6  A    between atoms: S_17  and  C_18
REMARK                            x       y       z     vdW  Elec       q    Type
REMARK                         _______ _______ _______ _____ _____    ______ ____
ROOT
ATOM      1  C   UNL     1      -0.749   3.086   1.277  0.00  0.00    +0.230 C 
ATOM      2  O   UNL     1      -1.752   3.680   0.945  0.00  0.00    -0.274 OA
ATOM      3  N   UNL     1       0.344   3.772   1.666  0.00  0.00    -0.283 N 
ATOM      4  H   UNL     1       1.222   3.235   2.054  0.00  0.00    +0.155 HD
ENDROOT
BRANCH   3   5
ATOM      5  C   UNL     1       0.361   5.169   1.576  0.00  0.00    +0.064 A 
ATOM      6  C   UNL     1      -0.450   5.817   0.653  0.00  0.00    +0.027 A 
ATOM      7  C   UNL     1      -0.431   7.195   0.566  0.00  0.00    +0.022 A 
ATOM      8  C   UNL     1       0.396   7.931   1.397  0.00  0.00    +0.043 A 
ATOM      9  C   UNL     1       1.205   7.288   2.317  0.00  0.00    +0.054 A 
ATOM     10  C   UNL     1       1.186   5.910   2.412  0.00  0.00    +0.149 A 
ATOM     11 CL   UNL     1       0.417   9.663   1.285  0.00  0.00    -0.083 Cl
BRANCH  10  12
ATOM     12  N   UNL     1       2.047   5.223   3.401  0.00  0.00    +0.058 N 
ATOM     13  O   UNL     1       2.701   5.875   4.195  0.00  0.00    -0.126 OA
ATOM     14  O   UNL     1       2.100   4.007   3.421  0.00  0.00    -0.126 OA
ENDBRANCH  10  12
ENDBRANCH   3   5
BRANCH   1  16
ATOM     15  C   UNL     1      -0.017   1.099  -0.013  0.00  0.00    +0.029 C 
ATOM     16  C   UNL     1      -0.724   1.579   1.256  0.00  0.00    +0.137 C 
BRANCH  16  17
ATOM     17  S   UNL     1      -2.420   0.947   1.279  0.00  0.00    -0.074 S 
BRANCH  17  18
ATOM     18  C   UNL     1      -2.100  -0.781   1.401  0.00  0.00    +0.192 A 
ATOM     19  N   UNL     1      -0.920  -1.359   1.448  0.00  0.00    -0.122 NA
ATOM     20  N   UNL     1      -1.060  -2.635   1.545  0.00  0.00    -0.134 NA
ATOM     21  C   UNL     1      -2.324  -2.942   1.559  0.00  0.00    +0.134 A 
ATOM     22  N   UNL     1      -3.028  -1.776   1.457  0.00  0.00    -0.306 N 
ATOM     23  C   UNL     1      -4.483  -1.639   1.408  0.00  0.00    +0.125 C 
ATOM     24  C   UNL     1      -5.127  -2.810   2.157  0.00  0.00    +0.022 C 
ATOM     25  C   UNL     1      -5.356  -3.974   1.195  0.00  0.00    +0.002 C 
ATOM     26  C   UNL     1      -4.031  -4.469   0.624  0.00  0.00    +0.008 C 
ATOM     27  C   UNL     1      -2.928  -4.317   1.676  0.00  0.00    +0.076 C 
ENDBRANCH  17  18
ENDBRANCH  16  17
ENDBRANCH   1  16
TORSDOF 5
