REMARK  Name = ZINC37458319
REMARK  11 active torsions:
REMARK  status: ('A' for Active; 'I' for Inactive)
REMARK    1  A    between atoms: C_1  and  C_2
REMARK    2  A    between atoms: C_7  and  N_12
REMARK    3  A    between atoms: C_9  and  C_11
REMARK    4  A    between atoms: C_14  and  C_19
REMARK    5  A    between atoms: N_21  and  C_22
REMARK    6  A    between atoms: C_24  and  C_32
REMARK    7  A    between atoms: C_26  and  C_28
REMARK    8  A    between atoms: C_28  and  O_30
REMARK    9  A    between atoms: O_30  and  C_31
REMARK   10  A    between atoms: C_32  and  O_34
REMARK   11  A    between atoms: O_34  and  C_35
REMARK                            x       y       z     vdW  Elec       q    Type
REMARK                         _______ _______ _______ _____ _____    ______ ____
ROOT
ATOM      1  C   UNL     1       2.824  -0.167   6.659  0.00  0.00    +0.222 C 
ATOM      2  O   UNL     1       3.506   0.746   6.244  0.00  0.00    -0.275 OA
ATOM      3  N   UNL     1       3.203  -0.846   7.760  0.00  0.00    -0.285 N 
ATOM      4  H   UNL     1       2.625  -1.530   8.130  0.00  0.00    +0.155 HD
ENDROOT
BRANCH   1   7
ATOM      5  N   UNL     1       0.724  -0.501   3.693  0.00  0.00    -0.297 N 
ATOM      6  C   UNL     1       1.318   0.367   4.717  0.00  0.00    +0.121 C 
ATOM      7  C   UNL     1       1.551  -0.541   5.944  0.00  0.00    +0.101 C 
ATOM      8  C   UNL     1       1.675  -1.935   5.285  0.00  0.00    +0.110 C 
ATOM      9  C   UNL     1       0.910  -1.800   3.988  0.00  0.00    +0.217 C 
ATOM     10  O   UNL     1       0.522  -2.728   3.310  0.00  0.00    -0.276 OA
BRANCH   5  16
ATOM     11  C   UNL     1      -0.027   1.520   0.012  0.00  0.00    +0.008 C 
ATOM     12  C   UNL     1      -0.016  -0.010   0.009  0.00  0.00    -0.009 C 
ATOM     13  C   UNL     1      -1.455  -0.531   0.026  0.00  0.00    +0.003 C 
ATOM     14  C   UNL     1      -2.164  -0.029   1.285  0.00  0.00    +0.002 C 
ATOM     15  C   UNL     1      -1.423  -0.536   2.524  0.00  0.00    +0.023 C 
ATOM     16  C   UNL     1       0.015  -0.015   2.507  0.00  0.00    +0.079 C 
ATOM     17  C   UNL     1       0.725  -0.518   1.248  0.00  0.00    +0.009 C 
ATOM     18  C   UNL     1       2.163   0.003   1.231  0.00  0.00    +0.009 C 
ENDBRANCH   5  16
ENDBRANCH   1   7
BRANCH   3  19
ATOM     19  C   UNL     1       4.432  -0.562   8.367  0.00  0.00    +0.035 A 
ATOM     20  C   UNL     1       4.909   0.740   8.390  0.00  0.00    +0.038 A 
ATOM     21  C   UNL     1       6.134   1.026   8.996  0.00  0.00    +0.062 A 
ATOM     22  C   UNL     1       6.878   0.002   9.578  0.00  0.00    +0.030 A 
ATOM     23  C   UNL     1       6.396  -1.306   9.553  0.00  0.00    +0.062 A 
ATOM     24  C   UNL     1       5.168  -1.584   8.950  0.00  0.00    +0.038 A 
BRANCH  23  25
ATOM     25  C   UNL     1       7.181  -2.396  10.168  0.00  0.00    +0.339 C 
ATOM     26  O   UNL     1       6.761  -3.535  10.146  0.00  0.00    -0.245 OA
BRANCH  25  27
ATOM     27  O   UNL     1       8.364  -2.126  10.754  0.00  0.00    -0.464 OA
ATOM     28  C   UNL     1       9.070  -3.227  11.329  0.00  0.00    +0.280 C 
ENDBRANCH  25  27
ENDBRANCH  23  25
BRANCH  21  29
ATOM     29  C   UNL     1       6.641   2.414   9.020  0.00  0.00    +0.339 C 
ATOM     30  O   UNL     1       5.992   3.307   8.512  0.00  0.00    -0.245 OA
BRANCH  29  31
ATOM     31  O   UNL     1       7.823   2.689   9.605  0.00  0.00    -0.464 OA
ATOM     32  C   UNL     1       8.252   4.053   9.591  0.00  0.00    +0.280 C 
ENDBRANCH  29  31
ENDBRANCH  21  29
ENDBRANCH   3  19
TORSDOF 7
