REMARK  Name = ZINC21778519
REMARK  12 active torsions:
REMARK  status: ('A' for Active; 'I' for Inactive)
REMARK    1  A    between atoms: C_1  and  C_2
REMARK    2  A    between atoms: C_5  and  S_8
REMARK    3  A    between atoms: S_8  and  N_11
REMARK    4  A    between atoms: N_11  and  C_12
REMARK    5  A    between atoms: C_12  and  C_14
REMARK    6  A    between atoms: C_12  and  C_18
REMARK    7  A    between atoms: C_14  and  C_15
REMARK    8  A    between atoms: C_15  and  S_16
REMARK    9  A    between atoms: S_16  and  C_17
REMARK   10  A    between atoms: N_20  and  N_21
REMARK   11  A    between atoms: C_22  and  C_24
REMARK   12  A    between atoms: C_24  and  N_25
REMARK                            x       y       z     vdW  Elec       q    Type
REMARK                         _______ _______ _______ _____ _____    ______ ____
ROOT
ATOM      1  C   UNL     1      -1.820   2.228   0.169  0.00  0.00    +0.248 C 
ATOM      2  O   UNL     1      -2.934   1.749   0.177  0.00  0.00    -0.273 OA
ATOM      3  N   UNL     1      -0.741   1.423   0.114  0.00  0.00    -0.233 N 
ATOM      4  H   UNL     1       0.270   1.858   0.106  0.00  0.00    +0.173 HD
ENDROOT
BRANCH   3   5
ATOM      5  N   UNL     1      -0.905   0.033   0.067  0.00  0.00    -0.233 N 
ATOM      6  C   UNL     1       0.174  -0.772   0.007  0.00  0.00    +0.246 C 
ATOM      7  O   UNL     1       1.288  -0.293  -0.006  0.00  0.00    -0.273 OA
ATOM      8  H   UNL     1      -1.916  -0.402   0.079  0.00  0.00    +0.173 HD
BRANCH   6   9
ATOM      9  C   UNL     1      -0.003  -2.268  -0.043  0.00  0.00    +0.202 C 
BRANCH   9  10
ATOM     10  N   UNL     1       1.304  -2.910  -0.235  0.00  0.00    -0.321 N 
ATOM     11  C   UNL     1       2.129  -2.790   0.969  0.00  0.00    +0.106 C 
ATOM     12  C   UNL     1       3.488  -3.450   0.701  0.00  0.00    +0.024 C 
ATOM     13  C   UNL     1       4.230  -2.597  -0.331  0.00  0.00    +0.038 C 
ATOM     14  C   UNL     1       3.306  -2.268  -1.476  0.00  0.00    -0.026 A 
ATOM     15  C   UNL     1       1.934  -2.427  -1.381  0.00  0.00    +0.033 A 
ATOM     16  C   UNL     1       1.129  -2.097  -2.473  0.00  0.00    +0.023 A 
ATOM     17  C   UNL     1       1.693  -1.621  -3.637  0.00  0.00    +0.002 A 
ATOM     18  C   UNL     1       3.064  -1.469  -3.728  0.00  0.00    +0.000 A 
ATOM     19  C   UNL     1       3.866  -1.791  -2.651  0.00  0.00    +0.005 A 
ENDBRANCH   9  10
ENDBRANCH   6   9
ENDBRANCH   3   5
BRANCH   1  20
ATOM     20  C   UNL     1      -1.643   3.724   0.219  0.00  0.00    +0.164 C 
BRANCH  20  21
ATOM     21  N   UNL     1      -2.957   4.370   0.274  0.00  0.00    -0.178 NA
ATOM     22  H   UNL     1      -3.671   4.098   1.065  0.00  0.00    +0.149 HD
BRANCH  21  23
ATOM     23  S   UNL     1      -3.465   5.319  -0.985  0.00  0.00    +0.059 S 
ATOM     24  O   UNL     1      -4.774   5.764  -0.654  0.00  0.00    -0.153 OA
ATOM     25  O   UNL     1      -2.403   6.219  -1.269  0.00  0.00    -0.153 OA
BRANCH  23  30
ATOM     26  C   UNL     1      -4.030   1.737  -5.807  0.00  0.00    +0.044 C 
ATOM     27  C   UNL     1      -3.889   2.632  -4.603  0.00  0.00    -0.050 A 
ATOM     28  C   UNL     1      -4.964   2.823  -3.754  0.00  0.00    +0.005 A 
ATOM     29  C   UNL     1      -4.834   3.644  -2.650  0.00  0.00    +0.029 A 
ATOM     30  C   UNL     1      -3.630   4.273  -2.393  0.00  0.00    +0.105 A 
ATOM     31  C   UNL     1      -2.557   4.085  -3.244  0.00  0.00    +0.029 A 
ATOM     32  C   UNL     1      -2.686   3.261  -4.347  0.00  0.00    +0.005 A 
ENDBRANCH  23  30
ENDBRANCH  21  23
ENDBRANCH  20  21
BRANCH  20  33
ATOM     33  C   UNL     1      -0.838   4.100   1.465  0.00  0.00    +0.040 C 
BRANCH  33  34
ATOM     34  C   UNL     1      -0.587   5.609   1.473  0.00  0.00    +0.071 C 
BRANCH  34  35
ATOM     35  S   UNL     1       0.492   6.035   2.868  0.00  0.00    -0.164 S 
ATOM     36  C   UNL     1       0.689   7.834   2.737  0.00  0.00    +0.084 C 
ENDBRANCH  34  35
ENDBRANCH  33  34
ENDBRANCH  20  33
ENDBRANCH   1  20
TORSDOF 10
