REMARK  Name = ZINC39685149
REMARK  6 active torsions:
REMARK  status: ('A' for Active; 'I' for Inactive)
REMARK    1  A    between atoms: C_5  and  O_7
REMARK    2  A    between atoms: O_7  and  C_8
REMARK    3  A    between atoms: C_8  and  C_9
REMARK    4  A    between atoms: C_9  and  N_10
REMARK    5  A    between atoms: C_11  and  C_13
REMARK    6  A    between atoms: C_24  and  C_26
REMARK                            x       y       z     vdW  Elec       q    Type
REMARK                         _______ _______ _______ _____ _____    ______ ____
ROOT
ATOM      1  C   UNL     1       1.608  -6.494   3.250  0.00  0.00    +0.100 C 
ATOM      2  C   UNL     1       3.007  -5.855   3.094  0.00  0.00    +0.121 C 
ATOM      3  N   UNL     1       3.949  -6.901   3.557  0.00  0.00    -0.296 N 
ATOM      4  C   UNL     1       3.383  -8.166   3.032  0.00  0.00    +0.115 C 
ATOM      5  C   UNL     1       1.860  -8.010   3.208  0.00  0.00    -0.004 C 
ATOM      6  C   UNL     1       1.411  -8.657   4.515  0.00  0.00    -0.010 C 
ATOM      7  C   UNL     1       1.618 -10.171   4.427  0.00  0.00    -0.082 C 
ATOM      8  N   UNL     1       0.845 -10.709   3.301  0.00  0.00    +0.379 N 
ATOM      9  C   UNL     1       1.345 -10.151   2.039  0.00  0.00    -0.082 C 
ATOM     10  C   UNL     1       1.126  -8.636   2.025  0.00  0.00    -0.010 C 
ATOM     11  C   UNL     1       5.069  -6.738   4.290  0.00  0.00    +0.249 C 
ATOM     12  O   UNL     1       5.793  -7.689   4.513  0.00  0.00    -0.270 OA
ATOM     13  H   UNL     1       0.934 -11.713   3.282  0.00  0.00    -0.086 HD
ATOM     14  H   UNL     1      -0.127 -10.462   3.414  0.00  0.00    -0.086 HD
ENDROOT
BRANCH  11  15
ATOM     15  C   UNL     1       5.415  -5.404   4.822  0.00  0.00    +0.073 A 
ATOM     16  C   UNL     1       5.123  -4.256   4.083  0.00  0.00    +0.036 A 
ATOM     17  C   UNL     1       5.449  -3.014   4.586  0.00  0.00    +0.042 A 
ATOM     18  C   UNL     1       6.065  -2.902   5.822  0.00  0.00    +0.023 A 
ATOM     19  C   UNL     1       6.358  -4.033   6.561  0.00  0.00    +0.040 A 
ATOM     20  C   UNL     1       6.032  -5.285   6.071  0.00  0.00    +0.136 A 
ATOM     21  F   UNL     1       6.314  -6.390   6.796  0.00  0.00    -0.205 F 
ATOM     22 CL   UNL     1       5.087  -1.586   3.668  0.00  0.00    -0.084 Cl
ENDBRANCH  11  15
BRANCH   1  24
ATOM     23  N   UNL     1      -0.620  -6.001   2.296  0.00  0.00    -0.312 N 
ATOM     24  C   UNL     1       0.712  -6.079   2.111  0.00  0.00    +0.218 C 
ATOM     25  O   UNL     1       1.191  -5.814   1.029  0.00  0.00    -0.275 OA
ATOM     26  H   UNL     1      -1.003  -6.213   3.162  0.00  0.00    +0.149 HD
BRANCH  23  27
ATOM     27  C   UNL     1      -1.491  -5.598   1.190  0.00  0.00    +0.145 C 
BRANCH  27  28
ATOM     28  C   UNL     1      -2.947  -5.591   1.662  0.00  0.00    +0.248 C 
BRANCH  28  29
ATOM     29  O   UNL     1      -3.118  -4.586   2.664  0.00  0.00    -0.488 OA
BRANCH  29  34
ATOM     30  C   UNL     1      -6.661  -5.119   3.296  0.00  0.00    +0.004 A 
ATOM     31  C   UNL     1      -6.896  -4.166   4.270  0.00  0.00    +0.003 A 
ATOM     32  C   UNL     1      -5.868  -3.353   4.707  0.00  0.00    +0.042 A 
ATOM     33  C   UNL     1      -4.600  -3.491   4.171  0.00  0.00    +0.165 A 
ATOM     34  C   UNL     1      -4.362  -4.448   3.193  0.00  0.00    +0.156 A 
ATOM     35  C   UNL     1      -5.397  -5.262   2.757  0.00  0.00    +0.048 A 
ATOM     36  F   UNL     1      -3.595  -2.695   4.597  0.00  0.00    -0.202 F 
ENDBRANCH  29  34
ENDBRANCH  28  29
ENDBRANCH  27  28
ENDBRANCH  23  27
ENDBRANCH   1  24
TORSDOF 6
