REMARK  Name = ZINC03281648
REMARK  9 active torsions:
REMARK  status: ('A' for Active; 'I' for Inactive)
REMARK    1  A    between atoms: C_1  and  N_2
REMARK    2  A    between atoms: C_6  and  S_7
REMARK    3  A    between atoms: S_7  and  C_8
REMARK    4  A    between atoms: C_8  and  C_9
REMARK    5  A    between atoms: C_12  and  C_15
REMARK    6  A    between atoms: N_17  and  N_18
REMARK    7  A    between atoms: N_18  and  C_19
REMARK    8  A    between atoms: C_19  and  C_21
REMARK    9  A    between atoms: C_25  and  N_27
REMARK                            x       y       z     vdW  Elec       q    Type
REMARK                         _______ _______ _______ _____ _____    ______ ____
ROOT
ATOM      1  C   UNL     1       2.626   7.785   0.019  0.00  0.00    +0.260 C 
ATOM      2  O   UNL     1       2.727   8.380   1.074  0.00  0.00    -0.269 OA
ATOM      3  N   UNL     1       2.716   8.457  -1.146  0.00  0.00    -0.232 N 
ATOM      4  H   UNL     1       2.635   7.982  -1.988  0.00  0.00    +0.173 HD
ENDROOT
BRANCH   1   8
ATOM      5  C   UNL     1       1.984   3.586   0.002  0.00  0.00    -0.037 A 
ATOM      6  C   UNL     1       2.082   4.272  -1.195  0.00  0.00    +0.005 A 
ATOM      7  C   UNL     1       2.285   5.637  -1.197  0.00  0.00    +0.013 A 
ATOM      8  C   UNL     1       2.402   6.323   0.013  0.00  0.00    +0.038 A 
ATOM      9  C   UNL     1       2.308   5.624   1.217  0.00  0.00    +0.013 A 
ATOM     10  C   UNL     1       2.099   4.260   1.205  0.00  0.00    +0.005 A 
BRANCH   5  11
ATOM     11  C   UNL     1       1.756   2.096  -0.004  0.00  0.00    +0.112 C 
BRANCH  11  12
ATOM     12  S   UNL     1      -0.022   1.758   0.012  0.00  0.00    -0.081 S 
BRANCH  12  18
ATOM     13  C   UNL     1      -2.495  -0.437   0.036  0.00  0.00    +0.152 C 
ATOM     14  N   UNL     1      -1.085  -0.831   0.013  0.00  0.00    -0.312 N 
ATOM     15  C   UNL     1      -0.582  -2.103  -0.004  0.00  0.00    +0.225 A 
ATOM     16  N   UNL     1       0.717  -2.007  -0.015  0.00  0.00    -0.137 NA
ATOM     17  N   UNL     1       1.068  -0.770  -0.012  0.00  0.00    -0.123 NA
ATOM     18  C   UNL     1       0.002  -0.004   0.002  0.00  0.00    +0.191 A 
ENDBRANCH  12  18
ENDBRANCH  11  12
ENDBRANCH   5  11
ENDBRANCH   1   8
BRANCH   3  19
ATOM     19  N   UNL     1       2.928   9.842  -1.140  0.00  0.00    -0.264 N 
ATOM     20  H   UNL     1       3.009  10.317  -0.298  0.00  0.00    +0.170 HD
BRANCH  19  21
ATOM     21  C   UNL     1       3.022  10.538  -2.346  0.00  0.00    +0.045 C 
ATOM     22  C   UNL     1       2.910   9.885  -3.503  0.00  0.00    +0.035 C 
BRANCH  21  23
ATOM     23  C   UNL     1       3.245  12.002  -2.340  0.00  0.00    -0.001 A 
ATOM     24  C   UNL     1       3.356  12.689  -1.131  0.00  0.00    +0.011 A 
ATOM     25  C   UNL     1       3.569  14.052  -1.131  0.00  0.00    +0.023 A 
ATOM     26  C   UNL     1       3.662  14.740  -2.329  0.00  0.00    +0.071 A 
ATOM     27  C   UNL     1       3.547  14.065  -3.532  0.00  0.00    +0.145 A 
ATOM     28  C   UNL     1       3.339  12.701  -3.543  0.00  0.00    +0.044 A 
ATOM     29 CL   UNL     1       3.923  16.456  -2.323  0.00  0.00    -0.081 Cl
BRANCH  27  30
ATOM     30  N   UNL     1       3.647  14.807  -4.809  0.00  0.00    +0.058 N 
ATOM     31  O   UNL     1       3.547  14.214  -5.868  0.00  0.00    -0.126 OA
ATOM     32  O   UNL     1       3.831  16.011  -4.801  0.00  0.00    -0.126 OA
ENDBRANCH  27  30
ENDBRANCH  21  23
ENDBRANCH  19  21
ENDBRANCH   3  19
TORSDOF 8
