REMARK  Name = ZINC09953389
REMARK  12 active torsions:
REMARK  status: ('A' for Active; 'I' for Inactive)
REMARK    1  A    between atoms: C_1  and  C_2
REMARK    2  A    between atoms: C_2  and  C_3
REMARK    3  A    between atoms: C_3  and  C_4
REMARK    4  A    between atoms: C_4  and  N_5
REMARK    5  A    between atoms: C_6  and  N_34
REMARK    6  A    between atoms: C_7  and  N_14
REMARK    7  A    between atoms: N_14  and  C_15
REMARK    8  A    between atoms: C_15  and  C_16
REMARK    9  A    between atoms: C_17  and  C_19
REMARK   10  A    between atoms: N_24  and  C_26
REMARK   11  A    between atoms: C_29  and  C_32
REMARK   12  A    between atoms: C_32  and  C_33
REMARK                            x       y       z     vdW  Elec       q    Type
REMARK                         _______ _______ _______ _____ _____    ______ ____
ROOT
ATOM      1  N   UNL     1      -3.329   0.469   3.607  0.00  0.00    -0.264 N 
ATOM      2  C   UNL     1      -4.055   1.006   4.609  0.00  0.00    +0.225 C 
ATOM      3  O   UNL     1      -5.029   0.421   5.035  0.00  0.00    -0.275 OA
ENDROOT
BRANCH   1   6
ATOM      4  N   UNL     1      -1.312   2.420   1.236  0.00  0.00    -0.280 N 
ATOM      5  C   UNL     1      -2.368   1.713   1.763  0.00  0.00    +0.127 A 
ATOM      6  C   UNL     1      -2.263   1.197   3.038  0.00  0.00    +0.140 A 
ATOM      7  C   UNL     1      -1.075   1.410   3.762  0.00  0.00    +0.277 A 
ATOM      8  O   UNL     1      -0.956   0.965   4.891  0.00  0.00    -0.266 OA
ATOM      9  N   UNL     1      -0.070   2.110   3.199  0.00  0.00    -0.273 N 
ATOM     10  H   UNL     1       0.773   2.265   3.714  0.00  0.00    +0.173 HD
ATOM     11  C   UNL     1      -0.188   2.601   1.953  0.00  0.00    +0.331 A 
ATOM     12  O   UNL     1       0.736   3.224   1.467  0.00  0.00    -0.246 OA
BRANCH   5  13
ATOM     13  N   UNL     1      -3.514   1.524   1.028  0.00  0.00    -0.343 N 
ATOM     14  H   UNL     1      -3.612   1.953   0.163  0.00  0.00    +0.144 HD
ATOM     15  H   UNL     1      -4.224   0.962   1.374  0.00  0.00    +0.144 HD
ENDBRANCH   5  13
BRANCH   4  16
ATOM     16  C   UNL     1      -1.409   2.973  -0.118  0.00  0.00    +0.128 C 
BRANCH  16  17
ATOM     17  C   UNL     1      -1.990   4.386  -0.050  0.00  0.00    +0.021 C 
BRANCH  17  19
ATOM     18  C   UNL     1      -2.673   6.378  -1.396  0.00  0.00    +0.004 C 
ATOM     19  C   UNL     1      -2.092   4.964  -1.463  0.00  0.00    -0.002 C 
ENDBRANCH  17  19
ENDBRANCH  16  17
ENDBRANCH   4  16
ENDBRANCH   1   6
BRANCH   2  20
ATOM     20  C   UNL     1      -3.655   2.333   5.201  0.00  0.00    +0.102 C 
ATOM     21  C   UNL     1      -4.041   3.498   4.260  0.00  0.00    +0.110 C 
ATOM     22  C   UNL     1      -5.406   3.932   4.749  0.00  0.00    +0.221 C 
ATOM     23  O   UNL     1      -6.180   4.624   4.122  0.00  0.00    -0.275 OA
ATOM     24  N   UNL     1      -5.635   3.441   5.979  0.00  0.00    -0.271 N 
ATOM     25  C   UNL     1      -4.493   2.653   6.459  0.00  0.00    +0.127 C 
BRANCH  24  26
ATOM     26  C   UNL     1      -6.810   3.653   6.707  0.00  0.00    +0.036 A 
ATOM     27  C   UNL     1      -7.873   4.336   6.131  0.00  0.00    +0.024 A 
ATOM     28  C   UNL     1      -9.033   4.540   6.851  0.00  0.00    +0.005 A 
ATOM     29  C   UNL     1      -9.134   4.073   8.149  0.00  0.00    -0.048 A 
ATOM     30  C   UNL     1      -8.076   3.397   8.728  0.00  0.00    +0.005 A 
ATOM     31  C   UNL     1      -6.914   3.186   8.011  0.00  0.00    +0.024 A 
BRANCH  29  32
ATOM     32  C   UNL     1     -10.400   4.302   8.934  0.00  0.00    +0.032 C 
ATOM     33  C   UNL     1     -10.299   5.628   9.689  0.00  0.00    +0.009 C 
ENDBRANCH  29  32
ENDBRANCH  24  26
ENDBRANCH   2  20
BRANCH   1  34
ATOM     34  C   UNL     1      -3.649  -0.872   3.109  0.00  0.00    +0.110 C 
ATOM     35  C   UNL     1      -2.952  -1.919   3.980  0.00  0.00    +0.025 C 
ENDBRANCH   1  34
TORSDOF 9
