REMARK  Name = ZINC38696306
REMARK  10 active torsions:
REMARK  status: ('A' for Active; 'I' for Inactive)
REMARK    1  A    between atoms: C_1  and  C_2
REMARK    2  A    between atoms: N_5  and  C_8
REMARK    3  A    between atoms: C_8  and  C_10
REMARK    4  A    between atoms: C_8  and  C_11
REMARK    5  A    between atoms: N_13  and  C_14
REMARK    6  A    between atoms: C_18  and  C_20
REMARK    7  A    between atoms: C_20  and  O_22
REMARK    8  A    between atoms: O_22  and  C_23
REMARK    9  A    between atoms: C_27  and  O_28
REMARK   10  A    between atoms: O_28  and  C_29
REMARK                            x       y       z     vdW  Elec       q    Type
REMARK                         _______ _______ _______ _____ _____    ______ ____
ROOT
ATOM      1  C   UNL     1       1.292  -6.471   4.173  0.00  0.00    +0.056 C 
ATOM      2  C   UNL     1       1.550  -7.542   5.004  0.00  0.00    +0.059 A 
ATOM      3  C   UNL     1       1.988  -7.033   6.316  0.00  0.00    +0.048 A 
ATOM      4  N   UNL     1       2.005  -5.714   6.314  0.00  0.00    -0.367 N 
ATOM      5  C   UNL     1       1.585  -5.234   4.993  0.00  0.00    +0.234 C 
ATOM      6  C   UNL     1       2.307  -7.975   7.324  0.00  0.00    +0.026 A 
ATOM      7  C   UNL     1       2.209  -9.305   7.079  0.00  0.00    +0.006 A 
ATOM      8  C   UNL     1       1.798  -9.814   5.850  0.00  0.00    +0.046 A 
ATOM      9  C   UNL     1       1.468  -8.991   4.812  0.00  0.00    +0.131 A 
ATOM     10  H   UNL     1       2.259  -5.152   7.063  0.00  0.00    +0.161 HD
ENDROOT
BRANCH   1  13
ATOM     11  C   UNL     1       0.526  -5.381   2.240  0.00  0.00    +0.203 C 
ATOM     12  O   UNL     1       0.671  -4.310   2.789  0.00  0.00    -0.277 OA
ATOM     13  N   UNL     1       0.866  -6.518   2.879  0.00  0.00    -0.287 N 
ATOM     14  H   UNL     1       0.808  -7.369   2.418  0.00  0.00    +0.155 HD
BRANCH  11  15
ATOM     15  C   UNL     1      -0.035  -5.441   0.843  0.00  0.00    +0.016 C 
ATOM     16  C   UNL     1      -1.527  -5.774   0.906  0.00  0.00    -0.004 C 
BRANCH  15  21
ATOM     17  C   UNL     1       1.264  -1.017  -2.513  0.00  0.00    +0.007 C 
ATOM     18  C   UNL     1       1.141  -2.425  -1.929  0.00  0.00    -0.018 C 
ATOM     19  C   UNL     1      -0.338  -2.804  -1.811  0.00  0.00    -0.015 C 
ATOM     20  C   UNL     1      -0.455  -4.181  -1.152  0.00  0.00    -0.078 C 
ATOM     21  N   UNL     1       0.149  -4.141   0.185  0.00  0.00    +0.387 N 
ATOM     22  C   UNL     1       1.583  -3.849   0.074  0.00  0.00    -0.078 C 
ATOM     23  C   UNL     1       1.780  -2.459  -0.537  0.00  0.00    -0.015 C 
ATOM     24  H   UNL     1      -0.298  -3.422   0.734  0.00  0.00    -0.081 HD
ENDBRANCH  15  21
ENDBRANCH  11  15
ENDBRANCH   1  13
BRANCH   5  25
ATOM     25  C   UNL     1       2.691  -4.436   4.351  0.00  0.00    +0.335 C 
ATOM     26  O   UNL     1       3.828  -4.842   4.387  0.00  0.00    -0.248 OA
BRANCH  25  27
ATOM     27  O   UNL     1       2.412  -3.273   3.741  0.00  0.00    -0.466 OA
ATOM     28  C   UNL     1       3.509  -2.569   3.154  0.00  0.00    +0.280 C 
ENDBRANCH  25  27
ENDBRANCH   5  25
BRANCH   9  29
ATOM     29  O   UNL     1       1.071  -9.507   3.623  0.00  0.00    -0.494 OA
ATOM     30  C   UNL     1       1.017 -10.931   3.519  0.00  0.00    +0.277 C 
ENDBRANCH   9  29
TORSDOF 6
