REMARK  Name = ZINC09961131
REMARK  11 active torsions:
REMARK  status: ('A' for Active; 'I' for Inactive)
REMARK    1  A    between atoms: C_1  and  C_2
REMARK    2  A    between atoms: C_2  and  C_26
REMARK    3  A    between atoms: N_5  and  C_9
REMARK    4  A    between atoms: C_9  and  C_10
REMARK    5  A    between atoms: N_12  and  C_13
REMARK    6  A    between atoms: C_15  and  S_20
REMARK    7  A    between atoms: S_20  and  N_23
REMARK    8  A    between atoms: N_23  and  C_24
REMARK    9  A    between atoms: N_23  and  C_25
REMARK   10  A    between atoms: C_29  and  O_32
REMARK   11  A    between atoms: O_32  and  C_33
REMARK                            x       y       z     vdW  Elec       q    Type
REMARK                         _______ _______ _______ _____ _____    ______ ____
ROOT
ATOM      1  C   UNL     1       1.185  -2.163  -0.236  0.00  0.00    +0.214 C 
ENDROOT
BRANCH   1   6
ATOM      2  C   UNL     1       4.976  -4.848   0.460  0.00  0.00    +0.047 C 
ATOM      3  C   UNL     1       4.673  -3.389   0.113  0.00  0.00    +0.135 C 
ATOM      4  C   UNL     1       3.342  -2.966   0.702  0.00  0.00    +0.251 C 
ATOM      5  O   UNL     1       3.039  -2.932   1.876  0.00  0.00    -0.272 OA
ATOM      6  N   UNL     1       2.568  -2.633  -0.349  0.00  0.00    -0.215 N 
ATOM      7  C   UNL     1       3.216  -2.791  -1.509  0.00  0.00    +0.310 C 
ATOM      8  O   UNL     1       2.722  -2.559  -2.595  0.00  0.00    -0.252 OA
ATOM      9  N   UNL     1       4.475  -3.231  -1.338  0.00  0.00    -0.281 N 
ATOM     10  H   UNL     1       5.125  -3.413  -2.035  0.00  0.00    +0.152 HD
BRANCH   3  11
ATOM     11  C   UNL     1       5.779  -2.487   0.598  0.00  0.00    -0.015 A 
ATOM     12  C   UNL     1       5.687  -1.890   1.842  0.00  0.00    +0.010 A 
ATOM     13  C   UNL     1       6.702  -1.068   2.292  0.00  0.00    +0.046 A 
ATOM     14  C   UNL     1       7.809  -0.832   1.489  0.00  0.00    +0.120 A 
ATOM     15  C   UNL     1       7.896  -1.427   0.239  0.00  0.00    +0.046 A 
ATOM     16  C   UNL     1       6.881  -2.254  -0.203  0.00  0.00    +0.010 A 
BRANCH  14  17
ATOM     17  O   UNL     1       8.805  -0.018   1.926  0.00  0.00    -0.495 OA
ATOM     18  C   UNL     1       8.648   0.561   3.223  0.00  0.00    +0.277 C 
ENDBRANCH  14  17
ENDBRANCH   3  11
ENDBRANCH   1   6
BRANCH   1  19
ATOM     19  C   UNL     1       1.173  -0.661  -0.114  0.00  0.00    +0.235 C 
ATOM     20  O   UNL     1       2.217  -0.044  -0.121  0.00  0.00    -0.274 OA
ATOM     21  N   UNL     1       0.002  -0.004   0.002  0.00  0.00    -0.283 N 
ATOM     22  H   UNL     1      -0.827  -0.501   0.088  0.00  0.00    +0.155 HD
BRANCH  21  23
ATOM     23  C   UNL     1      -0.018   1.396  -0.001  0.00  0.00    +0.054 A 
ATOM     24  C   UNL     1       1.006   2.105  -0.615  0.00  0.00    +0.053 A 
ATOM     25  C   UNL     1       0.983   3.486  -0.617  0.00  0.00    +0.107 A 
ATOM     26  C   UNL     1      -0.058   4.163  -0.009  0.00  0.00    +0.030 A 
ATOM     27  C   UNL     1      -1.079   3.461   0.604  0.00  0.00    +0.024 A 
ATOM     28  C   UNL     1      -1.065   2.078   0.605  0.00  0.00    +0.062 A 
ATOM     29 CL   UNL     1      -2.352   1.197   1.367  0.00  0.00    -0.082 Cl
BRANCH  25  30
ATOM     30  S   UNL     1       2.282   4.386  -1.396  0.00  0.00    +0.060 S 
ATOM     31  O   UNL     1       2.310   5.669  -0.786  0.00  0.00    -0.153 OA
ATOM     32  O   UNL     1       3.415   3.528  -1.417  0.00  0.00    -0.153 OA
BRANCH  30  33
ATOM     33  N   UNL     1       1.837   4.621  -2.974  0.00  0.00    -0.183 NA
ATOM     34  C   UNL     1       1.078   5.816  -3.350  0.00  0.00    +0.131 C 
ATOM     35  C   UNL     1       2.204   3.635  -3.993  0.00  0.00    +0.131 C 
ENDBRANCH  30  33
ENDBRANCH  25  30
ENDBRANCH  21  23
ENDBRANCH   1  19
TORSDOF 7
