REMARK  Name = ZINC28717739
REMARK  3 active torsions:
REMARK  status: ('A' for Active; 'I' for Inactive)
REMARK    1  A    between atoms: C_6  and  C_7
REMARK    2  A    between atoms: N_9  and  N_10
REMARK    3  A    between atoms: C_11  and  C_13
REMARK                            x       y       z     vdW  Elec       q    Type
REMARK                         _______ _______ _______ _____ _____    ______ ____
ROOT
ATOM      1  C   UNL     1       2.369   1.025  -0.015  0.00  0.00    +0.276 C 
ATOM      2  O   UNL     1       2.385  -0.192  -0.022  0.00  0.00    -0.267 OA
ATOM      3  N   UNL     1       1.193   1.683  -0.000  0.00  0.00    -0.229 N 
ATOM      4  H   UNL     1       1.178   2.783   0.006  0.00  0.00    +0.173 HD
ENDROOT
BRANCH   1  10
ATOM      5  C   UNL     1       4.898   1.237  -0.032  0.00  0.00    +0.047 A 
ATOM      6  C   UNL     1       5.799   2.307  -0.040  0.00  0.00    +0.036 A 
ATOM      7  C   UNL     1       5.080   3.455  -0.027  0.00  0.00    +0.098 A 
ATOM      8  N   UNL     1       3.760   3.146  -0.017  0.00  0.00    -0.356 N 
ATOM      9  H   UNL     1       3.006   3.947  -0.006  0.00  0.00    +0.166 HD
ATOM     10  C   UNL     1       3.629   1.775  -0.023  0.00  0.00    +0.104 A 
ATOM     11 BR   UNL     1       7.685   2.175  -0.059  0.00  0.00    -0.049 Br
ENDBRANCH   1  10
BRANCH   3  12
ATOM     12  N   UNL     1      -0.011   0.966   0.007  0.00  0.00    -0.230 N 
ATOM     13  C   UNL     1      -1.187   1.624   0.017  0.00  0.00    +0.267 C 
ATOM     14  O   UNL     1      -1.204   2.841   0.023  0.00  0.00    -0.268 OA
ATOM     15  H   UNL     1       0.004  -0.134   0.006  0.00  0.00    +0.173 HD
BRANCH  13  16
ATOM     16  C   UNL     1      -2.446   0.874   0.018  0.00  0.00    +0.077 A 
ATOM     17  C   UNL     1      -3.748   1.352   0.027  0.00  0.00    +0.037 A 
ATOM     18  C   UNL     1      -4.755   0.421   0.026  0.00  0.00    +0.040 A 
ATOM     19  C   UNL     1      -4.436  -0.902   0.017  0.00  0.00    +0.070 A 
ATOM     20  S   UNL     1      -2.703  -0.891   0.002  0.00  0.00    -0.076 S 
ATOM     21 BR   UNL     1      -5.602  -2.392   0.013  0.00  0.00    -0.041 Br
ATOM     22 BR   UNL     1      -6.565   0.969   0.037  0.00  0.00    -0.049 Br
ENDBRANCH  13  16
ENDBRANCH   3  12
TORSDOF 3
