REMARK  Name = ZINC36066201
REMARK  11 active torsions:
REMARK  status: ('A' for Active; 'I' for Inactive)
REMARK    1  A    between atoms: C_1  and  C_2
REMARK    2  A    between atoms: C_7  and  N_12
REMARK    3  A    between atoms: C_9  and  C_11
REMARK    4  A    between atoms: C_13  and  C_15
REMARK    5  A    between atoms: C_23  and  C_35
REMARK    6  A    between atoms: N_29  and  C_30
REMARK    7  A    between atoms: C_30  and  C_31
REMARK    8  A    between atoms: C_31  and  C_32
REMARK    9  A    between atoms: C_32  and  O_33
REMARK   10  A    between atoms: O_33  and  C_34
REMARK   11  A    between atoms: N_37  and  C_38
REMARK                            x       y       z     vdW  Elec       q    Type
REMARK                         _______ _______ _______ _____ _____    ______ ____
ROOT
ATOM      1  C   UNL     1       2.966  -3.854   2.912  0.00  0.00    +0.198 C 
ATOM      2  C   UNL     1       4.403  -3.548   3.200  0.00  0.00    +0.127 C 
ATOM      3  C   UNL     1       5.327  -3.928   2.057  0.00  0.00    +0.009 C 
ATOM      4  C   UNL     1       6.546  -3.592   2.454  0.00  0.00    +0.004 C 
ATOM      5  C   UNL     1       6.367  -3.057   3.880  0.00  0.00    +0.155 C 
ATOM      6  O   UNL     1       5.021  -2.427   3.788  0.00  0.00    -0.358 OA
ATOM      7  C   UNL     1       6.081  -4.377   4.696  0.00  0.00    +0.123 C 
ATOM      8  C   UNL     1       4.601  -4.586   4.376  0.00  0.00    +0.128 C 
ATOM      9  C   UNL     1       3.987  -5.784   3.775  0.00  0.00    +0.223 C 
ATOM     10  O   UNL     1       4.332  -6.934   3.944  0.00  0.00    -0.275 OA
ATOM     11  N   UNL     1       2.947  -5.349   2.988  0.00  0.00    -0.286 N 
ENDROOT
BRANCH   1  13
ATOM     12  N   UNL     1       2.012  -2.168   1.375  0.00  0.00    -0.311 N 
ATOM     13  C   UNL     1       2.579  -3.380   1.535  0.00  0.00    +0.237 C 
ATOM     14  O   UNL     1       2.779  -4.088   0.572  0.00  0.00    -0.274 OA
ATOM     15  H   UNL     1       1.852  -1.601   2.146  0.00  0.00    +0.149 HD
BRANCH  12  21
ATOM     16  C   UNL     1       1.201   1.835  -1.412  0.00  0.00    +0.008 C 
ATOM     17  C   UNL     1       1.222   0.305  -1.387  0.00  0.00    -0.009 C 
ATOM     18  C   UNL     1      -0.168  -0.230  -1.739  0.00  0.00    +0.003 C 
ATOM     19  C   UNL     1      -0.147  -1.759  -1.714  0.00  0.00    +0.002 C 
ATOM     20  C   UNL     1       0.246  -2.241  -0.316  0.00  0.00    +0.022 C 
ATOM     21  C   UNL     1       1.636  -1.706   0.036  0.00  0.00    +0.076 C 
ATOM     22  C   UNL     1       1.615  -0.177   0.011  0.00  0.00    +0.009 C 
ATOM     23  C   UNL     1       0.597   0.336   1.032  0.00  0.00    +0.009 C 
ENDBRANCH  12  21
ENDBRANCH   1  13
BRANCH   7  24
ATOM     24  C   UNL     1       6.928  -5.518   4.194  0.00  0.00    +0.224 C 
ATOM     25  O   UNL     1       6.401  -6.508   3.734  0.00  0.00    -0.275 OA
ATOM     26  N   UNL     1       8.272  -5.437   4.256  0.00  0.00    -0.285 N 
ATOM     27  H   UNL     1       8.696  -4.617   4.554  0.00  0.00    +0.155 HD
BRANCH  26  28
ATOM     28  C   UNL     1       9.057  -6.537   3.892  0.00  0.00    +0.033 A 
ATOM     29  C   UNL     1      10.298  -6.341   3.299  0.00  0.00    +0.025 A 
ATOM     30  C   UNL     1      11.070  -7.428   2.940  0.00  0.00    +0.022 A 
ATOM     31  C   UNL     1      10.609  -8.712   3.171  0.00  0.00    +0.041 A 
ATOM     32  C   UNL     1       9.373  -8.911   3.762  0.00  0.00    +0.022 A 
ATOM     33  C   UNL     1       8.600  -7.827   4.127  0.00  0.00    +0.025 A 
ATOM     34 CL   UNL     1      11.582 -10.076   2.718  0.00  0.00    -0.084 Cl
ENDBRANCH  26  28
ENDBRANCH   7  24
BRANCH  11  35
ATOM     35  C   UNL     1       1.970  -6.215   2.324  0.00  0.00    +0.111 C 
BRANCH  35  36
ATOM     36  C   UNL     1       0.842  -6.554   3.301  0.00  0.00    +0.047 C 
BRANCH  36  37
ATOM     37  C   UNL     1      -0.138  -7.520   2.633  0.00  0.00    +0.161 C 
BRANCH  37  38
ATOM     38  O   UNL     1      -1.191  -7.837   3.545  0.00  0.00    -0.383 OA
ATOM     39  C   UNL     1      -2.167  -8.738   3.017  0.00  0.00    +0.193 C 
ENDBRANCH  37  38
ENDBRANCH  36  37
ENDBRANCH  35  36
ENDBRANCH  11  35
TORSDOF 8
