REMARK  Name = ZINC14062466
REMARK  7 active torsions:
REMARK  status: ('A' for Active; 'I' for Inactive)
REMARK    1  A    between atoms: C_1  and  N_2
REMARK    2  A    between atoms: C_3  and  C_21
REMARK    3  A    between atoms: C_6  and  S_7
REMARK    4  A    between atoms: S_7  and  C_8
REMARK    5  A    between atoms: C_8  and  C_9
REMARK    6  A    between atoms: N_11  and  C_12
REMARK    7  A    between atoms: C_17  and  N_18
REMARK                            x       y       z     vdW  Elec       q    Type
REMARK                         _______ _______ _______ _____ _____    ______ ____
ROOT
ATOM      1  C   UNL     1       0.030  -1.931   3.690  0.00  0.00    +0.173 C 
ENDROOT
BRANCH   1   2
ATOM      2  C   UNL     1       0.060  -1.648   5.170  0.00  0.00    +0.228 C 
ATOM      3  O   UNL     1       0.062  -0.502   5.568  0.00  0.00    -0.275 OA
ATOM      4  N   UNL     1       0.085  -2.667   6.051  0.00  0.00    -0.283 N 
ATOM      5  H   UNL     1       0.018  -3.582   5.736  0.00  0.00    +0.155 HD
BRANCH   4   6
ATOM      6  C   UNL     1       0.207  -2.406   7.420  0.00  0.00    +0.064 A 
ATOM      7  C   UNL     1      -0.394  -1.281   7.971  0.00  0.00    +0.025 A 
ATOM      8  C   UNL     1      -0.271  -1.026   9.322  0.00  0.00    +0.002 A 
ATOM      9  C   UNL     1       0.449  -1.889  10.128  0.00  0.00    +0.002 A 
ATOM     10  C   UNL     1       1.049  -3.009   9.583  0.00  0.00    +0.034 A 
ATOM     11  C   UNL     1       0.925  -3.273   8.233  0.00  0.00    +0.147 A 
BRANCH  11  12
ATOM     12  N   UNL     1       1.562  -4.476   7.652  0.00  0.00    +0.058 N 
ATOM     13  O   UNL     1       2.104  -5.281   8.373  0.00  0.00    -0.126 OA
ATOM     14  O   UNL     1       1.541  -4.654   6.456  0.00  0.00    -0.126 OA
ENDBRANCH  11  12
ENDBRANCH   4   6
ENDBRANCH   1   2
BRANCH   1  15
ATOM     15  S   UNL     1       0.002  -0.365   2.775  0.00  0.00    -0.077 S 
BRANCH  15  21
ATOM     16  C   UNL     1      -0.068   1.433   0.001  0.00  0.00    +0.153 C 
ATOM     17  N   UNL     1      -0.060  -0.032  -0.003  0.00  0.00    -0.305 N 
ATOM     18  C   UNL     1      -0.072  -0.862  -1.102  0.00  0.00    +0.171 A 
ATOM     19  N   UNL     1      -0.058  -2.097  -0.651  0.00  0.00    -0.128 NA
ATOM     20  N   UNL     1      -0.037  -2.094   0.634  0.00  0.00    -0.122 NA
ATOM     21  C   UNL     1      -0.032  -0.860   1.084  0.00  0.00    +0.192 A 
BRANCH  18  22
ATOM     22  C   UNL     1      -0.097  -0.445  -2.513  0.00  0.00    +0.056 A 
ATOM     23  C   UNL     1       0.160  -1.187  -3.638  0.00  0.00    +0.019 A 
ATOM     24  C   UNL     1       0.073  -0.574  -4.868  0.00  0.00    +0.008 A 
ATOM     25  C   UNL     1      -0.262   0.740  -4.930  0.00  0.00    +0.046 A 
ATOM     26  S   UNL     1      -0.478   1.155  -3.208  0.00  0.00    -0.094 S 
ENDBRANCH  18  22
ENDBRANCH  15  21
ENDBRANCH   1  15
TORSDOF 6
