REMARK  Name = ZINC06443444
REMARK  10 active torsions:
REMARK  status: ('A' for Active; 'I' for Inactive)
REMARK    1  A    between atoms: C_1  and  C_2
REMARK    2  A    between atoms: C_12  and  C_14
REMARK    3  A    between atoms: C_14  and  N_64
REMARK    4  A    between atoms: C_15  and  C_16
REMARK    5  A    between atoms: C_15  and  N_64
REMARK    6  A    between atoms: C_16  and  C_17
REMARK    7  A    between atoms: C_23  and  C_24
REMARK    8  A    between atoms: C_23  and  N_64
REMARK    9  A    between atoms: N_28  and  C_29
REMARK   10  A    between atoms: C_29  and  C_30
REMARK                            x       y       z     vdW  Elec       q    Type
REMARK                         _______ _______ _______ _____ _____    ______ ____
ROOT
ATOM      1  N   UNL     1       5.728   4.943   0.918  0.00  0.00    +0.387 N 
ATOM      2  H   UNL     1       4.935   5.292   1.469  0.00  0.00    -0.081 HD
ENDROOT
BRANCH   1   3
ATOM      3  C   UNL     1       5.311   4.814  -0.494  0.00  0.00    -0.037 C 
BRANCH   3  15
ATOM      4  C   UNL     1      -0.068   1.038  -0.653  0.00  0.00    +0.046 C 
ATOM      5  C   UNL     1       0.097   2.537  -0.647  0.00  0.00    -0.026 A 
ATOM      6  C   UNL     1      -1.012   3.355  -0.685  0.00  0.00    +0.005 A 
ATOM      7  C   UNL     1      -0.874   4.736  -0.675  0.00  0.00    +0.001 A 
ATOM      8  C   UNL     1       0.365   5.310  -0.638  0.00  0.00    +0.010 A 
ATOM      9  C   UNL     1       1.504   4.500  -0.605  0.00  0.00    -0.001 A 
ATOM     10  C   UNL     1       1.368   3.099  -0.610  0.00  0.00    +0.052 A 
ATOM     11  N   UNL     1       2.495   2.305  -0.577  0.00  0.00    -0.322 N 
ATOM     12  H   UNL     1       2.399   1.339  -0.580  0.00  0.00    +0.169 HD
ATOM     13  C   UNL     1       3.724   2.849  -0.541  0.00  0.00    +0.251 A 
ATOM     14  O   UNL     1       4.697   2.116  -0.513  0.00  0.00    -0.268 OA
ATOM     15  C   UNL     1       3.915   4.247  -0.535  0.00  0.00    +0.001 A 
ATOM     16  C   UNL     1       2.847   5.082  -0.566  0.00  0.00    +0.017 A 
ENDBRANCH   3  15
ENDBRANCH   1   3
BRANCH   1  17
ATOM     17  C   UNL     1       6.136   3.624   1.446  0.00  0.00    -0.073 C 
BRANCH  17  18
ATOM     18  C   UNL     1       5.929   3.621   2.962  0.00  0.00    +0.016 C 
BRANCH  18  19
ATOM     19  C   UNL     1       6.384   2.300   3.528  0.00  0.00    -0.049 A 
ATOM     20  C   UNL     1       5.489   1.252   3.642  0.00  0.00    +0.003 A 
ATOM     21  C   UNL     1       5.908   0.040   4.157  0.00  0.00    +0.000 A 
ATOM     22  C   UNL     1       7.218  -0.122   4.567  0.00  0.00    +0.000 A 
ATOM     23  C   UNL     1       8.111   0.927   4.458  0.00  0.00    +0.000 A 
ATOM     24  C   UNL     1       7.694   2.138   3.939  0.00  0.00    +0.003 A 
ENDBRANCH  18  19
ENDBRANCH  17  18
ENDBRANCH   1  17
BRANCH   1  25
ATOM     25  C   UNL     1       6.849   5.900   1.028  0.00  0.00    +0.001 C 
BRANCH  25  26
ATOM     26  C   UNL     1       7.109   6.178   2.486  0.00  0.00    +0.135 A 
ATOM     27  N   UNL     1       8.021   5.614   3.240  0.00  0.00    -0.115 NA
ATOM     28  N   UNL     1       7.928   6.117   4.422  0.00  0.00    -0.023 NA
ATOM     29  N   UNL     1       6.979   6.988   4.442  0.00  0.00    -0.044 NA
ATOM     30  N   UNL     1       6.454   7.058   3.266  0.00  0.00    -0.229 N 
BRANCH  30  31
ATOM     31  C   UNL     1       5.349   7.929   2.857  0.00  0.00    +0.178 C 
BRANCH  31  32
ATOM     32  C   UNL     1       4.034   7.381   3.414  0.00  0.00    +0.140 C 
ATOM     33  C   UNL     1       2.857   8.310   3.026  0.00  0.00    +0.035 C 
ATOM     34  C   UNL     1       1.665   7.314   3.084  0.00  0.00    +0.031 C 
ATOM     35  C   UNL     1       2.315   5.996   2.610  0.00  0.00    +0.160 C 
ATOM     36  O   UNL     1       3.728   6.112   2.813  0.00  0.00    -0.375 OA
ENDBRANCH  31  32
ENDBRANCH  30  31
ENDBRANCH  25  26
ENDBRANCH   1  25
TORSDOF 9
