REMARK  Name = ZINC21408837
REMARK  6 active torsions:
REMARK  status: ('A' for Active; 'I' for Inactive)
REMARK    1  A    between atoms: C_1  and  C_2
REMARK    2  A    between atoms: C_5  and  N_8
REMARK    3  A    between atoms: C_9  and  C_29
REMARK    4  A    between atoms: C_11  and  C_16
REMARK    5  A    between atoms: N_18  and  N_19
REMARK    6  A    between atoms: C_20  and  C_22
REMARK                            x       y       z     vdW  Elec       q    Type
REMARK                         _______ _______ _______ _____ _____    ______ ____
ROOT
ATOM      1  N   UNL     1      -4.172   2.146  -1.155  0.00  0.00    -0.263 N 
ATOM      2  C   UNL     1      -3.486   1.926   0.123  0.00  0.00    +0.130 C 
ATOM      3  C   UNL     1      -2.364   0.908  -0.181  0.00  0.00    +0.111 C 
ATOM      4  C   UNL     1      -2.930   0.175  -1.419  0.00  0.00    +0.111 C 
ATOM      5  C   UNL     1      -3.882   1.175  -2.039  0.00  0.00    +0.221 C 
ATOM      6  O   UNL     1      -4.320   1.109  -3.168  0.00  0.00    -0.275 OA
ENDROOT
BRANCH   1  11
ATOM      7  C   UNL     1      -7.606   6.531  -2.232  0.00  0.00    +0.044 C 
ATOM      8  C   UNL     1      -6.693   5.367  -1.946  0.00  0.00    -0.050 A 
ATOM      9  C   UNL     1      -6.200   5.174  -0.668  0.00  0.00    +0.005 A 
ATOM     10  C   UNL     1      -5.364   4.107  -0.403  0.00  0.00    +0.024 A 
ATOM     11  C   UNL     1      -5.019   3.228  -1.421  0.00  0.00    +0.037 A 
ATOM     12  C   UNL     1      -5.510   3.428  -2.704  0.00  0.00    +0.024 A 
ATOM     13  C   UNL     1      -6.351   4.493  -2.962  0.00  0.00    +0.005 A 
ENDBRANCH   1  11
BRANCH   2  14
ATOM     14  C   UNL     1      -2.895   3.217   0.627  0.00  0.00    +0.011 A 
ATOM     15  C   UNL     1      -2.768   3.657   1.903  0.00  0.00    +0.013 A 
ATOM     16  C   UNL     1      -2.184   4.888   2.133  0.00  0.00    +0.008 A 
ATOM     17  C   UNL     1      -1.765   5.625   1.075  0.00  0.00    +0.045 A 
ATOM     18  S   UNL     1      -2.188   4.568  -0.301  0.00  0.00    -0.100 S 
ENDBRANCH   2  14
BRANCH   3  19
ATOM     19  C   UNL     1      -1.073   1.611  -0.513  0.00  0.00    +0.235 C 
ATOM     20  O   UNL     1      -0.859   1.979  -1.649  0.00  0.00    -0.274 OA
ATOM     21  N   UNL     1      -0.158   1.830   0.451  0.00  0.00    -0.234 N 
ATOM     22  H   UNL     1      -0.354   1.500   1.481  0.00  0.00    +0.173 HD
BRANCH  21  23
ATOM     23  N   UNL     1       1.045   2.478   0.140  0.00  0.00    -0.229 N 
ATOM     24  C   UNL     1       1.963   2.693   1.103  0.00  0.00    +0.276 C 
ATOM     25  O   UNL     1       1.748   2.323   2.242  0.00  0.00    -0.267 OA
ATOM     26  H   UNL     1       1.240   2.813  -0.890  0.00  0.00    +0.173 HD
BRANCH  24  27
ATOM     27  C   UNL     1       3.222   3.372   0.778  0.00  0.00    +0.104 A 
ATOM     28  C   UNL     1       4.245   3.655   1.657  0.00  0.00    +0.047 A 
ATOM     29  C   UNL     1       5.246   4.305   0.928  0.00  0.00    +0.036 A 
ATOM     30  C   UNL     1       4.826   4.404  -0.357  0.00  0.00    +0.098 A 
ATOM     31  N   UNL     1       3.599   3.836  -0.462  0.00  0.00    -0.356 N 
ATOM     32  H   UNL     1       2.929   3.708  -1.324  0.00  0.00    +0.166 HD
ATOM     33 BR   UNL     1       6.894   4.933   1.612  0.00  0.00    -0.049 Br
ENDBRANCH  24  27
ENDBRANCH  21  23
ENDBRANCH   3  19
TORSDOF 5
