REMARK  Name = ZINC07137654
REMARK  10 active torsions:
REMARK  status: ('A' for Active; 'I' for Inactive)
REMARK    1  A    between atoms: C_1  and  C_2
REMARK    2  A    between atoms: C_2  and  C_3
REMARK    3  A    between atoms: C_2  and  C_4
REMARK    4  A    between atoms: C_9  and  O_10
REMARK    5  A    between atoms: O_10  and  C_11
REMARK    6  A    between atoms: C_11  and  C_12
REMARK    7  A    between atoms: C_12  and  C_14
REMARK    8  A    between atoms: C_12  and  O_29
REMARK    9  A    between atoms: C_14  and  N_15
REMARK   10  A    between atoms: C_21  and  N_26
REMARK                            x       y       z     vdW  Elec       q    Type
REMARK                         _______ _______ _______ _____ _____    ______ ____
ROOT
ATOM      1  C   UNL     1      -2.376  -4.253  -0.125  0.00  0.00    +0.151 C 
ENDROOT
BRANCH   1   2
ATOM      2  N   UNL     1      -3.721  -4.822  -0.236  0.00  0.00    -0.232 N 
ATOM      3  C   UNL     1      -4.466  -5.223   0.810  0.00  0.00    +0.254 C 
ATOM      4  O   UNL     1      -4.135  -5.173   1.977  0.00  0.00    -0.270 OA
ATOM      5  C   UNL     1      -5.756  -5.734   0.300  0.00  0.00    +0.050 A 
ATOM      6  C   UNL     1      -6.891  -6.263   0.895  0.00  0.00    +0.016 A 
ATOM      7  C   UNL     1      -7.958  -6.662   0.106  0.00  0.00    +0.033 A 
ATOM      8  C   UNL     1      -7.898  -6.536  -1.270  0.00  0.00    +0.127 A 
ATOM      9  C   UNL     1      -6.769  -6.009  -1.878  0.00  0.00    +0.046 A 
ATOM     10  C   UNL     1      -5.695  -5.605  -1.102  0.00  0.00    +0.052 A 
ATOM     11  C   UNL     1      -4.372  -5.016  -1.397  0.00  0.00    +0.254 C 
ATOM     12  O   UNL     1      -3.944  -4.752  -2.502  0.00  0.00    -0.270 OA
BRANCH   8  13
ATOM     13  N   UNL     1      -9.046  -6.968  -2.098  0.00  0.00    +0.056 N 
ATOM     14  O   UNL     1     -10.039  -7.432  -1.567  0.00  0.00    -0.126 OA
ATOM     15  O   UNL     1      -8.997  -6.859  -3.310  0.00  0.00    -0.126 OA
ENDBRANCH   8  13
ENDBRANCH   1   2
BRANCH   1  16
ATOM     16  C   UNL     1      -2.474  -2.732   0.010  0.00  0.00    +0.170 C 
BRANCH  16  17
ATOM     17  O   UNL     1      -3.126  -2.404   1.239  0.00  0.00    -0.387 OA
ATOM     18  H   UNL     1      -2.669  -2.731   2.026  0.00  0.00    +0.210 HD
ENDBRANCH  16  17
BRANCH  16  19
ATOM     19  C   UNL     1      -1.069  -2.126   0.000  0.00  0.00    +0.262 C 
BRANCH  19  20
ATOM     20  O   UNL     1      -1.165  -0.701   0.009  0.00  0.00    -0.489 OA
BRANCH  20  26
ATOM     21  C   UNL     1      -0.017   1.383   0.010  0.00  0.00    -0.003 A 
ATOM     22  C   UNL     1       1.171   2.089   0.002  0.00  0.00    +0.007 A 
ATOM     23  C   UNL     1       2.377   1.414  -0.013  0.00  0.00    +0.001 A 
ATOM     24  C   UNL     1       2.399   0.031  -0.021  0.00  0.00    +0.004 A 
ATOM     25  C   UNL     1       1.214  -0.679  -0.013  0.00  0.00    +0.046 A 
ATOM     26  C   UNL     1       0.002  -0.004   0.002  0.00  0.00    +0.124 A 
BRANCH  21  28
ATOM     27  C   UNL     1      -1.418   2.991   1.274  0.00  0.00    +0.012 C 
ATOM     28  C   UNL     1      -1.332   2.119   0.020  0.00  0.00    +0.016 C 
ATOM     29  C   UNL     1      -1.430   3.005  -1.224  0.00  0.00    +0.012 C 
ENDBRANCH  21  28
ENDBRANCH  20  26
ENDBRANCH  19  20
ENDBRANCH  16  19
ENDBRANCH   1  16
TORSDOF 8
