REMARK  Name = ZINC01460202
REMARK  6 active torsions:
REMARK  status: ('A' for Active; 'I' for Inactive)
REMARK    1  A    between atoms: C_1  and  C_2
REMARK    2  A    between atoms: C_21  and  N_25
REMARK    3  A    between atoms: C_22  and  C_23
REMARK    4  A    between atoms: C_29  and  C_33
REMARK    5  A    between atoms: C_29  and  C_34
REMARK    6  A    between atoms: C_31  and  C_32
REMARK                            x       y       z     vdW  Elec       q    Type
REMARK                         _______ _______ _______ _____ _____    ______ ____
ROOT
ATOM      1  C   UNL     1      -0.152   6.467   0.153  0.00  0.00    +0.044 C 
ATOM      2  C   UNL     1      -0.649   5.367   1.056  0.00  0.00    -0.049 A 
ATOM      3  C   UNL     1      -0.427   4.051   0.685  0.00  0.00    +0.013 A 
ATOM      4  C   UNL     1      -0.864   3.013   1.491  0.00  0.00    -0.000 A 
ATOM      5  C   UNL     1      -1.541   3.370   2.673  0.00  0.00    +0.049 A 
ATOM      6  C   UNL     1      -1.758   4.689   3.038  0.00  0.00    -0.000 A 
ATOM      7  C   UNL     1      -1.315   5.716   2.232  0.00  0.00    +0.010 A 
ATOM      8  C   UNL     1      -2.490   4.614   4.339  0.00  0.00    +0.148 C 
ATOM      9  C   UNL     1      -1.692   5.250   5.442  0.00  0.00    +0.104 A 
ATOM     10  C   UNL     1      -2.075   6.451   5.965  0.00  0.00    +0.152 A 
ATOM     11  C   UNL     1      -1.254   7.021   7.045  0.00  0.00    +0.060 A 
ATOM     12  C   UNL     1      -1.585   8.246   7.629  0.00  0.00    +0.015 A 
ATOM     13  C   UNL     1      -0.797   8.754   8.638  0.00  0.00    +0.001 A 
ATOM     14  C   UNL     1       0.318   8.053   9.074  0.00  0.00    +0.004 A 
ATOM     15  C   UNL     1       0.656   6.844   8.505  0.00  0.00    +0.047 A 
ATOM     16  C   UNL     1      -0.125   6.312   7.484  0.00  0.00    +0.143 A 
ATOM     17  O   UNL     1       0.201   5.130   6.925  0.00  0.00    -0.422 OA
ATOM     18  C   UNL     1      -0.546   4.613   5.944  0.00  0.00    +0.346 A 
ATOM     19  O   UNL     1      -0.219   3.542   5.465  0.00  0.00    -0.245 OA
ATOM     20  O   UNL     1      -3.164   7.101   5.516  0.00  0.00    -0.440 OA
ATOM     21  C   UNL     1      -4.106   6.440   4.821  0.00  0.00    +0.199 C 
ATOM     22  C   UNL     1      -3.848   5.245   4.234  0.00  0.00    +0.110 C 
ATOM     23  C   UNL     1      -2.636   3.125   4.611  0.00  0.00    +0.241 C 
ATOM     24  O   UNL     1      -3.179   2.622   5.572  0.00  0.00    -0.273 OA
ATOM     25  N   UNL     1      -2.052   2.466   3.593  0.00  0.00    -0.260 N 
ATOM     26  C   UNL     1      -1.923   1.017   3.392  0.00  0.00    +0.055 C 
ATOM     27  C   UNL     1      -1.200   0.700   2.118  0.00  0.00    +0.002 C 
ATOM     28  C   UNL     1      -0.718   1.572   1.248  0.00  0.00    -0.043 C 
ATOM     29  C   UNL     1      -0.013   1.086   0.008  0.00  0.00    +0.044 C 
ATOM     30  C   UNL     1      -3.320   0.393   3.343  0.00  0.00    +0.036 C 
ATOM     31  C   UNL     1      -1.150   0.417   4.568  0.00  0.00    +0.036 C 
ENDROOT
BRANCH  21  32
ATOM     32  N   UNL     1      -5.360   6.987   4.704  0.00  0.00    -0.328 N 
ATOM     33  H   UNL     1      -5.558   7.840   5.120  0.00  0.00    +0.145 HD
ATOM     34  H   UNL     1      -6.048   6.519   4.205  0.00  0.00    +0.145 HD
ENDBRANCH  21  32
BRANCH  22  35
ATOM     35  C   UNL     1      -4.883   4.578   3.503  0.00  0.00    +0.102 C 
ATOM     36  N   UNL     1      -5.704   4.048   2.924  0.00  0.00    -0.191 NA
ENDBRANCH  22  35
TORSDOF 2
