REMARK  Name = ZINC00680104
REMARK  9 active torsions:
REMARK  status: ('A' for Active; 'I' for Inactive)
REMARK    1  A    between atoms: C_1  and  C_2
REMARK    2  A    between atoms: C_3  and  C_9
REMARK    3  A    between atoms: C_4  and  C_8
REMARK    4  A    between atoms: N_5  and  C_7
REMARK    5  A    between atoms: C_11  and  C_31
REMARK    6  A    between atoms: C_12  and  N_30
REMARK    7  A    between atoms: N_13  and  C_23
REMARK    8  A    between atoms: C_19  and  C_21
REMARK    9  A    between atoms: C_19  and  C_22
REMARK                            x       y       z     vdW  Elec       q    Type
REMARK                         _______ _______ _______ _____ _____    ______ ____
ROOT
ATOM      1  C   UNL     1      -0.404  -4.226  -0.739  0.00  0.00    +0.101 C 
ATOM      2  C   UNL     1      -1.766  -4.781  -0.442  0.00  0.00    +0.077 C 
ATOM      3  C   UNL     1      -2.710  -4.029   0.179  0.00  0.00    +0.107 C 
ATOM      4  N   UNL     1      -2.431  -2.730   0.541  0.00  0.00    -0.260 N 
ATOM      5  C   UNL     1      -1.395  -2.052  -0.047  0.00  0.00    +0.025 C 
ATOM      6  C   UNL     1      -0.404  -2.719  -0.674  0.00  0.00    +0.025 C 
ATOM      7  C   UNL     1       0.660  -2.031  -1.283  0.00  0.00    +0.162 C 
ATOM      8  O   UNL     1       1.526  -2.661  -1.858  0.00  0.00    -0.292 OA
ATOM      9  C   UNL     1       0.752  -0.530  -1.233  0.00  0.00    +0.086 C 
ATOM     10  C   UNL     1       0.046  -0.031   0.032  0.00  0.00    -0.023 C 
ATOM     11  C   UNL     1      -1.395  -0.544   0.023  0.00  0.00    +0.058 C 
ATOM     12  C   UNL     1       0.047   1.499   0.052  0.00  0.00    +0.011 C 
ATOM     13  C   UNL     1       0.773  -0.561   1.270  0.00  0.00    +0.011 C 
ENDROOT
BRANCH   1  16
ATOM     14  C   UNL     1      -0.503  -3.760   2.394  0.00  0.00    +0.068 C 
ATOM     15  C   UNL     1       0.537  -4.559   1.650  0.00  0.00    +0.064 A 
ATOM     16  C   UNL     1       0.580  -4.763   0.268  0.00  0.00    +0.009 A 
ATOM     17  C   UNL     1       1.657  -5.535  -0.006  0.00  0.00    +0.040 A 
ATOM     18  N   UNL     1       2.279  -5.801   1.161  0.00  0.00    -0.271 N 
ATOM     19  N   UNL     1       1.555  -5.180   2.187  0.00  0.00    -0.176 NA
ATOM     20  C   UNL     1       3.494  -6.603   1.327  0.00  0.00    +0.172 C 
ATOM     21  C   UNL     1       2.088  -6.008  -1.370  0.00  0.00    +0.065 C 
ENDBRANCH   1  16
BRANCH   4  22
ATOM     22  C   UNL     1      -3.210  -2.098   1.517  0.00  0.00    +0.041 A 
ATOM     23  C   UNL     1      -4.008  -1.013   1.175  0.00  0.00    +0.024 A 
ATOM     24  C   UNL     1      -4.776  -0.391   2.140  0.00  0.00    +0.003 A 
ATOM     25  C   UNL     1      -4.753  -0.848   3.445  0.00  0.00    +0.015 A 
ATOM     26  C   UNL     1      -3.960  -1.929   3.789  0.00  0.00    +0.020 A 
ATOM     27  C   UNL     1      -3.192  -2.558   2.827  0.00  0.00    +0.039 A 
ATOM     28 BR   UNL     1      -3.933  -2.550   5.574  0.00  0.00    -0.050 Br
ENDBRANCH   4  22
BRANCH   3  29
ATOM     29  N   UNL     1      -3.947  -4.564   0.448  0.00  0.00    -0.345 N 
ATOM     30  H   UNL     1      -4.170  -5.454   0.130  0.00  0.00    +0.144 HD
ATOM     31  H   UNL     1      -4.598  -4.054   0.955  0.00  0.00    +0.144 HD
ENDBRANCH   3  29
BRANCH   2  32
ATOM     32  C   UNL     1      -2.074  -6.128  -0.819  0.00  0.00    +0.099 C 
ATOM     33  N   UNL     1      -2.319  -7.196  -1.118  0.00  0.00    -0.191 NA
ENDBRANCH   2  32
TORSDOF 4
