REMARK  Name = ZINC16870433
REMARK  11 active torsions:
REMARK  status: ('A' for Active; 'I' for Inactive)
REMARK    1  A    between atoms: C_1  and  C_2
REMARK    2  A    between atoms: C_5  and  N_9
REMARK    3  A    between atoms: C_6  and  C_8
REMARK    4  A    between atoms: C_10  and  C_12
REMARK    5  A    between atoms: C_12  and  C_14
REMARK    6  A    between atoms: C_12  and  O_15
REMARK    7  A    between atoms: O_15  and  C_16
REMARK    8  A    between atoms: C_16  and  C_18
REMARK    9  A    between atoms: N_27  and  C_29
REMARK   10  A    between atoms: C_29  and  C_30
REMARK   11  A    between atoms: C_29  and  C_31
REMARK                            x       y       z     vdW  Elec       q    Type
REMARK                         _______ _______ _______ _____ _____    ______ ____
ROOT
ATOM      1  C   UNL     1       4.737   1.258  -0.437  0.00  0.00    +0.361 C 
ATOM      2  O   UNL     1       4.792   0.124  -0.870  0.00  0.00    -0.243 OA
ENDROOT
BRANCH   1   3
ATOM      3  C   UNL     1       5.929   2.125  -0.489  0.00  0.00    +0.176 A 
ATOM      4  C   UNL     1       7.191   1.624  -1.059  0.00  0.00    +0.021 A 
ATOM      5  C   UNL     1       7.326   0.341  -1.578  0.00  0.00    +0.011 A 
ATOM      6  C   UNL     1       8.539  -0.053  -2.099  0.00  0.00    +0.001 A 
ATOM      7  C   UNL     1       9.622   0.816  -2.117  0.00  0.00    +0.001 A 
ATOM      8  C   UNL     1       9.508   2.094  -1.613  0.00  0.00    +0.014 A 
ATOM      9  C   UNL     1       8.292   2.511  -1.082  0.00  0.00    +0.050 A 
ATOM     10  C   UNL     1       8.083   3.855  -0.524  0.00  0.00    +0.275 A 
ATOM     11  O   UNL     1       8.988   4.669  -0.507  0.00  0.00    -0.266 OA
ATOM     12  N   UNL     1       6.866   4.165  -0.033  0.00  0.00    -0.226 N 
ATOM     13  N   UNL     1       5.879   3.350  -0.024  0.00  0.00    -0.161 NA
BRANCH  12  14
ATOM     14  C   UNL     1       6.663   5.505   0.522  0.00  0.00    +0.105 C 
ATOM     15  C   UNL     1       5.558   6.218  -0.258  0.00  0.00    +0.032 C 
ATOM     16  C   UNL     1       6.258   5.392   1.993  0.00  0.00    +0.032 C 
ENDBRANCH  12  14
ENDBRANCH   1   3
BRANCH   1  17
ATOM     17  O   UNL     1       3.588   1.723   0.091  0.00  0.00    -0.448 OA
BRANCH  17  18
ATOM     18  C   UNL     1       2.456   0.814   0.110  0.00  0.00    +0.259 C 
ATOM     19  C   UNL     1       2.462   0.018   1.416  0.00  0.00    +0.062 C 
BRANCH  18  21
ATOM     20  N   UNL     1      -0.011   0.966   0.007  0.00  0.00    -0.282 N 
ATOM     21  C   UNL     1       1.176   1.604   0.009  0.00  0.00    +0.258 C 
ATOM     22  O   UNL     1       1.215   2.813  -0.071  0.00  0.00    -0.271 OA
ATOM     23  H   UNL     1      -0.041  -0.004  -0.012  0.00  0.00    +0.155 HD
BRANCH  20  28
ATOM     24  C   UNL     1      -4.835   3.951   0.089  0.00  0.00    +0.044 C 
ATOM     25  C   UNL     1      -3.553   3.158   0.068  0.00  0.00    -0.050 A 
ATOM     26  C   UNL     1      -2.391   3.712   0.572  0.00  0.00    +0.005 A 
ATOM     27  C   UNL     1      -1.215   2.987   0.553  0.00  0.00    +0.024 A 
ATOM     28  C   UNL     1      -1.201   1.702   0.028  0.00  0.00    +0.036 A 
ATOM     29  C   UNL     1      -2.369   1.151  -0.482  0.00  0.00    -0.029 A 
ATOM     30  C   UNL     1      -3.543   1.878  -0.456  0.00  0.00    +0.008 A 
ATOM     31  C   UNL     1      -2.357  -0.242  -1.058  0.00  0.00    +0.045 C 
ENDBRANCH  20  28
ENDBRANCH  18  21
ENDBRANCH  17  18
ENDBRANCH   1  17
TORSDOF 6
