REMARK  Name = ZINC26386313
REMARK  8 active torsions:
REMARK  status: ('A' for Active; 'I' for Inactive)
REMARK    1  A    between atoms: C_4  and  O_7
REMARK    2  A    between atoms: O_7  and  C_8
REMARK    3  A    between atoms: C_8  and  C_9
REMARK    4  A    between atoms: C_12  and  C_14
REMARK    5  A    between atoms: N_16  and  N_17
REMARK    6  A    between atoms: N_20  and  C_21
REMARK    7  A    between atoms: C_21  and  C_22
REMARK    8  A    between atoms: C_27  and  N_28
REMARK                            x       y       z     vdW  Elec       q    Type
REMARK                         _______ _______ _______ _____ _____    ______ ____
ROOT
ATOM      1  N   UNL     1       9.080  -4.367  -4.423  0.00  0.00    -0.218 N 
ATOM      2  C   UNL     1       8.806  -4.130  -5.721  0.00  0.00    +0.316 C 
ATOM      3  O   UNL     1       9.655  -4.335  -6.568  0.00  0.00    -0.251 OA
ATOM      4  N   UNL     1       7.593  -3.666  -6.081  0.00  0.00    -0.294 N 
ATOM      5  H   UNL     1       9.953  -4.701  -4.164  0.00  0.00    +0.174 HD
ATOM      6  H   UNL     1       6.917  -3.502  -5.405  0.00  0.00    +0.151 HD
ENDROOT
BRANCH   1   9
ATOM      7  C   UNL     1       8.376  -4.368  -2.149  0.00  0.00    +0.295 C 
ATOM      8  O   UNL     1       9.471  -4.788  -1.824  0.00  0.00    -0.265 OA
ATOM      9  N   UNL     1       8.102  -4.131  -3.447  0.00  0.00    -0.227 N 
ATOM     10  H   UNL     1       7.229  -3.797  -3.706  0.00  0.00    +0.173 HD
BRANCH   7  14
ATOM     11  C   UNL     1       5.454  -3.557  -0.185  0.00  0.00    +0.143 A 
ATOM     12  C   UNL     1       6.278  -3.955   0.810  0.00  0.00    +0.049 A 
ATOM     13  C   UNL     1       7.496  -4.318   0.216  0.00  0.00    +0.055 A 
ATOM     14  C   UNL     1       7.353  -4.121  -1.127  0.00  0.00    +0.191 A 
ATOM     15  O   UNL     1       6.103  -3.664  -1.351  0.00  0.00    -0.452 OA
BRANCH  11  16
ATOM     16  C   UNL     1       4.035  -3.079  -0.011  0.00  0.00    +0.303 C 
BRANCH  16  17
ATOM     17  O   UNL     1       4.030  -1.662   0.176  0.00  0.00    -0.484 OA
BRANCH  17  21
ATOM     18  C   UNL     1       0.358   0.144   0.700  0.00  0.00    +0.000 A 
ATOM     19  C   UNL     1       1.511   0.908   0.711  0.00  0.00    +0.004 A 
ATOM     20  C   UNL     1       2.742   0.305   0.535  0.00  0.00    +0.045 A 
ATOM     21  C   UNL     1       2.820  -1.067   0.349  0.00  0.00    +0.121 A 
ATOM     22  C   UNL     1       1.662  -1.831   0.339  0.00  0.00    +0.045 A 
ATOM     23  C   UNL     1       0.434  -1.224   0.514  0.00  0.00    +0.004 A 
ENDBRANCH  17  21
ENDBRANCH  16  17
ENDBRANCH  11  16
ENDBRANCH   7  14
ENDBRANCH   1   9
BRANCH   4  24
ATOM     24  C   UNL     1       7.296  -3.408  -7.492  0.00  0.00    +0.144 C 
BRANCH  24  25
ATOM     25  C   UNL     1       5.884  -2.899  -7.623  0.00  0.00    +0.008 A 
ATOM     26  C   UNL     1       4.874  -3.737  -8.060  0.00  0.00    +0.010 A 
ATOM     27  C   UNL     1       3.588  -3.226  -8.166  0.00  0.00    +0.018 A 
ATOM     28  C   UNL     1       3.356  -1.906  -7.836  0.00  0.00    +0.084 A 
ATOM     29  N   UNL     1       4.338  -1.129  -7.422  0.00  0.00    -0.349 N 
ATOM     30  C   UNL     1       5.577  -1.581  -7.302  0.00  0.00    +0.104 A 
ATOM     31  H   UNL     1       4.148  -0.205  -7.197  0.00  0.00    +0.167 HD
BRANCH  30  32
ATOM     32  N   UNL     1       6.581  -0.729  -6.856  0.00  0.00    -0.312 N 
ATOM     33  C   UNL     1       7.392   0.048  -7.807  0.00  0.00    +0.134 C 
ATOM     34  C   UNL     1       7.391   1.514  -7.358  0.00  0.00    +0.178 C 
ATOM     35  O   UNL     1       7.780   1.587  -5.984  0.00  0.00    -0.377 OA
ATOM     36  C   UNL     1       6.888   0.920  -5.088  0.00  0.00    +0.178 C 
ATOM     37  C   UNL     1       6.860  -0.572  -5.420  0.00  0.00    +0.134 C 
ENDBRANCH  30  32
ENDBRANCH  24  25
ENDBRANCH   4  24
TORSDOF 8
