REMARK  Name = ZINC43213458
REMARK  7 active torsions:
REMARK  status: ('A' for Active; 'I' for Inactive)
REMARK    1  A    between atoms: C_4  and  C_7
REMARK    2  A    between atoms: C_7  and  C_8
REMARK    3  A    between atoms: C_8  and  C_10
REMARK    4  A    between atoms: C_8  and  N_26
REMARK    5  A    between atoms: C_12  and  C_15
REMARK    6  A    between atoms: N_17  and  C_18
REMARK    7  A    between atoms: C_18  and  C_19
REMARK                            x       y       z     vdW  Elec       q    Type
REMARK                         _______ _______ _______ _____ _____    ______ ____
ROOT
ATOM      1  C   UNL     1       5.422  -1.804   1.383  0.00  0.00    +0.182 A 
ATOM      2  N   UNL     1       5.481  -3.069   1.676  0.00  0.00    -0.210 NA
ATOM      3  C   UNL     1       6.772  -3.481   1.550  0.00  0.00    +0.163 A 
ATOM      4  C   UNL     1       7.501  -2.398   1.163  0.00  0.00    +0.230 A 
ATOM      5  O   UNL     1       6.647  -1.368   1.060  0.00  0.00    -0.449 OA
ENDROOT
BRANCH   3   6
ATOM      6  C   UNL     1       7.284  -4.842   1.787  0.00  0.00    +0.266 C 
ATOM      7  O   UNL     1       8.467  -5.082   1.638  0.00  0.00    -0.268 OA
ATOM      8  N   UNL     1       6.441  -5.822   2.170  0.00  0.00    -0.306 N 
ATOM      9  H   UNL     1       5.498  -5.631   2.289  0.00  0.00    +0.149 HD
BRANCH   8  10
ATOM     10  C   UNL     1       6.951  -7.176   2.406  0.00  0.00    +0.141 C 
BRANCH  10  11
ATOM     11  C   UNL     1       5.814  -8.075   2.820  0.00  0.00    -0.016 A 
ATOM     12  C   UNL     1       5.619  -8.371   4.156  0.00  0.00    +0.006 A 
ATOM     13  C   UNL     1       4.576  -9.195   4.536  0.00  0.00    +0.000 A 
ATOM     14  C   UNL     1       3.729  -9.723   3.580  0.00  0.00    +0.001 A 
ATOM     15  C   UNL     1       3.923  -9.428   2.244  0.00  0.00    +0.015 A 
ATOM     16  C   UNL     1       4.963  -8.599   1.864  0.00  0.00    +0.023 A 
ATOM     17 BR   UNL     1       5.226  -8.188   0.037  0.00  0.00    -0.050 Br
ENDBRANCH  10  11
ENDBRANCH   8  10
ENDBRANCH   3   6
BRANCH   1  18
ATOM     18  C   UNL     1       4.171  -0.963   1.399  0.00  0.00    +0.017 C 
BRANCH  18  19
ATOM     19  N   UNL     1       4.452   0.319   2.059  0.00  0.00    +0.386 N 
ATOM     20  H   UNL     1       3.615   0.882   2.070  0.00  0.00    -0.089 HD
ATOM     21  H   UNL     1       4.755   0.150   3.006  0.00  0.00    -0.089 HD
ATOM     22  H   UNL     1       5.178   0.805   1.555  0.00  0.00    -0.089 HD
ENDBRANCH  18  19
BRANCH  18  23
ATOM     23  C   UNL     1       3.711  -0.707  -0.038  0.00  0.00    +0.028 C 
BRANCH  23  27
ATOM     24  C   UNL     1      -0.017   1.378   0.010  0.00  0.00    +0.000 A 
ATOM     25  C   UNL     1       1.171   2.086   0.002  0.00  0.00    +0.000 A 
ATOM     26  C   UNL     1       2.377   1.411  -0.013  0.00  0.00    +0.003 A 
ATOM     27  C   UNL     1       2.396   0.029  -0.020  0.00  0.00    -0.048 A 
ATOM     28  C   UNL     1       1.208  -0.679  -0.012  0.00  0.00    +0.003 A 
ATOM     29  C   UNL     1       0.002  -0.004   0.002  0.00  0.00    +0.000 A 
ENDBRANCH  23  27
ENDBRANCH  18  23
ENDBRANCH   1  18
TORSDOF 7
