REMARK  Name = ZINC22309452
REMARK  9 active torsions:
REMARK  status: ('A' for Active; 'I' for Inactive)
REMARK    1  A    between atoms: C_1  and  C_2
REMARK    2  A    between atoms: C_2  and  N_3
REMARK    3  A    between atoms: C_7  and  S_28
REMARK    4  A    between atoms: C_11  and  S_12
REMARK    5  A    between atoms: S_12  and  C_13
REMARK    6  A    between atoms: C_13  and  C_15
REMARK    7  A    between atoms: C_13  and  C_16
REMARK    8  A    between atoms: C_16  and  C_18
REMARK    9  A    between atoms: S_28  and  N_31
REMARK                            x       y       z     vdW  Elec       q    Type
REMARK                         _______ _______ _______ _____ _____    ______ ____
ROOT
ATOM      1  N   UNL     1      -0.020   1.094   2.454  0.00  0.00    -0.319 N 
ATOM      2  C   UNL     1      -0.258  -0.095   3.124  0.00  0.00    +0.070 A 
ATOM      3  C   UNL     1      -1.141  -1.147   2.931  0.00  0.00    +0.030 A 
ATOM      4  C   UNL     1      -1.125  -2.224   3.794  0.00  0.00    +0.030 A 
ATOM      5  C   UNL     1      -0.226  -2.265   4.850  0.00  0.00    +0.107 A 
ATOM      6  C   UNL     1       0.662  -1.232   5.052  0.00  0.00    +0.058 A 
ATOM      7  C   UNL     1       0.658  -0.134   4.188  0.00  0.00    +0.092 A 
ATOM      8  N   UNL     1       1.391   1.009   4.128  0.00  0.00    -0.222 NA
ATOM      9  C   UNL     1       0.994   1.732   3.110  0.00  0.00    +0.171 A 
ENDROOT
BRANCH   5  10
ATOM     10  S   UNL     1      -0.221  -3.649   5.940  0.00  0.00    +0.056 S 
ATOM     11  O   UNL     1      -0.779  -4.737   5.217  0.00  0.00    -0.153 OA
ATOM     12  O   UNL     1       1.075  -3.704   6.520  0.00  0.00    -0.153 OA
BRANCH  10  13
ATOM     13  N   UNL     1      -1.276  -3.307   7.170  0.00  0.00    -0.204 NA
ATOM     14  H   UNL     1      -1.302  -4.150   7.876  0.00  0.00    +0.144 HD
ATOM     15  H   UNL     1      -2.282  -3.144   6.756  0.00  0.00    +0.144 HD
ENDBRANCH  10  13
ENDBRANCH   5  10
BRANCH   1  17
ATOM     16  C   UNL     1      -0.013   1.086   0.008  0.00  0.00    +0.027 C 
ATOM     17  C   UNL     1      -0.729   1.579   1.267  0.00  0.00    +0.121 C 
ENDBRANCH   1  17
BRANCH   9  18
ATOM     18  S   UNL     1       1.669   3.295   2.654  0.00  0.00    -0.077 S 
BRANCH  18  19
ATOM     19  C   UNL     1       2.927   3.481   3.942  0.00  0.00    +0.122 C 
ATOM     20  C   UNL     1       2.247   3.596   5.307  0.00  0.00    +0.028 C 
BRANCH  19  21
ATOM     21  C   UNL     1       3.736   4.725   3.678  0.00  0.00    +0.178 C 
ATOM     22  O   UNL     1       3.255   5.638   3.038  0.00  0.00    -0.291 OA
BRANCH  21  23
ATOM     23  C   UNL     1       5.059   4.830   4.177  0.00  0.00    +0.043 A 
ATOM     24  C   UNL     1       5.740   3.890   4.920  0.00  0.00    +0.095 A 
ATOM     25  N   UNL     1       6.974   4.347   5.206  0.00  0.00    -0.360 N 
ATOM     26  H   UNL     1       7.668   3.726   5.790  0.00  0.00    +0.165 HD
ATOM     27  C   UNL     1       7.162   5.607   4.676  0.00  0.00    +0.047 A 
ATOM     28  C   UNL     1       5.981   5.970   4.010  0.00  0.00    +0.010 A 
ATOM     29  C   UNL     1       5.888   7.204   3.374  0.00  0.00    +0.011 A 
ATOM     30  C   UNL     1       6.961   8.069   3.402  0.00  0.00    +0.001 A 
ATOM     31  C   UNL     1       8.129   7.713   4.060  0.00  0.00    +0.002 A 
ATOM     32  C   UNL     1       8.234   6.494   4.693  0.00  0.00    +0.026 A 
ENDBRANCH  21  23
ENDBRANCH  19  21
ENDBRANCH  18  19
ENDBRANCH   9  18
TORSDOF 7
