REMARK  Name = ZINC12649108
REMARK  8 active torsions:
REMARK  status: ('A' for Active; 'I' for Inactive)
REMARK    1  A    between atoms: C_1  and  C_2
REMARK    2  A    between atoms: C_5  and  S_26
REMARK    3  A    between atoms: C_7  and  N_8
REMARK    4  A    between atoms: C_9  and  C_11
REMARK    5  A    between atoms: C_14  and  C_16
REMARK    6  A    between atoms: C_16  and  O_17
REMARK    7  A    between atoms: O_17  and  C_18
REMARK    8  A    between atoms: S_26  and  N_29
REMARK                            x       y       z     vdW  Elec       q    Type
REMARK                         _______ _______ _______ _____ _____    ______ ____
ROOT
ATOM      1  N   UNL     1      -6.475  -2.176   2.969  0.00  0.00    -0.279 N 
ATOM      2  C   UNL     1      -6.650  -2.239   1.634  0.00  0.00    +0.284 C 
ATOM      3  O   UNL     1      -7.686  -2.686   1.176  0.00  0.00    -0.266 OA
ATOM      4  H   UNL     1      -5.622  -1.895   3.333  0.00  0.00    +0.155 HD
ENDROOT
BRANCH   1  11
ATOM      5  C   UNL     1      -5.827  -3.074   5.590  0.00  0.00    +0.045 C 
ATOM      6  C   UNL     1      -7.253  -2.960   5.116  0.00  0.00    -0.029 A 
ATOM      7  C   UNL     1      -8.292  -3.291   5.964  0.00  0.00    +0.007 A 
ATOM      8  C   UNL     1      -9.600  -3.191   5.529  0.00  0.00    +0.029 A 
ATOM      9  C   UNL     1      -9.874  -2.756   4.245  0.00  0.00    +0.107 A 
ATOM     10  C   UNL     1      -8.840  -2.418   3.394  0.00  0.00    +0.052 A 
ATOM     11  C   UNL     1      -7.524  -2.517   3.828  0.00  0.00    +0.039 A 
BRANCH   9  12
ATOM     12  S   UNL     1     -11.543  -2.631   3.695  0.00  0.00    +0.056 S 
ATOM     13  O   UNL     1     -12.345  -2.484   4.859  0.00  0.00    -0.153 OA
ATOM     14  O   UNL     1     -11.553  -1.680   2.639  0.00  0.00    -0.153 OA
BRANCH  12  15
ATOM     15  N   UNL     1     -11.947  -4.089   3.022  0.00  0.00    -0.204 NA
ATOM     16  H   UNL     1     -12.866  -4.399   3.053  0.00  0.00    +0.144 HD
ATOM     17  H   UNL     1     -11.266  -4.632   2.597  0.00  0.00    +0.144 HD
ENDBRANCH  12  15
ENDBRANCH   9  12
ENDBRANCH   1  11
BRANCH   2  18
ATOM     18  C   UNL     1      -5.594  -1.767   0.733  0.00  0.00    +0.190 A 
ATOM     19  C   UNL     1      -5.641  -1.773  -0.632  0.00  0.00    +0.055 A 
ATOM     20  C   UNL     1      -4.426  -1.232  -1.080  0.00  0.00    +0.049 A 
ATOM     21  C   UNL     1      -3.696  -0.931   0.017  0.00  0.00    +0.143 A 
ATOM     22  O   UNL     1      -4.405  -1.252   1.107  0.00  0.00    -0.452 OA
BRANCH  21  23
ATOM     23  C   UNL     1      -2.316  -0.327   0.013  0.00  0.00    +0.303 C 
BRANCH  23  24
ATOM     24  O   UNL     1      -2.419   1.098   0.025  0.00  0.00    -0.483 OA
BRANCH  24  25
ATOM     25  C   UNL     1      -1.255   1.801   0.024  0.00  0.00    +0.139 A 
ATOM     26  C   UNL     1      -0.040   1.133   0.011  0.00  0.00    +0.048 A 
ATOM     27  C   UNL     1       1.141   1.849   0.005  0.00  0.00    +0.023 A 
ATOM     28  C   UNL     1       1.113   3.232   0.016  0.00  0.00    +0.043 A 
ATOM     29  C   UNL     1      -0.097   3.902   0.034  0.00  0.00    +0.043 A 
ATOM     30  C   UNL     1      -1.282   3.189   0.041  0.00  0.00    +0.084 A 
ATOM     31 CL   UNL     1      -2.801   4.029   0.063  0.00  0.00    -0.080 Cl
ATOM     32 CL   UNL     1       2.600   4.130   0.008  0.00  0.00    -0.083 Cl
ENDBRANCH  24  25
ENDBRANCH  23  24
ENDBRANCH  21  23
ENDBRANCH   2  18
TORSDOF 7
