REMARK  Name = ZINC16051149
REMARK  10 active torsions:
REMARK  status: ('A' for Active; 'I' for Inactive)
REMARK    1  A    between atoms: C_1  and  C_2
REMARK    2  A    between atoms: C_2  and  C_3
REMARK    3  A    between atoms: C_2  and  C_4
REMARK    4  A    between atoms: C_4  and  C_6
REMARK    5  A    between atoms: C_4  and  N_22
REMARK    6  A    between atoms: C_6  and  O_8
REMARK    7  A    between atoms: O_8  and  C_9
REMARK    8  A    between atoms: C_9  and  C_10
REMARK    9  A    between atoms: N_15  and  C_16
REMARK   10  A    between atoms: C_16  and  C_17
REMARK                            x       y       z     vdW  Elec       q    Type
REMARK                         _______ _______ _______ _____ _____    ______ ____
ROOT
ATOM      1  C   UNL     1      -0.723   1.947   1.250  0.00  0.00    +0.329 C 
ATOM      2  O   UNL     1      -1.164   1.151   2.045  0.00  0.00    -0.249 OA
ENDROOT
BRANCH   1   3
ATOM      3  C   UNL     1      -0.018   1.461   0.010  0.00  0.00    +0.196 C 
BRANCH   3   4
ATOM      4  N   UNL     1       0.002  -0.004   0.002  0.00  0.00    -0.220 N 
ATOM      5  C   UNL     1       0.581  -0.763   0.950  0.00  0.00    +0.255 C 
ATOM      6  O   UNL     1       1.161  -0.348   1.934  0.00  0.00    -0.270 OA
ATOM      7  C   UNL     1       0.391  -2.185   0.596  0.00  0.00    +0.049 A 
ATOM      8  C   UNL     1       0.758  -3.386   1.183  0.00  0.00    +0.014 A 
ATOM      9  C   UNL     1       0.418  -4.582   0.571  0.00  0.00    +0.001 A 
ATOM     10  C   UNL     1      -0.285  -4.585  -0.620  0.00  0.00    +0.001 A 
ATOM     11  C   UNL     1      -0.659  -3.392  -1.218  0.00  0.00    +0.014 A 
ATOM     12  C   UNL     1      -0.326  -2.188  -0.617  0.00  0.00    +0.049 A 
ATOM     13  C   UNL     1      -0.551  -0.768  -0.957  0.00  0.00    +0.255 C 
ATOM     14  O   UNL     1      -1.138  -0.358  -1.939  0.00  0.00    -0.270 OA
ENDBRANCH   3   4
BRANCH   3  16
ATOM     15  C   UNL     1       2.134   1.497  -1.260  0.00  0.00    +0.009 C 
ATOM     16  C   UNL     1       1.418   1.990  -0.001  0.00  0.00    +0.015 C 
ATOM     17  C   UNL     1       1.397   3.520   0.008  0.00  0.00    +0.009 C 
ENDBRANCH   3  16
ENDBRANCH   1   3
BRANCH   1  18
ATOM     18  O   UNL     1      -0.862   3.264   1.471  0.00  0.00    -0.454 OA
BRANCH  18  19
ATOM     19  C   UNL     1      -1.552   3.659   2.685  0.00  0.00    +0.328 C 
BRANCH  19  20
ATOM     20  C   UNL     1      -1.611   5.163   2.762  0.00  0.00    +0.258 C 
ATOM     21  O   UNL     1      -1.120   5.835   1.881  0.00  0.00    -0.272 OA
ATOM     22  N   UNL     1      -2.210   5.761   3.811  0.00  0.00    -0.237 N 
ATOM     23  C   UNL     1      -2.263   7.106   3.880  0.00  0.00    +0.306 C 
ATOM     24  O   UNL     1      -1.770   7.780   2.996  0.00  0.00    -0.252 OA
ATOM     25  N   UNL     1      -2.861   7.704   4.929  0.00  0.00    -0.292 N 
ATOM     26  H   UNL     1      -2.603   5.224   4.517  0.00  0.00    +0.159 HD
ATOM     27  H   UNL     1      -3.254   7.167   5.635  0.00  0.00    +0.151 HD
BRANCH  25  28
ATOM     28  C   UNL     1      -2.919   9.166   5.004  0.00  0.00    +0.180 C 
BRANCH  28  29
ATOM     29  C   UNL     1      -3.635   9.577   6.265  0.00  0.00    +0.122 A 
ATOM     30  C   UNL     1      -3.059   9.801   7.459  0.00  0.00    +0.046 A 
ATOM     31  C   UNL     1      -4.095  10.161   8.352  0.00  0.00    +0.041 A 
ATOM     32  C   UNL     1      -5.241  10.136   7.650  0.00  0.00    +0.195 A 
ATOM     33  O   UNL     1      -4.956   9.787   6.385  0.00  0.00    -0.466 OA
ENDBRANCH  28  29
ENDBRANCH  25  28
ENDBRANCH  19  20
ENDBRANCH  18  19
ENDBRANCH   1  18
TORSDOF 8
