REMARK  Name = ZINC08820531
REMARK  9 active torsions:
REMARK  status: ('A' for Active; 'I' for Inactive)
REMARK    1  A    between atoms: C_4  and  C_7
REMARK    2  A    between atoms: C_8  and  C_9
REMARK    3  A    between atoms: N_13  and  C_17
REMARK    4  A    between atoms: C_17  and  C_18
REMARK    5  A    between atoms: C_18  and  C_19
REMARK    6  A    between atoms: C_19  and  C_20
REMARK    7  A    between atoms: N_22  and  N_23
REMARK    8  A    between atoms: C_24  and  C_26
REMARK    9  A    between atoms: C_31  and  O_32
REMARK                            x       y       z     vdW  Elec       q    Type
REMARK                         _______ _______ _______ _____ _____    ______ ____
ROOT
ATOM      1  C   UNL     1       2.164   5.680   0.012  0.00  0.00    +0.029 C 
ENDROOT
BRANCH   1   2
ATOM      2  C   UNL     1       3.478   6.463   0.004  0.00  0.00    +0.115 C 
BRANCH   2   7
ATOM      3  C   UNL     1       2.575  10.887  -2.062  0.00  0.00    +0.020 C 
ATOM      4  C   UNL     1       2.765   9.983  -1.058  0.00  0.00    +0.077 C 
ATOM      5  C   UNL     1       3.058   8.540  -1.135  0.00  0.00    +0.258 C 
ATOM      6  O   UNL     1       3.169   7.967  -2.203  0.00  0.00    -0.269 OA
ATOM      7  N   UNL     1       3.191   7.899   0.014  0.00  0.00    -0.255 N 
ATOM      8  C   UNL     1       3.074   8.539   1.195  0.00  0.00    +0.121 C 
ATOM      9  S   UNL     1       3.218   7.893   2.774  0.00  0.00    -0.027 S 
ATOM     10  S   UNL     1       2.732  10.224   0.713  0.00  0.00    -0.061 S 
BRANCH   3  12
ATOM     11  C   UNL     1       2.119  13.133  -2.752  0.00  0.00    +0.008 C 
ATOM     12  C   UNL     1       2.308  12.236  -1.755  0.00  0.00    +0.002 C 
BRANCH  11  16
ATOM     13  C   UNL     1       1.315  17.192  -1.827  0.00  0.00    +0.000 A 
ATOM     14  C   UNL     1       1.384  16.788  -3.149  0.00  0.00    +0.001 A 
ATOM     15  C   UNL     1       1.645  15.470  -3.458  0.00  0.00    +0.008 A 
ATOM     16  C   UNL     1       1.841  14.540  -2.431  0.00  0.00    -0.025 A 
ATOM     17  C   UNL     1       1.764  14.956  -1.097  0.00  0.00    +0.008 A 
ATOM     18  C   UNL     1       1.507  16.279  -0.805  0.00  0.00    +0.001 A 
ENDBRANCH  11  16
ENDBRANCH   3  12
ENDBRANCH   2   7
ENDBRANCH   1   2
BRANCH   1  19
ATOM     19  C   UNL     1       2.464   4.179   0.001  0.00  0.00    +0.099 C 
BRANCH  19  20
ATOM     20  C   UNL     1       1.169   3.408   0.009  0.00  0.00    +0.229 C 
ATOM     21  O   UNL     1       0.111   4.000   0.022  0.00  0.00    -0.274 OA
ATOM     22  N   UNL     1       1.187   2.061   0.002  0.00  0.00    -0.234 N 
ATOM     23  H   UNL     1       2.034   1.587  -0.009  0.00  0.00    +0.173 HD
BRANCH  22  24
ATOM     24  N   UNL     1      -0.016   1.344   0.009  0.00  0.00    -0.230 N 
ATOM     25  C   UNL     1       0.002  -0.004   0.002  0.00  0.00    +0.264 C 
ATOM     26  O   UNL     1       1.063  -0.598  -0.011  0.00  0.00    -0.269 OA
ATOM     27  H   UNL     1      -0.863   1.817   0.016  0.00  0.00    +0.173 HD
BRANCH  25  28
ATOM     28  C   UNL     1      -1.265  -0.759   0.010  0.00  0.00    +0.079 A 
ATOM     29  C   UNL     1      -2.487  -0.081   0.031  0.00  0.00    +0.017 A 
ATOM     30  C   UNL     1      -3.667  -0.792   0.034  0.00  0.00    +0.001 A 
ATOM     31  C   UNL     1      -3.649  -2.177   0.026  0.00  0.00    +0.004 A 
ATOM     32  C   UNL     1      -2.449  -2.860   0.010  0.00  0.00    +0.046 A 
ATOM     33  C   UNL     1      -1.251  -2.160   0.002  0.00  0.00    +0.129 A 
BRANCH  33  34
ATOM     34  O   UNL     1      -0.071  -2.830  -0.012  0.00  0.00    -0.506 OA
ATOM     35  H   UNL     1       0.279  -3.028   0.867  0.00  0.00    +0.292 HD
ENDBRANCH  33  34
ENDBRANCH  25  28
ENDBRANCH  22  24
ENDBRANCH  19  20
ENDBRANCH   1  19
TORSDOF 9
