REMARK  Name = ZINC07231104
REMARK  9 active torsions:
REMARK  status: ('A' for Active; 'I' for Inactive)
REMARK    1  A    between atoms: C_1  and  C_2
REMARK    2  A    between atoms: C_2  and  C_3
REMARK    3  A    between atoms: N_5  and  C_6
REMARK    4  A    between atoms: C_9  and  C_12
REMARK    5  A    between atoms: C_12  and  C_14
REMARK    6  A    between atoms: C_14  and  O_15
REMARK    7  A    between atoms: O_15  and  C_16
REMARK    8  A    between atoms: C_16  and  C_18
REMARK    9  A    between atoms: C_22  and  N_27
REMARK                            x       y       z     vdW  Elec       q    Type
REMARK                         _______ _______ _______ _____ _____    ______ ____
ROOT
ATOM      1  C   UNL     1      -5.147   4.960  -0.312  0.00  0.00    +0.311 C 
ENDROOT
BRANCH   1   2
ATOM      2  C   UNL     1      -5.053   3.462  -0.177  0.00  0.00    +0.200 C 
ATOM      3  O   UNL     1      -6.063   2.794  -0.109  0.00  0.00    -0.288 OA
BRANCH   2   7
ATOM      4  C   UNL     1      -1.259   1.584  -0.038  0.00  0.00    +0.033 A 
ATOM      5  C   UNL     1      -1.344   2.968  -0.157  0.00  0.00    +0.024 A 
ATOM      6  C   UNL     1      -2.570   3.580  -0.207  0.00  0.00    +0.013 A 
ATOM      7  C   UNL     1      -3.737   2.811  -0.129  0.00  0.00    +0.021 A 
ATOM      8  C   UNL     1      -3.647   1.419  -0.004  0.00  0.00    +0.013 A 
ATOM      9  C   UNL     1      -2.417   0.815   0.041  0.00  0.00    +0.024 A 
BRANCH   4  12
ATOM     10  C   UNL     1       1.022   1.578   0.619  0.00  0.00    +0.217 C 
ATOM     11  O   UNL     1       0.887   2.699   1.061  0.00  0.00    -0.275 OA
ATOM     12  N   UNL     1      -0.011   0.966   0.007  0.00  0.00    -0.286 N 
ATOM     13  H   UNL     1       0.115   0.097  -0.405  0.00  0.00    +0.155 HD
BRANCH  10  15
ATOM     14  C   UNL     1       3.339   1.778   1.479  0.00  0.00    +0.013 C 
ATOM     15  C   UNL     1       2.346   0.870   0.753  0.00  0.00    +0.093 C 
ENDBRANCH  10  15
ENDBRANCH   4  12
ENDBRANCH   2   7
ENDBRANCH   1   2
BRANCH   1  16
ATOM     16  O   UNL     1      -6.544   5.357  -0.337  0.00  0.00    -0.453 OA
BRANCH  16  17
ATOM     17  C   UNL     1      -6.804   6.675  -0.454  0.00  0.00    +0.346 C 
ATOM     18  O   UNL     1      -5.888   7.470  -0.533  0.00  0.00    -0.244 OA
BRANCH  17  19
ATOM     19  C   UNL     1      -8.193   7.149  -0.486  0.00  0.00    +0.097 A 
ATOM     20  C   UNL     1      -8.651   8.425  -0.598  0.00  0.00    +0.031 A 
ATOM     21  C   UNL     1     -10.035   8.675  -0.610  0.00  0.00    -0.008 A 
ATOM     22  C   UNL     1     -10.701   9.923  -0.718  0.00  0.00    +0.041 A 
ATOM     23  C   UNL     1     -12.057   9.989  -0.713  0.00  0.00    +0.127 A 
ATOM     24  C   UNL     1     -12.842   8.848  -0.605  0.00  0.00    +0.034 A 
ATOM     25  C   UNL     1     -12.236   7.613  -0.498  0.00  0.00    +0.018 A 
ATOM     26  C   UNL     1     -10.859   7.529  -0.501  0.00  0.00    +0.020 A 
ATOM     27  S   UNL     1      -9.697   6.192  -0.396  0.00  0.00    -0.082 S 
BRANCH  23  28
ATOM     28  N   UNL     1     -12.716  11.310  -0.828  0.00  0.00    +0.056 N 
ATOM     29  O   UNL     1     -13.931  11.387  -0.826  0.00  0.00    -0.126 OA
ATOM     30  O   UNL     1     -12.042  12.320  -0.923  0.00  0.00    -0.126 OA
ENDBRANCH  23  28
ENDBRANCH  17  19
ENDBRANCH  16  17
ENDBRANCH   1  16
TORSDOF 8
