REMARK  Name = ZINC41006626
REMARK  7 active torsions:
REMARK  status: ('A' for Active; 'I' for Inactive)
REMARK    1  A    between atoms: C_1  and  C_2
REMARK    2  A    between atoms: C_2  and  C_4
REMARK    3  A    between atoms: C_2  and  O_24
REMARK    4  A    between atoms: C_10  and  C_15
REMARK    5  A    between atoms: C_15  and  O_16
REMARK    6  A    between atoms: O_16  and  C_17
REMARK    7  A    between atoms: O_24  and  C_25
REMARK                            x       y       z     vdW  Elec       q    Type
REMARK                         _______ _______ _______ _____ _____    ______ ____
ROOT
ATOM      1  C   UNL     1       0.626  -0.282  -1.345  0.00  0.00    +0.259 C 
ATOM      2  O   UNL     1      -0.044  -0.755  -2.238  0.00  0.00    -0.271 OA
ATOM      3  N   UNL     1       1.927   0.000  -1.555  0.00  0.00    -0.260 N 
ATOM      4  C   UNL     1       2.500  -0.249  -2.796  0.00  0.00    +0.188 A 
ATOM      5  N   UNL     1       3.730  -0.050  -3.187  0.00  0.00    -0.140 NA
ATOM      6  N   UNL     1       4.135  -0.361  -4.479  0.00  0.00    -0.185 N 
ATOM      7  C   UNL     1       5.266  -0.316  -5.267  0.00  0.00    +0.193 A 
ATOM      8  N   UNL     1       4.955  -0.779  -6.446  0.00  0.00    -0.128 NA
ATOM      9  N   UNL     1       3.712  -1.117  -6.472  0.00  0.00    -0.120 NA
ATOM     10  C   UNL     1       3.178  -0.883  -5.312  0.00  0.00    +0.220 A 
ATOM     11  S   UNL     1       1.746  -0.932  -4.264  0.00  0.00    -0.011 S 
ATOM     12  H   UNL     1       2.463   0.378  -0.841  0.00  0.00    +0.157 HD
ENDROOT
BRANCH   1  14
ATOM     13  C   UNL     1       0.004   1.495   0.269  0.00  0.00    +0.062 C 
ATOM     14  C   UNL     1       0.005  -0.012   0.001  0.00  0.00    +0.256 C 
BRANCH  14  15
ATOM     15  O   UNL     1      -1.339  -0.499   0.012  0.00  0.00    -0.480 OA
BRANCH  15  16
ATOM     16  C   UNL     1      -1.869  -0.818   1.222  0.00  0.00    +0.122 A 
ATOM     17  C   UNL     1      -3.124  -1.405   1.297  0.00  0.00    +0.048 A 
ATOM     18  C   UNL     1      -3.662  -1.729   2.527  0.00  0.00    +0.042 A 
ATOM     19  C   UNL     1      -2.951  -1.467   3.686  0.00  0.00    +0.124 A 
ATOM     20  C   UNL     1      -1.699  -0.880   3.613  0.00  0.00    +0.042 A 
ATOM     21  C   UNL     1      -1.155  -0.561   2.383  0.00  0.00    +0.048 A 
ATOM     22  F   UNL     1      -3.478  -1.784   4.888  0.00  0.00    -0.205 F 
ENDBRANCH  15  16
ENDBRANCH  14  15
ENDBRANCH   1  14
BRANCH   7  23
ATOM     23  C   UNL     1       6.623   0.182  -4.841  0.00  0.00    +0.307 C 
BRANCH  23  24
ATOM     24  O   UNL     1       7.381  -0.904  -4.304  0.00  0.00    -0.484 OA
BRANCH  24  25
ATOM     25  C   UNL     1       8.638  -0.623  -3.870  0.00  0.00    +0.121 A 
ATOM     26  C   UNL     1       9.129   0.672  -3.954  0.00  0.00    +0.047 A 
ATOM     27  C   UNL     1      10.407   0.955  -3.512  0.00  0.00    +0.023 A 
ATOM     28  C   UNL     1      11.197  -0.052  -2.986  0.00  0.00    +0.041 A 
ATOM     29  C   UNL     1      10.710  -1.344  -2.902  0.00  0.00    +0.023 A 
ATOM     30  C   UNL     1       9.430  -1.630  -3.337  0.00  0.00    +0.047 A 
ATOM     31 CL   UNL     1      12.803   0.307  -2.433  0.00  0.00    -0.084 Cl
ENDBRANCH  24  25
ENDBRANCH  23  24
ENDBRANCH   7  23
TORSDOF 6
