REMARK  Name = ZINC13200927
REMARK  10 active torsions:
REMARK  status: ('A' for Active; 'I' for Inactive)
REMARK    1  A    between atoms: C_1  and  C_2
REMARK    2  A    between atoms: C_2  and  C_4
REMARK    3  A    between atoms: C_2  and  S_18
REMARK    4  A    between atoms: N_6  and  C_7
REMARK    5  A    between atoms: S_18  and  C_19
REMARK    6  A    between atoms: C_22  and  C_27
REMARK    7  A    between atoms: N_23  and  C_24
REMARK    8  A    between atoms: C_24  and  C_25
REMARK    9  A    between atoms: C_30  and  O_33
REMARK   10  A    between atoms: O_33  and  C_34
REMARK                            x       y       z     vdW  Elec       q    Type
REMARK                         _______ _______ _______ _____ _____    ______ ____
ROOT
ATOM      1  S   UNL     1      -0.797   1.795   1.539  0.00  0.00    -0.074 S 
ENDROOT
BRANCH   1   2
ATOM      2  C   UNL     1       0.109   0.888   2.748  0.00  0.00    +0.193 A 
ATOM      3  N   UNL     1       1.105   0.063   2.518  0.00  0.00    -0.122 NA
ATOM      4  N   UNL     1       1.539  -0.424   3.626  0.00  0.00    -0.128 NA
ATOM      5  C   UNL     1       0.840   0.052   4.630  0.00  0.00    +0.165 A 
ATOM      6  N   UNL     1      -0.098   0.907   4.099  0.00  0.00    -0.291 N 
BRANCH   5   7
ATOM      7  C   UNL     1       1.026  -0.269   6.060  0.00  0.00    +0.020 A 
ATOM      8  C   UNL     1       2.236  -0.803   6.506  0.00  0.00    +0.015 A 
ATOM      9  C   UNL     1       2.408  -1.096   7.842  0.00  0.00    +0.046 A 
ATOM     10  C   UNL     1       1.374  -0.872   8.742  0.00  0.00    +0.120 A 
ATOM     11  C   UNL     1       0.167  -0.346   8.302  0.00  0.00    +0.046 A 
ATOM     12  C   UNL     1      -0.011  -0.045   6.968  0.00  0.00    +0.015 A 
BRANCH  10  13
ATOM     13  O   UNL     1       1.545  -1.167  10.057  0.00  0.00    -0.495 OA
ATOM     14  C   UNL     1       2.812  -1.704  10.442  0.00  0.00    +0.277 C 
ENDBRANCH  10  13
ENDBRANCH   5   7
BRANCH   6  15
ATOM     15  C   UNL     1      -1.107   1.678   4.829  0.00  0.00    +0.250 C 
BRANCH  15  16
ATOM     16  C   UNL     1      -2.386   0.884   4.905  0.00  0.00    +0.375 C 
ATOM     17  O   UNL     1      -2.448  -0.212   4.402  0.00  0.00    -0.244 OA
ATOM     18  O   UNL     1      -3.457   1.396   5.533  0.00  0.00    -0.244 OA
ENDBRANCH  15  16
ENDBRANCH   6  15
ENDBRANCH   1   2
BRANCH   1  20
ATOM     19  C   UNL     1       1.500   1.739   0.063  0.00  0.00    +0.029 C 
ATOM     20  C   UNL     1       0.051   1.250   0.036  0.00  0.00    +0.137 C 
BRANCH  20  21
ATOM     21  C   UNL     1      -0.649   1.819  -1.171  0.00  0.00    +0.227 C 
ATOM     22  O   UNL     1      -1.300   2.838  -1.070  0.00  0.00    -0.275 OA
ATOM     23  N   UNL     1      -0.553   1.196  -2.362  0.00  0.00    -0.308 N 
ATOM     24  H   UNL     1      -0.034   0.381  -2.442  0.00  0.00    +0.149 HD
BRANCH  23  25
ATOM     25  C   UNL     1      -1.234   1.750  -3.535  0.00  0.00    +0.103 C 
ATOM     26  C   UNL     1      -1.530   0.624  -4.524  0.00  0.00    +0.027 C 
ATOM     27  C   UNL     1      -2.042   1.247  -5.828  0.00  0.00    +0.007 C 
ATOM     28  C   UNL     1      -0.880   1.971  -6.504  0.00  0.00    +0.035 C 
ATOM     29  C   UNL     1      -0.200   2.902  -5.535  0.00  0.00    -0.042 A 
ATOM     30  C   UNL     1      -0.357   2.796  -4.171  0.00  0.00    -0.024 A 
ATOM     31  C   UNL     1       0.310   3.678  -3.331  0.00  0.00    +0.006 A 
ATOM     32  C   UNL     1       1.125   4.662  -3.852  0.00  0.00    +0.000 A 
ATOM     33  C   UNL     1       1.279   4.771  -5.221  0.00  0.00    +0.000 A 
ATOM     34  C   UNL     1       0.619   3.895  -6.058  0.00  0.00    +0.004 A 
ENDBRANCH  23  25
ENDBRANCH  20  21
ENDBRANCH   1  20
TORSDOF 8
