REMARK  Name = ZINC04867097
REMARK  11 active torsions:
REMARK  status: ('A' for Active; 'I' for Inactive)
REMARK    1  A    between atoms: C_1  and  C_2
REMARK    2  A    between atoms: C_2  and  N_3
REMARK    3  A    between atoms: N_3  and  C_4
REMARK    4  A    between atoms: C_4  and  C_5
REMARK    5  A    between atoms: C_6  and  C_8
REMARK    6  A    between atoms: C_9  and  C_27
REMARK    7  A    between atoms: C_14  and  C_16
REMARK    8  A    between atoms: C_18  and  O_24
REMARK    9  A    between atoms: C_19  and  O_23
REMARK   10  A    between atoms: O_24  and  C_25
REMARK   11  A    between atoms: C_25  and  C_26
REMARK                            x       y       z     vdW  Elec       q    Type
REMARK                         _______ _______ _______ _____ _____    ______ ____
ROOT
ATOM      1  C   UNL     1      -3.123   0.604   1.877  0.00  0.00    +0.056 C 
ATOM      2  C   UNL     1      -2.927  -0.426   2.725  0.00  0.00    +0.019 C 
ATOM      3  N   UNL     1      -2.721  -1.694   2.258  0.00  0.00    -0.273 N 
ATOM      4  C   UNL     1      -2.695  -2.011   0.958  0.00  0.00    +0.304 C 
ATOM      5  O   UNL     1      -2.503  -3.168   0.638  0.00  0.00    -0.252 OA
ATOM      6  N   UNL     1      -2.875  -1.089  -0.009  0.00  0.00    -0.288 N 
ATOM      7  C   UNL     1      -3.106   0.310   0.391  0.00  0.00    +0.143 C 
ATOM      8  C   UNL     1      -2.937  -0.176   4.211  0.00  0.00    +0.061 C 
ATOM      9  H   UNL     1      -2.584  -2.403   2.905  0.00  0.00    +0.156 HD
ATOM     10  H   UNL     1      -2.852  -1.340  -0.946  0.00  0.00    +0.151 HD
ENDROOT
BRANCH   7  11
ATOM     11  C   UNL     1      -2.030   1.157  -0.238  0.00  0.00    -0.001 A 
ATOM     12  C   UNL     1      -0.766   0.632  -0.436  0.00  0.00    +0.056 A 
ATOM     13  C   UNL     1       0.223   1.407  -1.020  0.00  0.00    +0.162 A 
ATOM     14  C   UNL     1      -0.057   2.716  -1.401  0.00  0.00    +0.160 A 
ATOM     15  C   UNL     1      -1.323   3.238  -1.196  0.00  0.00    +0.069 A 
ATOM     16  C   UNL     1      -2.307   2.459  -0.612  0.00  0.00    +0.050 A 
ATOM     17 CL   UNL     1      -3.893   3.115  -0.355  0.00  0.00    -0.083 Cl
BRANCH  14  18
ATOM     18  O   UNL     1       0.911   3.480  -1.974  0.00  0.00    -0.503 OA
ATOM     19  H   UNL     1       0.943   3.415  -2.938  0.00  0.00    +0.292 HD
ENDBRANCH  14  18
BRANCH  13  20
ATOM     20  O   UNL     1       1.465   0.890  -1.219  0.00  0.00    -0.489 OA
BRANCH  20  21
ATOM     21  C   UNL     1       1.680  -0.460  -0.802  0.00  0.00    +0.226 C 
ATOM     22  C   UNL     1       3.125  -0.863  -1.105  0.00  0.00    +0.048 C 
ENDBRANCH  20  21
ENDBRANCH  13  20
ENDBRANCH   7  11
BRANCH   1  24
ATOM     23  N   UNL     1      -2.340   2.578   2.983  0.00  0.00    -0.298 N 
ATOM     24  C   UNL     1      -3.337   1.919   2.361  0.00  0.00    +0.246 C 
ATOM     25  O   UNL     1      -4.421   2.453   2.214  0.00  0.00    -0.270 OA
BRANCH  23  27
ATOM     26  C   UNL     1      -3.029   3.687   5.051  0.00  0.00    +0.024 C 
ATOM     27  C   UNL     1      -2.596   3.884   3.597  0.00  0.00    +0.104 C 
ENDBRANCH  23  27
BRANCH  23  28
ATOM     28  C   UNL     1      -1.000   1.990   3.046  0.00  0.00    +0.104 C 
ATOM     29  C   UNL     1      -0.133   2.572   1.928  0.00  0.00    +0.024 C 
ENDBRANCH  23  28
ENDBRANCH   1  24
TORSDOF 7
