REMARK  Name = ZINC39446908
REMARK  5 active torsions:
REMARK  status: ('A' for Active; 'I' for Inactive)
REMARK    1  A    between atoms: C_4  and  C_7
REMARK    2  A    between atoms: C_7  and  O_35
REMARK    3  A    between atoms: N_10  and  C_19
REMARK    4  A    between atoms: C_19  and  C_20
REMARK    5  A    between atoms: C_25  and  C_26
REMARK                            x       y       z     vdW  Elec       q    Type
REMARK                         _______ _______ _______ _____ _____    ______ ____
ROOT
ATOM      1  C   UNL     1       4.001  -0.441  -1.383  0.00  0.00    +0.091 C 
ATOM      2  C   UNL     1       4.135  -1.216  -2.697  0.00  0.00    +0.021 C 
ATOM      3  C   UNL     1       2.995  -2.231  -2.803  0.00  0.00    -0.075 C 
ATOM      4  N   UNL     1       3.060  -3.165  -1.673  0.00  0.00    +0.383 N 
ATOM      5  C   UNL     1       2.860  -2.439  -0.414  0.00  0.00    -0.062 C 
ATOM      6  C   UNL     1       3.995  -1.432  -0.216  0.00  0.00    +0.012 C 
ATOM      7  C   UNL     1       3.780  -0.673   1.095  0.00  0.00    +0.005 C 
ATOM      8  C   UNL     1       3.768  -1.663   2.261  0.00  0.00    +0.000 C 
ATOM      9  C   UNL     1       2.633  -2.670   2.063  0.00  0.00    -0.002 C 
ATOM     10  C   UNL     1       2.847  -3.429   0.752  0.00  0.00    -0.015 C 
ATOM     11  H   UNL     1       3.963  -3.615  -1.661  0.00  0.00    -0.081 HD
ENDROOT
BRANCH   1  15
ATOM     12  C   UNL     1       0.347   1.772  -1.398  0.00  0.00    +0.000 A 
ATOM     13  C   UNL     1       1.204   1.859  -0.317  0.00  0.00    +0.000 A 
ATOM     14  C   UNL     1       2.386   1.143  -0.311  0.00  0.00    +0.006 A 
ATOM     15  C   UNL     1       2.712   0.339  -1.388  0.00  0.00    -0.016 A 
ATOM     16  C   UNL     1       1.855   0.252  -2.469  0.00  0.00    +0.006 A 
ATOM     17  C   UNL     1       0.673   0.969  -2.475  0.00  0.00    +0.000 A 
ENDBRANCH   1  15
BRANCH   1  18
ATOM     18  O   UNL     1       5.103   0.458  -1.242  0.00  0.00    -0.384 OA
ATOM     19  H   UNL     1       5.169   1.113  -1.949  0.00  0.00    +0.211 HD
ENDBRANCH   1  18
BRANCH   4  20
ATOM     20  C   UNL     1       2.011  -4.184  -1.821  0.00  0.00    -0.063 C 
BRANCH  20  21
ATOM     21  C   UNL     1       0.652  -3.497  -1.977  0.00  0.00    +0.066 C 
ATOM     22  C   UNL     1       0.086  -3.121  -0.623  0.00  0.00    +0.115 C 
ATOM     23  N   UNL     1      -1.025  -3.773  -0.504  0.00  0.00    -0.161 NA
ATOM     24  N   UNL     1      -1.301  -4.562  -1.616  0.00  0.00    -0.153 NA
ATOM     25  C   UNL     1      -0.373  -4.464  -2.535  0.00  0.00    +0.077 C 
BRANCH  25  26
ATOM     26  C   UNL     1      -0.332  -5.148  -3.836  0.00  0.00    +0.002 A 
ATOM     27  C   UNL     1       0.743  -4.937  -4.706  0.00  0.00    +0.013 A 
ATOM     28  C   UNL     1       0.779  -5.580  -5.924  0.00  0.00    +0.050 A 
ATOM     29  C   UNL     1      -0.249  -6.438  -6.293  0.00  0.00    +0.166 A 
ATOM     30  C   UNL     1      -1.325  -6.653  -5.430  0.00  0.00    +0.167 A 
ATOM     31  C   UNL     1      -1.365  -6.017  -4.205  0.00  0.00    +0.059 A 
ATOM     32  O   UNL     1      -2.189  -7.528  -6.022  0.00  0.00    -0.453 OA
ATOM     33  C   UNL     1      -1.839  -7.528  -7.419  0.00  0.00    +0.466 C 
ATOM     34  O   UNL     1      -0.443  -7.178  -7.422  0.00  0.00    -0.453 OA
ENDBRANCH  25  26
ENDBRANCH  20  21
ENDBRANCH   4  20
TORSDOF 5
