REMARK  Name = ZINC59403397
REMARK  9 active torsions:
REMARK  status: ('A' for Active; 'I' for Inactive)
REMARK    1  A    between atoms: C_1  and  C_2
REMARK    2  A    between atoms: C_2  and  C_3
REMARK    3  A    between atoms: C_3  and  C_4
REMARK    4  A    between atoms: C_4  and  C_5
REMARK    5  A    between atoms: C_5  and  N_6
REMARK    6  A    between atoms: C_15  and  C_17
REMARK    7  A    between atoms: N_19  and  C_20
REMARK    8  A    between atoms: C_23  and  C_26
REMARK    9  A    between atoms: C_30  and  C_32
REMARK                            x       y       z     vdW  Elec       q    Type
REMARK                         _______ _______ _______ _____ _____    ______ ____
ROOT
ATOM      1  N   UNL     1      -2.814  -4.058   0.007  0.00  0.00    -0.228 N 
ATOM      2  C   UNL     1      -2.813  -4.719   1.182  0.00  0.00    +0.275 A 
ATOM      3  O   UNL     1      -2.815  -4.108   2.235  0.00  0.00    -0.266 OA
ATOM      4  C   UNL     1      -2.809  -6.188   1.173  0.00  0.00    +0.050 A 
ATOM      5  C   UNL     1      -2.808  -6.932   2.353  0.00  0.00    +0.014 A 
ATOM      6  C   UNL     1      -2.805  -8.308   2.288  0.00  0.00    +0.001 A 
ATOM      7  C   UNL     1      -2.803  -8.959   1.061  0.00  0.00    +0.001 A 
ATOM      8  C   UNL     1      -2.804  -8.243  -0.116  0.00  0.00    +0.011 A 
ATOM      9  C   UNL     1      -2.807  -6.850  -0.074  0.00  0.00    +0.020 A 
ATOM     10  C   UNL     1      -2.808  -6.038  -1.301  0.00  0.00    +0.158 A 
ATOM     11  N   UNL     1      -2.817  -4.729  -1.216  0.00  0.00    -0.163 NA
ENDROOT
BRANCH  10  12
ATOM     12  C   UNL     1      -2.806  -6.693  -2.621  0.00  0.00    +0.301 C 
ATOM     13  O   UNL     1      -2.929  -5.951  -3.744  0.00  0.00    -0.263 OA
ATOM     14  N   UNL     1      -2.685  -7.998  -2.706  0.00  0.00    -0.170 NA
BRANCH  14  15
ATOM     15  C   UNL     1      -2.683  -8.602  -3.923  0.00  0.00    +0.250 A 
ATOM     16  N   UNL     1      -2.794  -7.998  -5.091  0.00  0.00    -0.188 NA
ATOM     17  H   UNL     1      -2.458 -10.638  -3.491  0.00  0.00    +0.192 HD
ATOM     18  C   UNL     1      -2.751  -8.905  -6.074  0.00  0.00    +0.201 A 
ATOM     19  N   UNL     1      -2.612 -10.103  -5.549  0.00  0.00    -0.149 NA
ATOM     20  N   UNL     1      -2.560  -9.939  -4.156  0.00  0.00    -0.243 N 
BRANCH  18  21
ATOM     21  C   UNL     1      -2.846  -8.608  -7.524  0.00  0.00    +0.110 A 
ATOM     22  C   UNL     1      -2.794  -9.649  -8.448  0.00  0.00    +0.031 A 
ATOM     23  C   UNL     1      -2.884  -9.356  -9.798  0.00  0.00    +0.004 A 
ATOM     24  C   UNL     1      -3.024  -8.029 -10.180  0.00  0.00    +0.023 A 
ATOM     25  C   UNL     1      -3.068  -7.045  -9.209  0.00  0.00    +0.039 A 
ATOM     26  N   UNL     1      -2.986  -7.353  -7.930  0.00  0.00    -0.249 NA
ATOM     27  C   UNL     1      -3.220  -5.603  -9.619  0.00  0.00    +0.065 C 
ENDBRANCH  18  21
ENDBRANCH  14  15
ENDBRANCH  10  12
BRANCH   1  28
ATOM     28  C   UNL     1      -2.818  -2.593   0.015  0.00  0.00    +0.147 C 
BRANCH  28  29
ATOM     29  C   UNL     1      -1.377  -2.079   0.012  0.00  0.00    +0.023 C 
BRANCH  29  30
ATOM     30  C   UNL     1      -1.381  -0.549   0.021  0.00  0.00    +0.002 C 
BRANCH  30  32
ATOM     31  C   UNL     1       0.056   1.495   0.026  0.00  0.00    +0.004 C 
ATOM     32  C   UNL     1       0.060  -0.035   0.017  0.00  0.00    -0.003 C 
ENDBRANCH  30  32
ENDBRANCH  29  30
ENDBRANCH  28  29
ENDBRANCH   1  28
TORSDOF 7
