REMARK  Name = ZINC12411018
REMARK  13 active torsions:
REMARK  status: ('A' for Active; 'I' for Inactive)
REMARK    1  A    between atoms: C_1  and  C_2
REMARK    2  A    between atoms: C_2  and  O_3
REMARK    3  A    between atoms: O_3  and  C_4
REMARK    4  A    between atoms: C_4  and  C_6
REMARK    5  A    between atoms: C_9  and  N_12
REMARK    6  A    between atoms: C_13  and  C_15
REMARK    7  A    between atoms: C_15  and  C_16
REMARK    8  A    between atoms: C_16  and  C_31
REMARK    9  A    between atoms: N_17  and  N_18
REMARK   10  A    between atoms: C_19  and  C_21
REMARK   11  A    between atoms: C_21  and  O_22
REMARK   12  A    between atoms: O_22  and  C_23
REMARK   13  A    between atoms: C_27  and  C_29
REMARK                            x       y       z     vdW  Elec       q    Type
REMARK                         _______ _______ _______ _____ _____    ______ ____
ROOT
ATOM      1  C   UNL     1      -0.134   1.337   4.981  0.00  0.00    +0.043 C 
ATOM      2  N   UNL     1      -0.470   1.539   3.763  0.00  0.00    -0.189 NA
ATOM      3  C   UNL     1       1.137   0.591   5.298  0.00  0.00    +0.063 C 
ENDROOT
BRANCH   2   4
ATOM      4  N   UNL     1       0.343   1.067   2.724  0.00  0.00    -0.204 N 
ATOM      5  C   UNL     1      -0.011   1.279   1.441  0.00  0.00    +0.270 C 
ATOM      6  O   UNL     1      -1.034   1.879   1.186  0.00  0.00    -0.270 OA
ATOM      7  H   UNL     1       1.161   0.587   2.928  0.00  0.00    +0.177 HD
BRANCH   5   8
ATOM      8  C   UNL     1       0.864   0.772   0.324  0.00  0.00    +0.326 C 
BRANCH   8   9
ATOM      9  O   UNL     1       0.280   1.119  -0.933  0.00  0.00    -0.483 OA
BRANCH   9  10
ATOM     10  C   UNL     1       0.948   0.732  -2.052  0.00  0.00    +0.122 A 
ATOM     11  C   UNL     1       2.144   0.038  -1.941  0.00  0.00    +0.047 A 
ATOM     12  C   UNL     1       2.819  -0.359  -3.079  0.00  0.00    +0.019 A 
ATOM     13  C   UNL     1       2.309  -0.055  -4.329  0.00  0.00    +0.021 A 
ATOM     14  C   UNL     1       1.119   0.642  -4.441  0.00  0.00    -0.033 A 
ATOM     15  C   UNL     1       0.438   1.036  -3.306  0.00  0.00    +0.050 A 
ATOM     16  C   UNL     1       0.566   0.971  -5.804  0.00  0.00    +0.045 C 
ATOM     17 BR   UNL     1       3.239  -0.594  -5.885  0.00  0.00    -0.050 Br
ENDBRANCH   9  10
ENDBRANCH   8   9
ENDBRANCH   5   8
ENDBRANCH   2   4
BRANCH   1  18
ATOM     18  C   UNL     1      -1.009   1.844   6.098  0.00  0.00    +0.148 C 
BRANCH  18  20
ATOM     19  N   UNL     1      -2.383   0.890   7.920  0.00  0.00    -0.285 N 
ATOM     20  C   UNL     1      -1.567   0.676   6.869  0.00  0.00    +0.223 C 
ATOM     21  O   UNL     1      -1.283  -0.457   6.543  0.00  0.00    -0.275 OA
ATOM     22  H   UNL     1      -2.549   1.795   8.229  0.00  0.00    +0.155 HD
BRANCH  19  26
ATOM     23  C   UNL     1      -4.189  -2.331   9.847  0.00  0.00    +0.059 A 
ATOM     24  C   UNL     1      -3.817  -1.198  10.576  0.00  0.00    +0.017 A 
ATOM     25  C   UNL     1      -3.220  -0.135   9.936  0.00  0.00    +0.024 A 
ATOM     26  C   UNL     1      -2.987  -0.188   8.565  0.00  0.00    +0.033 A 
ATOM     27  C   UNL     1      -3.362  -1.312   7.835  0.00  0.00    +0.024 A 
ATOM     28  C   UNL     1      -3.954  -2.380   8.469  0.00  0.00    +0.017 A 
BRANCH  23  29
ATOM     29  C   UNL     1      -4.829  -3.471  10.528  0.00  0.00    +0.339 C 
ATOM     30  O   UNL     1      -5.032  -3.427  11.726  0.00  0.00    -0.245 OA
BRANCH  29  31
ATOM     31  O   UNL     1      -5.187  -4.563   9.824  0.00  0.00    -0.461 OA
BRANCH  31  33
ATOM     32  C   UNL     1      -6.145  -6.790   9.600  0.00  0.00    +0.048 C 
ATOM     33  C   UNL     1      -5.811  -5.647  10.561  0.00  0.00    +0.229 C 
ENDBRANCH  31  33
ENDBRANCH  29  31
ENDBRANCH  23  29
ENDBRANCH  19  26
ENDBRANCH  18  20
ENDBRANCH   1  18
TORSDOF 10
