REMARK  Name = ZINC23157169
REMARK  10 active torsions:
REMARK  status: ('A' for Active; 'I' for Inactive)
REMARK    1  A    between atoms: C_1  and  C_2
REMARK    2  A    between atoms: C_8  and  C_10
REMARK    3  A    between atoms: C_10  and  C_12
REMARK    4  A    between atoms: C_10  and  N_21
REMARK    5  A    between atoms: C_15  and  C_18
REMARK    6  A    between atoms: C_18  and  C_19
REMARK    7  A    between atoms: C_18  and  C_20
REMARK    8  A    between atoms: C_24  and  C_27
REMARK    9  A    between atoms: C_27  and  O_29
REMARK   10  A    between atoms: O_29  and  C_30
REMARK                            x       y       z     vdW  Elec       q    Type
REMARK                         _______ _______ _______ _____ _____    ______ ____
ROOT
ATOM      1  C   UNL     1      -1.154  -0.971   0.009  0.00  0.00    +0.006 C 
ENDROOT
BRANCH   1   9
ATOM      2  C   UNL     1       5.247   2.859  -0.034  0.00  0.00    +0.090 C 
ATOM      3  C   UNL     1       3.878   2.229  -0.024  0.00  0.00    +0.150 A 
ATOM      4  N   UNL     1       2.724   2.893  -0.009  0.00  0.00    -0.205 NA
ATOM      5  C   UNL     1       1.736   2.040  -0.004  0.00  0.00    +0.199 A 
ATOM      6  N   UNL     1       2.228   0.771  -0.015  0.00  0.00    -0.170 N 
ATOM      7  N   UNL     1       3.636   0.945  -0.027  0.00  0.00    -0.147 NA
ATOM      8  C   UNL     1       1.316  -0.258  -0.012  0.00  0.00    +0.282 A 
ATOM      9  C   UNL     1       0.002  -0.004   0.002  0.00  0.00    +0.050 A 
ATOM     10  S   UNL     1      -0.022   1.782   0.012  0.00  0.00    -0.050 S 
ATOM     11  O   UNL     1       1.753  -1.546  -0.023  0.00  0.00    -0.265 OA
ENDBRANCH   1   9
BRANCH   1  12
ATOM     12  N   UNL     1      -2.167  -0.530  -0.959  0.00  0.00    +0.387 N 
ATOM     13  C   UNL     1      -3.354  -1.393  -0.909  0.00  0.00    -0.077 C 
ATOM     14  C   UNL     1      -4.442  -0.821  -1.820  0.00  0.00    -0.004 C 
ATOM     15  C   UNL     1      -3.909  -0.737  -3.253  0.00  0.00    +0.094 C 
ATOM     16  C   UNL     1      -2.646   0.129  -3.269  0.00  0.00    -0.004 C 
ATOM     17  C   UNL     1      -1.610  -0.471  -2.316  0.00  0.00    -0.077 C 
ATOM     18  H   UNL     1      -2.481   0.488  -0.681  0.00  0.00    -0.080 HD
BRANCH  15  19
ATOM     19  C   UNL     1      -4.954  -0.119  -4.145  0.00  0.00    +0.310 C 
ATOM     20  O   UNL     1      -4.715   0.908  -4.734  0.00  0.00    -0.251 OA
BRANCH  19  21
ATOM     21  O   UNL     1      -6.151  -0.710  -4.285  0.00  0.00    -0.468 OA
ATOM     22  C   UNL     1      -7.109  -0.058  -5.161  0.00  0.00    +0.280 C 
ENDBRANCH  19  21
ENDBRANCH  15  19
ENDBRANCH   1  12
BRANCH   1  23
ATOM     23  C   UNL     1      -1.761  -1.019   1.387  0.00  0.00    -0.056 A 
ATOM     24  C   UNL     1      -2.630  -0.023   1.794  0.00  0.00    +0.002 A 
ATOM     25  C   UNL     1      -3.191  -0.069   3.056  0.00  0.00    +0.004 A 
ATOM     26  C   UNL     1      -2.875  -1.105   3.916  0.00  0.00    -0.045 A 
ATOM     27  C   UNL     1      -2.003  -2.098   3.511  0.00  0.00    +0.004 A 
ATOM     28  C   UNL     1      -1.446  -2.054   2.246  0.00  0.00    +0.002 A 
BRANCH  26  29
ATOM     29  C   UNL     1      -3.482  -1.152   5.294  0.00  0.00    +0.013 C 
ATOM     30  C   UNL     1      -3.085   0.106   6.069  0.00  0.00    +0.012 C 
ATOM     31  C   UNL     1      -5.006  -1.220   5.178  0.00  0.00    +0.012 C 
ENDBRANCH  26  29
ENDBRANCH   1  23
TORSDOF 6
