REMARK  Name = ZINC05341287
REMARK  12 active torsions:
REMARK  status: ('A' for Active; 'I' for Inactive)
REMARK    1  A    between atoms: C_4  and  C_7
REMARK    2  A    between atoms: C_7  and  O_8
REMARK    3  A    between atoms: O_8  and  C_9
REMARK    4  A    between atoms: C_9  and  C_11
REMARK    5  A    between atoms: C_11  and  N_12
REMARK    6  A    between atoms: C_13  and  C_15
REMARK    7  A    between atoms: C_15  and  N_16
REMARK    8  A    between atoms: C_17  and  C_19
REMARK    9  A    between atoms: N_24  and  S_25
REMARK   10  A    between atoms: S_25  and  C_26
REMARK   11  A    between atoms: C_29  and  N_35
REMARK   12  A    between atoms: C_31  and  N_32
REMARK                            x       y       z     vdW  Elec       q    Type
REMARK                         _______ _______ _______ _____ _____    ______ ____
ROOT
ATOM      1  N   UNL     1       9.479  -3.639   5.204  0.00  0.00    -0.305 N 
ATOM      2  C   UNL     1      10.628  -4.337   5.288  0.00  0.00    +0.232 C 
ATOM      3  O   UNL     1      11.230  -4.638   4.278  0.00  0.00    -0.274 OA
ATOM      4  H   UNL     1       8.997  -3.398   6.011  0.00  0.00    +0.149 HD
ENDROOT
BRANCH   2   5
ATOM      5  C   UNL     1      11.167  -4.743   6.635  0.00  0.00    +0.154 C 
ATOM      6  C   UNL     1      11.094  -6.277   6.788  0.00  0.00    +0.030 C 
ATOM      7  C   UNL     1      12.407  -6.616   7.542  0.00  0.00    +0.018 C 
ATOM      8  C   UNL     1      13.391  -5.586   6.934  0.00  0.00    +0.098 C 
ATOM      9  N   UNL     1      12.585  -4.357   6.746  0.00  0.00    -0.234 NA
BRANCH   9  10
ATOM     10  S   UNL     1      13.111  -3.465   5.317  0.00  0.00    -0.038 S 
BRANCH  10  11
ATOM     11  C   UNL     1      14.791  -3.059   5.662  0.00  0.00    +0.054 A 
ATOM     12  C   UNL     1      15.816  -3.868   5.185  0.00  0.00    +0.020 A 
ATOM     13  C   UNL     1      17.130  -3.547   5.458  0.00  0.00    +0.034 A 
ATOM     14  C   UNL     1      17.428  -2.421   6.205  0.00  0.00    +0.128 A 
ATOM     15  C   UNL     1      16.412  -1.614   6.681  0.00  0.00    +0.066 A 
ATOM     16  C   UNL     1      15.094  -1.926   6.407  0.00  0.00    +0.143 A 
BRANCH  16  17
ATOM     17  N   UNL     1      14.007  -1.057   6.911  0.00  0.00    +0.058 N 
ATOM     18  O   UNL     1      14.268  -0.108   7.613  0.00  0.00    -0.126 OA
ATOM     19  O   UNL     1      12.858  -1.298   6.622  0.00  0.00    -0.126 OA
ENDBRANCH  16  17
BRANCH  14  20
ATOM     20  N   UNL     1      18.839  -2.080   6.495  0.00  0.00    +0.056 N 
ATOM     21  O   UNL     1      19.729  -2.785   6.079  0.00  0.00    -0.126 OA
ATOM     22  O   UNL     1      19.101  -1.096   7.147  0.00  0.00    -0.126 OA
ENDBRANCH  14  20
ENDBRANCH  10  11
ENDBRANCH   9  10
ENDBRANCH   2   5
BRANCH   1  23
ATOM     23  C   UNL     1       8.955  -3.243   3.894  0.00  0.00    +0.200 C 
BRANCH  23  25
ATOM     24  N   UNL     1       7.004  -2.013   3.001  0.00  0.00    -0.304 N 
ATOM     25  C   UNL     1       7.669  -2.479   4.077  0.00  0.00    +0.231 C 
ATOM     26  O   UNL     1       7.233  -2.284   5.191  0.00  0.00    -0.274 OA
ATOM     27  H   UNL     1       7.353  -2.169   2.110  0.00  0.00    +0.149 HD
BRANCH  24  28
ATOM     28  C   UNL     1       5.754  -1.270   3.179  0.00  0.00    +0.225 C 
BRANCH  28  29
ATOM     29  C   UNL     1       5.215  -0.863   1.831  0.00  0.00    +0.325 C 
ATOM     30  O   UNL     1       5.815  -1.163   0.826  0.00  0.00    -0.249 OA
BRANCH  29  31
ATOM     31  O   UNL     1       4.070  -0.168   1.748  0.00  0.00    -0.459 OA
BRANCH  31  32
ATOM     32  C   UNL     1       3.619   0.184   0.438  0.00  0.00    +0.267 C 
BRANCH  32  36
ATOM     33  C   UNL     1      -0.039   2.371   0.731  0.00  0.00    +0.000 A 
ATOM     34  C   UNL     1       1.170   3.041   0.747  0.00  0.00    +0.000 A 
ATOM     35  C   UNL     1       2.354   2.333   0.653  0.00  0.00    +0.007 A 
ATOM     36  C   UNL     1       2.328   0.956   0.542  0.00  0.00    -0.010 A 
ATOM     37  C   UNL     1       1.119   0.285   0.527  0.00  0.00    +0.007 A 
ATOM     38  C   UNL     1      -0.064   0.993   0.620  0.00  0.00    +0.000 A 
ENDBRANCH  32  36
ENDBRANCH  31  32
ENDBRANCH  29  31
ENDBRANCH  28  29
ENDBRANCH  24  28
ENDBRANCH  23  25
ENDBRANCH   1  23
TORSDOF 12
