REMARK  Name = ZINC07781469
REMARK  8 active torsions:
REMARK  status: ('A' for Active; 'I' for Inactive)
REMARK    1  A    between atoms: C_1  and  C_2
REMARK    2  A    between atoms: C_2  and  C_3
REMARK    3  A    between atoms: C_2  and  C_4
REMARK    4  A    between atoms: C_4  and  C_6
REMARK    5  A    between atoms: C_4  and  N_17
REMARK    6  A    between atoms: C_18  and  C_20
REMARK    7  A    between atoms: C_21  and  C_22
REMARK    8  A    between atoms: C_27  and  N_28
REMARK                            x       y       z     vdW  Elec       q    Type
REMARK                         _______ _______ _______ _____ _____    ______ ____
ROOT
ATOM      1  C   UNL     1       1.003  -2.111   1.102  0.00  0.00    +0.106 C 
ENDROOT
BRANCH   1   2
ATOM      2  C   UNL     1       2.225  -2.747   0.491  0.00  0.00    -0.023 A 
ATOM      3  C   UNL     1       3.446  -2.103   0.563  0.00  0.00    +0.009 A 
ATOM      4  C   UNL     1       4.572  -2.681   0.004  0.00  0.00    +0.050 A 
ATOM      5  C   UNL     1       4.471  -3.908  -0.629  0.00  0.00    +0.162 A 
ATOM      6  C   UNL     1       3.246  -4.554  -0.702  0.00  0.00    +0.162 A 
ATOM      7  C   UNL     1       2.122  -3.976  -0.137  0.00  0.00    +0.055 A 
ATOM      8  O   UNL     1       3.156  -5.763  -1.329  0.00  0.00    -0.488 OA
ATOM      9  C   UNL     1       3.811  -6.854  -0.678  0.00  0.00    +0.232 C 
ATOM     10  C   UNL     1       5.285  -6.896  -1.048  0.00  0.00    +0.082 C 
ATOM     11  C   UNL     1       6.043  -5.677  -0.545  0.00  0.00    +0.232 C 
ATOM     12  O   UNL     1       5.574  -4.489  -1.185  0.00  0.00    -0.488 OA
ENDBRANCH   1   2
BRANCH   1  13
ATOM     13  N   UNL     1       1.021  -0.669   0.843  0.00  0.00    -0.305 N 
ATOM     14  C   UNL     1      -0.133   0.027   0.825  0.00  0.00    +0.237 C 
ATOM     15  O   UNL     1      -1.190  -0.542   1.024  0.00  0.00    -0.271 OA
ATOM     16  H   UNL     1       1.864  -0.216   0.684  0.00  0.00    +0.150 HD
BRANCH  14  17
ATOM     17  C   UNL     1      -0.114   1.468   0.566  0.00  0.00    +0.068 C 
ATOM     18  C   UNL     1      -1.269   2.163   0.542  0.00  0.00    +0.015 C 
BRANCH  18  19
ATOM     19  C   UNL     1      -1.250   3.612   0.282  0.00  0.00    +0.005 A 
ATOM     20  C   UNL     1      -0.054   4.329   0.383  0.00  0.00    +0.010 A 
ATOM     21  C   UNL     1      -0.045   5.686   0.138  0.00  0.00    +0.001 A 
ATOM     22  C   UNL     1      -1.216   6.338  -0.209  0.00  0.00    +0.002 A 
ATOM     23  C   UNL     1      -2.404   5.635  -0.312  0.00  0.00    +0.033 A 
ATOM     24  C   UNL     1      -2.428   4.277  -0.074  0.00  0.00    +0.133 A 
BRANCH  24  25
ATOM     25  N   UNL     1      -3.698   3.526  -0.191  0.00  0.00    +0.057 N 
ATOM     26  O   UNL     1      -3.699   2.398  -0.650  0.00  0.00    -0.126 OA
ATOM     27  O   UNL     1      -4.743   4.036   0.172  0.00  0.00    -0.126 OA
ENDBRANCH  24  25
ENDBRANCH  18  19
ENDBRANCH  14  17
ENDBRANCH   1  13
BRANCH   1  29
ATOM     28  C   UNL     1       0.982  -3.864   2.883  0.00  0.00    +0.009 C 
ATOM     29  C   UNL     1       1.001  -2.358   2.612  0.00  0.00    +0.008 C 
ATOM     30  C   UNL     1       2.259  -1.744   3.230  0.00  0.00    +0.009 C 
ENDBRANCH   1  29
TORSDOF 6
