REMARK  Name = ZINC28453428
REMARK  6 active torsions:
REMARK  status: ('A' for Active; 'I' for Inactive)
REMARK    1  A    between atoms: C_3  and  C_6
REMARK    2  A    between atoms: C_9  and  S_18
REMARK    3  A    between atoms: N_10  and  C_11
REMARK    4  A    between atoms: C_11  and  C_12
REMARK    5  A    between atoms: S_18  and  C_19
REMARK    6  A    between atoms: C_19  and  C_20
REMARK                            x       y       z     vdW  Elec       q    Type
REMARK                         _______ _______ _______ _____ _____    ______ ____
ROOT
ATOM      1  C   UNL     1      -9.550  -0.048   0.047  0.00  0.00    +0.172 A 
ATOM      2  N   UNL     1      -8.637  -0.994   0.038  0.00  0.00    -0.128 NA
ATOM      3  N   UNL     1      -7.464  -0.471   0.035  0.00  0.00    -0.122 NA
ATOM      4  C   UNL     1      -7.553   0.840   0.042  0.00  0.00    +0.192 A 
ATOM      5  N   UNL     1      -8.883   1.156   0.056  0.00  0.00    -0.299 N 
ENDROOT
BRANCH   1   8
ATOM      6  C   UNL     1     -13.106  -1.313   0.269  0.00  0.00    +0.008 A 
ATOM      7  C   UNL     1     -11.731  -1.376   0.321  0.00  0.00    +0.019 A 
ATOM      8  C   UNL     1     -11.010  -0.240   0.053  0.00  0.00    +0.056 A 
ATOM      9  S   UNL     1     -12.302   0.942  -0.294  0.00  0.00    -0.094 S 
ATOM     10  C   UNL     1     -13.703  -0.137  -0.055  0.00  0.00    +0.046 A 
ENDBRANCH   1   8
BRANCH   5  11
ATOM     11  C   UNL     1      -9.474   2.497   0.073  0.00  0.00    +0.157 C 
BRANCH  11  12
ATOM     12  C   UNL     1      -9.692   2.976  -1.363  0.00  0.00    +0.138 C 
ATOM     13  C   UNL     1     -10.367   4.371  -1.368  0.00  0.00    +0.035 C 
ATOM     14  C   UNL     1      -9.910   4.915  -2.749  0.00  0.00    +0.031 C 
ATOM     15  C   UNL     1      -8.500   4.304  -2.891  0.00  0.00    +0.160 C 
ATOM     16  O   UNL     1      -8.430   3.169  -2.022  0.00  0.00    -0.375 OA
ENDBRANCH  11  12
ENDBRANCH   5  11
BRANCH   4  17
ATOM     17  S   UNL     1      -6.208   1.978   0.042  0.00  0.00    -0.077 S 
BRANCH  17  18
ATOM     18  C   UNL     1      -4.816   0.821   0.029  0.00  0.00    +0.173 C 
BRANCH  18  19
ATOM     19  C   UNL     1      -3.522   1.592   0.027  0.00  0.00    +0.231 C 
ATOM     20  O   UNL     1      -3.538   2.804   0.034  0.00  0.00    -0.274 OA
ATOM     21  N   UNL     1      -2.345   0.934   0.018  0.00  0.00    -0.240 N 
ATOM     22  C   UNL     1      -1.187   1.624   0.017  0.00  0.00    +0.303 C 
ATOM     23  O   UNL     1      -1.204   2.839   0.023  0.00  0.00    -0.253 OA
ATOM     24  N   UNL     1      -0.011   0.966   0.007  0.00  0.00    -0.313 N 
ATOM     25  H   UNL     1      -2.330  -0.166   0.012  0.00  0.00    +0.159 HD
ATOM     26  H   UNL     1       0.934   1.529   0.006  0.00  0.00    +0.146 HD
ATOM     27  H   UNL     1       0.004  -0.134   0.001  0.00  0.00    +0.146 HD
ENDBRANCH  18  19
ENDBRANCH  17  18
ENDBRANCH   4  17
TORSDOF 6
