REMARK  Name = ZINC38804116
REMARK  7 active torsions:
REMARK  status: ('A' for Active; 'I' for Inactive)
REMARK    1  A    between atoms: C_1  and  C_2
REMARK    2  A    between atoms: N_12  and  O_13
REMARK    3  A    between atoms: O_13  and  C_14
REMARK    4  A    between atoms: C_14  and  C_15
REMARK    5  A    between atoms: N_17  and  N_18
REMARK    6  A    between atoms: C_19  and  C_20
REMARK    7  A    between atoms: C_24  and  N_27
REMARK                            x       y       z     vdW  Elec       q    Type
REMARK                         _______ _______ _______ _____ _____    ______ ____
ROOT
ATOM      1  N   UNL     1      -2.159   2.225   6.082  0.00  0.00    -0.187 NA
ATOM      2  C   UNL     1      -3.223   2.744   6.618  0.00  0.00    +0.142 C 
ENDROOT
BRANCH   2   3
ATOM      3  C   UNL     1      -4.553   2.397   6.096  0.00  0.00    +0.054 A 
ATOM      4  C   UNL     1      -5.432   3.407   5.657  0.00  0.00    +0.036 A 
ATOM      5  C   UNL     1      -6.699   3.066   5.159  0.00  0.00    +0.138 A 
ATOM      6  C   UNL     1      -7.077   1.729   5.105  0.00  0.00    +0.083 A 
ATOM      7  C   UNL     1      -6.217   0.742   5.536  0.00  0.00    +0.177 A 
ATOM      8  C   UNL     1      -4.957   1.060   6.025  0.00  0.00    +0.218 A 
ATOM      9  O   UNL     1      -4.120   0.074   6.440  0.00  0.00    -0.285 OA
ATOM     10  O   UNL     1      -7.320   4.215   4.815  0.00  0.00    -0.459 OA
ATOM     11  C   UNL     1      -6.536   5.276   5.062  0.00  0.00    +0.109 A 
ATOM     12  C   UNL     1      -5.364   4.861   5.577  0.00  0.00    +0.002 A 
ATOM     13  C   UNL     1      -4.230   5.768   5.977  0.00  0.00    +0.039 C 
ATOM     14  C   UNL     1      -4.461   7.144   5.340  0.00  0.00    +0.005 C 
ATOM     15  C   UNL     1      -5.897   7.597   5.620  0.00  0.00    +0.008 C 
ATOM     16  C   UNL     1      -6.873   6.729   4.817  0.00  0.00    +0.075 C 
BRANCH   7  17
ATOM     17  N   UNL     1      -6.639  -0.676   5.471  0.00  0.00    +0.060 N 
ATOM     18  O   UNL     1      -7.733  -0.962   5.042  0.00  0.00    -0.126 OA
ATOM     19  O   UNL     1      -5.891  -1.548   5.847  0.00  0.00    -0.126 OA
ENDBRANCH   7  17
ENDBRANCH   2   3
BRANCH   1  22
ATOM     20  C   UNL     1      -1.158   0.981   4.316  0.00  0.00    +0.272 C 
ATOM     21  O   UNL     1      -0.064   1.246   4.768  0.00  0.00    -0.270 OA
ATOM     22  N   UNL     1      -2.269   1.441   4.926  0.00  0.00    -0.204 N 
ATOM     23  H   UNL     1      -3.143   1.229   4.565  0.00  0.00    +0.177 HD
BRANCH  20  24
ATOM     24  C   UNL     1      -1.276   0.138   3.073  0.00  0.00    +0.358 C 
BRANCH  24  25
ATOM     25  O   UNL     1       0.030  -0.224   2.618  0.00  0.00    -0.398 OA
BRANCH  25  37
ATOM     26  C   UNL     1       0.111   1.079   0.167  0.00  0.00    +0.089 C 
ATOM     27  C   UNL     1       0.070  -0.426   0.227  0.00  0.00    +0.147 A 
ATOM     28  N   UNL     1       0.080  -1.088  -0.890  0.00  0.00    -0.231 NA
ATOM     29  C   UNL     1       0.045  -2.444  -0.914  0.00  0.00    +0.078 A 
ATOM     30  C   UNL     1       0.056  -3.156  -2.115  0.00  0.00    +0.028 A 
ATOM     31  C   UNL     1       0.021  -4.532  -2.092  0.00  0.00    +0.002 A 
ATOM     32  C   UNL     1      -0.026  -5.223  -0.888  0.00  0.00    +0.001 A 
ATOM     33  C   UNL     1      -0.038  -4.543   0.310  0.00  0.00    +0.015 A 
ATOM     34  C   UNL     1      -0.002  -3.150   0.309  0.00  0.00    +0.068 A 
ATOM     35  C   UNL     1      -0.012  -2.370   1.556  0.00  0.00    +0.294 A 
ATOM     36  O   UNL     1      -0.052  -2.917   2.643  0.00  0.00    -0.264 OA
ATOM     37  N   UNL     1       0.031  -1.022   1.448  0.00  0.00    -0.129 N 
ENDBRANCH  25  37
ENDBRANCH  24  25
ENDBRANCH  20  24
ENDBRANCH   1  22
TORSDOF 6
