REMARK  Name = ZINC67288624
REMARK  10 active torsions:
REMARK  status: ('A' for Active; 'I' for Inactive)
REMARK    1  A    between atoms: C_1  and  C_2
REMARK    2  A    between atoms: C_2  and  O_3
REMARK    3  A    between atoms: O_3  and  C_4
REMARK    4  A    between atoms: C_4  and  C_6
REMARK    5  A    between atoms: C_9  and  N_12
REMARK    6  A    between atoms: C_13  and  C_15
REMARK    7  A    between atoms: C_15  and  N_16
REMARK    8  A    between atoms: C_19  and  C_24
REMARK    9  A    between atoms: C_26  and  C_31
REMARK   10  A    between atoms: C_29  and  C_30
REMARK                            x       y       z     vdW  Elec       q    Type
REMARK                         _______ _______ _______ _____ _____    ______ ____
ROOT
ATOM      1  N   UNL     1       3.751  -7.323   7.330  0.00  0.00    -0.247 N 
ATOM      2  C   UNL     1       2.661  -8.033   7.743  0.00  0.00    +0.065 C 
ATOM      3  C   UNL     1       2.643  -9.381   7.681  0.00  0.00    +0.082 C 
ATOM      4  C   UNL     1       3.871 -10.081   7.139  0.00  0.00    +0.144 C 
ATOM      5  N   UNL     1       4.994  -9.225   6.721  0.00  0.00    -0.288 N 
ATOM      6  C   UNL     1       4.861  -7.889   6.837  0.00  0.00    +0.307 C 
ATOM      7  O   UNL     1       5.780  -7.174   6.490  0.00  0.00    -0.252 OA
ATOM      8  C   UNL     1       1.411  -9.861   8.165  0.00  0.00    +0.339 C 
ATOM      9  O   UNL     1       1.106 -11.037   8.230  0.00  0.00    -0.245 OA
ATOM     10  O   UNL     1       0.615  -8.843   8.545  0.00  0.00    -0.455 OA
ATOM     11  C   UNL     1       1.325  -7.620   8.316  0.00  0.00    +0.284 C 
ATOM     12  H   UNL     1       5.809  -9.613   6.365  0.00  0.00    +0.151 HD
ENDROOT
BRANCH   4  13
ATOM     13  C   UNL     1       4.376 -11.023   8.201  0.00  0.00    -0.019 A 
ATOM     14  C   UNL     1       3.970 -10.867   9.514  0.00  0.00    +0.009 A 
ATOM     15  C   UNL     1       4.433 -11.731  10.488  0.00  0.00    -0.050 A 
ATOM     16  C   UNL     1       5.302 -12.752  10.150  0.00  0.00    +0.003 A 
ATOM     17  C   UNL     1       5.707 -12.909   8.838  0.00  0.00    +0.004 A 
ATOM     18  C   UNL     1       5.240 -12.047   7.863  0.00  0.00    -0.045 A 
ATOM     19  C   UNL     1       5.678 -12.221   6.431  0.00  0.00    +0.044 C 
ATOM     20  C   UNL     1       3.992 -11.560  11.919  0.00  0.00    +0.044 C 
ENDBRANCH   4  13
BRANCH   1  21
ATOM     21  C   UNL     1       3.702  -5.862   7.425  0.00  0.00    +0.211 C 
BRANCH  21  23
ATOM     22  N   UNL     1       2.999  -3.961   6.006  0.00  0.00    -0.284 N 
ATOM     23  C   UNL     1       3.138  -5.294   6.148  0.00  0.00    +0.235 C 
ATOM     24  O   UNL     1       2.810  -6.037   5.247  0.00  0.00    -0.274 OA
ATOM     25  H   UNL     1       3.324  -3.363   6.698  0.00  0.00    +0.155 HD
BRANCH  22  29
ATOM     26  C   UNL     1       1.175  -2.406   2.599  0.00  0.00    +0.059 A 
ATOM     27  C   UNL     1       1.973  -3.551   2.507  0.00  0.00    +0.017 A 
ATOM     28  C   UNL     1       2.574  -4.062   3.635  0.00  0.00    +0.024 A 
ATOM     29  C   UNL     1       2.389  -3.440   4.866  0.00  0.00    +0.033 A 
ATOM     30  C   UNL     1       1.596  -2.301   4.962  0.00  0.00    +0.024 A 
ATOM     31  C   UNL     1       0.996  -1.781   3.837  0.00  0.00    +0.017 A 
BRANCH  26  32
ATOM     32  C   UNL     1       0.530  -1.856   1.393  0.00  0.00    +0.339 C 
ATOM     33  O   UNL     1      -0.159  -0.858   1.474  0.00  0.00    -0.245 OA
BRANCH  32  34
ATOM     34  O   UNL     1       0.704  -2.460   0.201  0.00  0.00    -0.461 OA
BRANCH  34  36
ATOM     35  C   UNL     1       0.361  -2.690  -2.180  0.00  0.00    +0.048 C 
ATOM     36  C   UNL     1       0.049  -1.872  -0.925  0.00  0.00    +0.229 C 
ENDBRANCH  34  36
ENDBRANCH  32  34
ENDBRANCH  26  32
ENDBRANCH  22  29
ENDBRANCH  21  23
ENDBRANCH   1  21
TORSDOF 7
