REMARK  Name = ZINC35641435
REMARK  14 active torsions:
REMARK  status: ('A' for Active; 'I' for Inactive)
REMARK    1  A    between atoms: C_1  and  C_2
REMARK    2  A    between atoms: C_2  and  N_3
REMARK    3  A    between atoms: C_4  and  C_24
REMARK    4  A    between atoms: C_5  and  C_19
REMARK    5  A    between atoms: C_6  and  C_11
REMARK    6  A    between atoms: C_15  and  O_17
REMARK    7  A    between atoms: O_17  and  C_18
REMARK    8  A    between atoms: C_19  and  O_21
REMARK    9  A    between atoms: O_21  and  C_22
REMARK   10  A    between atoms: C_22  and  C_23
REMARK   11  A    between atoms: C_24  and  N_25
REMARK   12  A    between atoms: N_25  and  C_26
REMARK   13  A    between atoms: N_25  and  C_27
REMARK   14  A    between atoms: N_30  and  C_33
REMARK                            x       y       z     vdW  Elec       q    Type
REMARK                         _______ _______ _______ _____ _____    ______ ____
ROOT
ATOM      1  N   UNL     1       0.949  -0.758  -1.540  0.00  0.00    -0.258 N 
ATOM      2  C   UNL     1      -0.060  -0.646  -2.454  0.00  0.00    +0.041 C 
ATOM      3  C   UNL     1       0.201  -0.592  -3.778  0.00  0.00    +0.080 C 
ATOM      4  C   UNL     1       1.650  -0.659  -4.214  0.00  0.00    +0.144 C 
ATOM      5  N   UNL     1       2.662  -0.778  -3.151  0.00  0.00    -0.288 N 
ATOM      6  C   UNL     1       2.245  -0.816  -1.870  0.00  0.00    +0.307 C 
ATOM      7  O   UNL     1       3.073  -0.911  -0.985  0.00  0.00    -0.252 OA
ATOM      8  H   UNL     1       3.607  -0.826  -3.367  0.00  0.00    +0.151 HD
ENDROOT
BRANCH   4   9
ATOM      9  C   UNL     1       1.955   0.586  -5.006  0.00  0.00    -0.019 A 
ATOM     10  C   UNL     1       2.229   1.773  -4.351  0.00  0.00    +0.006 A 
ATOM     11  C   UNL     1       2.509   2.917  -5.075  0.00  0.00    +0.004 A 
ATOM     12  C   UNL     1       2.515   2.877  -6.456  0.00  0.00    +0.045 A 
ATOM     13  C   UNL     1       2.241   1.688  -7.116  0.00  0.00    +0.120 A 
ATOM     14  C   UNL     1       1.966   0.540  -6.387  0.00  0.00    +0.051 A 
BRANCH  13  15
ATOM     15  O   UNL     1       2.247   1.647  -8.475  0.00  0.00    -0.495 OA
ATOM     16  C   UNL     1       2.544   2.865  -9.159  0.00  0.00    +0.277 C 
ENDBRANCH  13  15
ENDBRANCH   4   9
BRANCH   1  18
ATOM     17  C   UNL     1       0.557   0.609   0.450  0.00  0.00    +0.025 C 
ATOM     18  C   UNL     1       0.593  -0.811  -0.120  0.00  0.00    +0.111 C 
ENDBRANCH   1  18
BRANCH   3  19
ATOM     19  C   UNL     1      -0.844  -0.476  -4.725  0.00  0.00    +0.339 C 
ATOM     20  O   UNL     1      -1.992  -0.333  -4.349  0.00  0.00    -0.245 OA
BRANCH  19  21
ATOM     21  O   UNL     1      -0.566  -0.526  -6.044  0.00  0.00    -0.462 OA
BRANCH  21  22
ATOM     22  C   UNL     1      -1.669  -0.403  -6.944  0.00  0.00    +0.229 C 
ATOM     23  C   UNL     1      -1.163  -0.482  -8.386  0.00  0.00    +0.048 C 
ENDBRANCH  21  22
ENDBRANCH  19  21
ENDBRANCH   3  19
BRANCH   2  24
ATOM     24  C   UNL     1      -1.488  -0.582  -1.976  0.00  0.00    +0.136 C 
BRANCH  24  25
ATOM     25  N   UNL     1      -2.115  -1.902  -2.129  0.00  0.00    -0.297 NA
ATOM     26  C   UNL     1      -1.633  -2.835  -1.101  0.00  0.00    +0.105 C 
BRANCH  25  27
ATOM     27  C   UNL     1      -3.580  -1.796  -2.098  0.00  0.00    +0.053 C 
ATOM     28  C   UNL     1      -4.030  -1.322  -0.714  0.00  0.00    +0.000 C 
ATOM     29  C   UNL     1      -5.559  -1.290  -0.664  0.00  0.00    -0.078 C 
ATOM     30  N   UNL     1      -6.089  -2.635  -0.918  0.00  0.00    +0.378 N 
ATOM     31  C   UNL     1      -5.721  -3.067  -2.272  0.00  0.00    -0.078 C 
ATOM     32  C   UNL     1      -4.198  -3.167  -2.384  0.00  0.00    +0.000 C 
ATOM     33  C   UNL     1      -7.552  -2.615  -0.792  0.00  0.00    -0.096 C 
ATOM     34  H   UNL     1      -5.704  -3.280  -0.244  0.00  0.00    -0.082 HD
ENDBRANCH  25  27
ENDBRANCH  24  25
ENDBRANCH   2  24
TORSDOF 9
