REMARK  Name = ZINC13077340
REMARK  11 active torsions:
REMARK  status: ('A' for Active; 'I' for Inactive)
REMARK    1  A    between atoms: C_1  and  C_2
REMARK    2  A    between atoms: C_5  and  C_8
REMARK    3  A    between atoms: C_8  and  N_9
REMARK    4  A    between atoms: C_10  and  C_37
REMARK    5  A    between atoms: C_11  and  C_15
REMARK    6  A    between atoms: C_12  and  C_14
REMARK    7  A    between atoms: C_18  and  C_25
REMARK    8  A    between atoms: C_28  and  O_31
REMARK    9  A    between atoms: O_31  and  C_32
REMARK   10  A    between atoms: C_32  and  C_34
REMARK   11  A    between atoms: C_32  and  C_35
REMARK                            x       y       z     vdW  Elec       q    Type
REMARK                         _______ _______ _______ _____ _____    ______ ____
ROOT
ATOM      1  C   UNL     1       2.630  10.174  -4.298  0.00  0.00    +0.170 C 
ATOM      2  C   UNL     1       2.493   8.907  -3.496  0.00  0.00    +0.028 C 
ATOM      3  C   UNL     1       3.530   8.209  -3.053  0.00  0.00    +0.039 C 
ATOM      4  N   UNL     1       4.852   8.608  -3.290  0.00  0.00    -0.282 N 
ATOM      5  C   UNL     1       5.046   9.886  -3.788  0.00  0.00    +0.240 A 
ATOM      6  N   UNL     1       4.012  10.635  -4.255  0.00  0.00    -0.202 N 
ATOM      7  N   UNL     1       4.577  11.847  -4.647  0.00  0.00    -0.042 NA
ATOM      8  N   UNL     1       5.846  11.756  -4.410  0.00  0.00    -0.021 NA
ATOM      9  N   UNL     1       6.127  10.603  -3.905  0.00  0.00    -0.092 NA
ATOM     10  H   UNL     1       5.599   8.015  -3.117  0.00  0.00    +0.155 HD
ENDROOT
BRANCH   1  13
ATOM     11  N   UNL     1       1.202   9.999  -7.649  0.00  0.00    -0.264 N 
ATOM     12  C   UNL     1       1.228  10.512  -6.401  0.00  0.00    +0.042 A 
ATOM     13  C   UNL     1       2.234   9.907  -5.727  0.00  0.00    +0.024 A 
ATOM     14  C   UNL     1       2.838   8.987  -6.590  0.00  0.00    +0.066 A 
ATOM     15  N   UNL     1       2.220   9.041  -7.742  0.00  0.00    -0.176 NA
ATOM     16  C   UNL     1       4.000   8.089  -6.252  0.00  0.00    +0.068 C 
ATOM     17  C   UNL     1       0.305  11.571  -5.856  0.00  0.00    +0.065 C 
BRANCH  11  18
ATOM     18  C   UNL     1       0.271  10.373  -8.715  0.00  0.00    +0.178 C 
BRANCH  18  23
ATOM     19  C   UNL     1      -4.423   7.014  -8.440  0.00  0.00    +0.044 C 
ATOM     20  C   UNL     1      -3.199   7.890  -8.512  0.00  0.00    -0.050 A 
ATOM     21  C   UNL     1      -3.160   9.081  -7.811  0.00  0.00    +0.004 A 
ATOM     22  C   UNL     1      -2.037   9.885  -7.877  0.00  0.00    +0.006 A 
ATOM     23  C   UNL     1      -0.954   9.497  -8.643  0.00  0.00    -0.026 A 
ATOM     24  C   UNL     1      -0.995   8.309  -9.348  0.00  0.00    +0.006 A 
ATOM     25  C   UNL     1      -2.116   7.503  -9.279  0.00  0.00    +0.004 A 
ENDBRANCH  18  23
ENDBRANCH  11  18
ENDBRANCH   1  13
BRANCH   3  26
ATOM     26  C   UNL     1       3.283   6.971  -2.279  0.00  0.00    -0.004 A 
ATOM     27  C   UNL     1       4.356   6.219  -1.802  0.00  0.00    +0.013 A 
ATOM     28  C   UNL     1       4.122   5.066  -1.082  0.00  0.00    +0.046 A 
ATOM     29  C   UNL     1       2.820   4.655  -0.831  0.00  0.00    +0.122 A 
ATOM     30  C   UNL     1       1.749   5.399  -1.308  0.00  0.00    +0.046 A 
ATOM     31  C   UNL     1       1.976   6.555  -2.025  0.00  0.00    +0.013 A 
BRANCH  29  32
ATOM     32  O   UNL     1       2.593   3.519  -0.121  0.00  0.00    -0.478 OA
BRANCH  32  33
ATOM     33  C   UNL     1       1.236   3.090   0.000  0.00  0.00    +0.282 C 
ATOM     34  C   UNL     1       0.573   3.820   1.170  0.00  0.00    +0.064 C 
BRANCH  33  35
ATOM     35  C   UNL     1       1.199   1.604   0.249  0.00  0.00    +0.395 C 
ATOM     36  O   UNL     1       2.229   0.992   0.406  0.00  0.00    -0.242 OA
ATOM     37  O   UNL     1       0.022   0.961   0.297  0.00  0.00    -0.242 OA
ENDBRANCH  33  35
ENDBRANCH  32  33
ENDBRANCH  29  32
ENDBRANCH   3  26
TORSDOF 7
