REMARK  Name = ZINC18385963
REMARK  8 active torsions:
REMARK  status: ('A' for Active; 'I' for Inactive)
REMARK    1  A    between atoms: C_1  and  C_2
REMARK    2  A    between atoms: C_2  and  C_4
REMARK    3  A    between atoms: C_2  and  S_20
REMARK    4  A    between atoms: C_10  and  C_15
REMARK    5  A    between atoms: S_20  and  C_21
REMARK    6  A    between atoms: N_25  and  C_26
REMARK    7  A    between atoms: C_26  and  C_27
REMARK    8  A    between atoms: C_26  and  C_28
REMARK                            x       y       z     vdW  Elec       q    Type
REMARK                         _______ _______ _______ _____ _____    ______ ____
ROOT
ATOM      1  C   UNL     1       0.707  -0.490  -1.238  0.00  0.00    +0.124 A 
ATOM      2  N   UNL     1      -0.021  -0.808  -2.339  0.00  0.00    -0.309 N 
ATOM      3  H   UNL     1      -0.986  -0.719  -2.312  0.00  0.00    +0.170 HD
ATOM      4  C   UNL     1       0.570  -1.246  -3.466  0.00  0.00    +0.260 A 
ATOM      5  O   UNL     1      -0.098  -1.526  -4.446  0.00  0.00    -0.267 OA
ATOM      6  C   UNL     1       1.995  -1.375  -3.497  0.00  0.00    +0.083 A 
ATOM      7  C   UNL     1       2.858  -1.821  -4.585  0.00  0.00    +0.039 A 
ATOM      8  C   UNL     1       4.199  -1.862  -4.378  0.00  0.00    +0.059 A 
ATOM      9  S   UNL     1       4.374  -1.298  -2.696  0.00  0.00    -0.076 S 
ATOM     10  C   UNL     1       2.664  -1.024  -2.313  0.00  0.00    +0.116 A 
ATOM     11  N   UNL     1       2.009  -0.593  -1.237  0.00  0.00    -0.225 NA
ENDROOT
BRANCH   7  12
ATOM     12  C   UNL     1       2.284  -2.221  -5.886  0.00  0.00    +0.136 A 
ATOM     13  C   UNL     1       2.693  -1.784  -7.107  0.00  0.00    +0.050 A 
ATOM     14  C   UNL     1       1.873  -2.420  -8.062  0.00  0.00    +0.042 A 
ATOM     15  C   UNL     1       1.013  -3.204  -7.384  0.00  0.00    +0.196 A 
ATOM     16  O   UNL     1       1.268  -3.086  -6.069  0.00  0.00    -0.463 OA
ENDBRANCH   7  12
BRANCH   1  18
ATOM     17  C   UNL     1      -0.019   1.526   0.010  0.00  0.00    +0.027 C 
ATOM     18  C   UNL     1       0.002  -0.004   0.002  0.00  0.00    +0.117 C 
BRANCH  18  19
ATOM     19  S   UNL     1      -1.700  -0.632   0.015  0.00  0.00    -0.074 S 
BRANCH  19  20
ATOM     20  C   UNL     1      -2.335  -0.110   1.573  0.00  0.00    +0.210 A 
ATOM     21  N   UNL     1      -1.690   0.582   2.488  0.00  0.00    -0.101 NA
ATOM     22  N   UNL     1      -2.445   0.794   3.506  0.00  0.00    -0.022 NA
ATOM     23  N   UNL     1      -3.605   0.264   3.322  0.00  0.00    -0.043 NA
ATOM     24  N   UNL     1      -3.580  -0.341   2.053  0.00  0.00    -0.218 N 
BRANCH  24  25
ATOM     25  C   UNL     1      -4.667  -1.067   1.392  0.00  0.00    +0.106 C 
ATOM     26  C   UNL     1      -5.075  -2.266   2.250  0.00  0.00    +0.032 C 
ATOM     27  C   UNL     1      -5.868  -0.136   1.214  0.00  0.00    +0.032 C 
ENDBRANCH  24  25
ENDBRANCH  19  20
ENDBRANCH  18  19
ENDBRANCH   1  18
TORSDOF 5
