REMARK  Name = ZINC03427586
REMARK  9 active torsions:
REMARK  status: ('A' for Active; 'I' for Inactive)
REMARK    1  A    between atoms: C_1  and  C_2
REMARK    2  A    between atoms: C_10  and  C_11
REMARK    3  A    between atoms: C_11  and  C_12
REMARK    4  A    between atoms: C_12  and  O_14
REMARK    5  A    between atoms: O_14  and  C_15
REMARK    6  A    between atoms: C_15  and  C_17
REMARK    7  A    between atoms: C_15  and  C_18
REMARK    8  A    between atoms: N_20  and  C_21
REMARK    9  A    between atoms: C_23  and  N_28
REMARK                            x       y       z     vdW  Elec       q    Type
REMARK                         _______ _______ _______ _____ _____    ______ ____
ROOT
ATOM      1  C   UNL     1      -6.191  -0.911  -0.187  0.00  0.00    +0.259 C 
ATOM      2  C   UNL     1      -7.043  -0.649   1.056  0.00  0.00    +0.062 C 
ENDROOT
BRANCH   1   3
ATOM      3  C   UNL     1      -4.894  -0.151  -0.076  0.00  0.00    +0.258 C 
ATOM      4  O   UNL     1      -3.838  -0.748  -0.085  0.00  0.00    -0.271 OA
ATOM      5  N   UNL     1      -4.908   1.192   0.032  0.00  0.00    -0.281 N 
ATOM      6  H   UNL     1      -5.752   1.665   0.104  0.00  0.00    +0.155 HD
BRANCH   5   7
ATOM      7  C   UNL     1      -3.703   1.906   0.041  0.00  0.00    +0.054 A 
ATOM      8  C   UNL     1      -2.575   1.359   0.638  0.00  0.00    +0.057 A 
ATOM      9  C   UNL     1      -1.389   2.066   0.646  0.00  0.00    +0.128 A 
ATOM     10  C   UNL     1      -1.324   3.319   0.064  0.00  0.00    +0.034 A 
ATOM     11  C   UNL     1      -2.444   3.865  -0.536  0.00  0.00    +0.024 A 
ATOM     12  C   UNL     1      -3.635   3.163  -0.547  0.00  0.00    +0.062 A 
ATOM     13 CL   UNL     1      -5.042   3.850  -1.296  0.00  0.00    -0.082 Cl
BRANCH   9  14
ATOM     14  N   UNL     1      -0.186   1.484   1.282  0.00  0.00    +0.056 N 
ATOM     15  O   UNL     1      -0.243   0.382   1.799  0.00  0.00    -0.126 OA
ATOM     16  O   UNL     1       0.863   2.104   1.285  0.00  0.00    -0.126 OA
ENDBRANCH   9  14
ENDBRANCH   5   7
ENDBRANCH   1   3
BRANCH   1  17
ATOM     17  O   UNL     1      -5.911  -2.332  -0.292  0.00  0.00    -0.452 OA
BRANCH  17  18
ATOM     18  C   UNL     1      -6.787  -3.076  -0.986  0.00  0.00    +0.312 C 
ATOM     19  O   UNL     1      -7.755  -2.557  -1.490  0.00  0.00    -0.250 OA
BRANCH  18  20
ATOM     20  C   UNL     1      -6.563  -4.558  -1.138  0.00  0.00    +0.159 C 
BRANCH  20  30
ATOM     21  C   UNL     1      -8.941  -5.863  -7.470  0.00  0.00    +0.044 C 
ATOM     22  C   UNL     1      -8.533  -5.638  -6.037  0.00  0.00    -0.047 A 
ATOM     23  C   UNL     1      -7.332  -5.003  -5.757  0.00  0.00    +0.004 A 
ATOM     24  C   UNL     1      -6.947  -4.789  -4.462  0.00  0.00    +0.012 A 
ATOM     25  C   UNL     1      -7.769  -5.213  -3.418  0.00  0.00    +0.024 A 
ATOM     26  C   UNL     1      -8.985  -5.859  -3.696  0.00  0.00    +0.135 A 
ATOM     27  C   UNL     1      -9.355  -6.070  -5.018  0.00  0.00    +0.050 A 
ATOM     28  O   UNL     1      -9.564  -6.147  -2.513  0.00  0.00    -0.463 OA
ATOM     29  C   UNL     1      -8.797  -5.732  -1.490  0.00  0.00    +0.200 A 
ATOM     30  C   UNL     1      -7.681  -5.154  -1.954  0.00  0.00    +0.009 A 
ENDBRANCH  20  30
ENDBRANCH  18  20
ENDBRANCH  17  18
ENDBRANCH   1  17
TORSDOF 7
