REMARK  Name = ZINC12376137
REMARK  7 active torsions:
REMARK  status: ('A' for Active; 'I' for Inactive)
REMARK    1  A    between atoms: C_4  and  C_7
REMARK    2  A    between atoms: N_12  and  C_14
REMARK    3  A    between atoms: C_14  and  C_15
REMARK    4  A    between atoms: N_17  and  N_18
REMARK    5  A    between atoms: C_19  and  C_20
REMARK    6  A    between atoms: C_23  and  C_25
REMARK    7  A    between atoms: C_30  and  C_31
REMARK                            x       y       z     vdW  Elec       q    Type
REMARK                         _______ _______ _______ _____ _____    ______ ____
ROOT
ATOM      1  C   UNL     1      -3.827   2.587   1.825  0.00  0.00    +0.250 C 
ATOM      2  O   UNL     1      -4.010   1.583   1.169  0.00  0.00    -0.272 OA
ATOM      3  N   UNL     1      -4.811   3.066   2.612  0.00  0.00    -0.206 N 
ATOM      4  H   UNL     1      -4.666   3.868   3.137  0.00  0.00    +0.177 HD
ENDROOT
BRANCH   3   5
ATOM      5  N   UNL     1      -6.045   2.404   2.672  0.00  0.00    -0.185 NA
ATOM      6  C   UNL     1      -6.995   2.866   3.432  0.00  0.00    +0.176 C 
BRANCH   6   7
ATOM      7  C   UNL     1      -8.285   2.175   3.494  0.00  0.00    +0.148 A 
ATOM      8  C   UNL     1      -9.371   2.555   4.254  0.00  0.00    +0.051 A 
ATOM      9  C   UNL     1     -10.382   1.618   4.011  0.00  0.00    +0.050 A 
ATOM     10  C   UNL     1      -9.882   0.710   3.123  0.00  0.00    +0.137 A 
ATOM     11  O   UNL     1      -8.618   1.060   2.815  0.00  0.00    -0.454 OA
BRANCH  10  12
ATOM     12  C   UNL     1     -10.605  -0.455   2.586  0.00  0.00    +0.031 A 
ATOM     13  C   UNL     1     -11.264  -1.332   3.450  0.00  0.00    +0.012 A 
ATOM     14  C   UNL     1     -11.940  -2.421   2.942  0.00  0.00    +0.001 A 
ATOM     15  C   UNL     1     -11.973  -2.655   1.575  0.00  0.00    +0.001 A 
ATOM     16  C   UNL     1     -11.329  -1.802   0.704  0.00  0.00    +0.016 A 
ATOM     17  C   UNL     1     -10.643  -0.689   1.196  0.00  0.00    +0.074 A 
BRANCH  17  18
ATOM     18  C   UNL     1      -9.959   0.229   0.269  0.00  0.00    +0.387 C 
ATOM     19  O   UNL     1      -9.359   1.193   0.702  0.00  0.00    -0.241 OA
ATOM     20  O   UNL     1      -9.998   0.001  -1.058  0.00  0.00    -0.241 OA
ENDBRANCH  17  18
ENDBRANCH  10  12
ENDBRANCH   6   7
ENDBRANCH   3   5
BRANCH   1  21
ATOM     21  C   UNL     1      -2.501   3.299   1.761  0.00  0.00    +0.205 C 
BRANCH  21  26
ATOM     22  C   UNL     1      -0.811   1.623  -1.203  0.00  0.00    +0.045 C 
ATOM     23  C   UNL     1      -0.013   1.086   0.008  0.00  0.00    +0.105 C 
ATOM     24  C   UNL     1      -0.771   1.598   1.213  0.00  0.00    +0.217 C 
ATOM     25  O   UNL     1      -0.643   1.179   2.344  0.00  0.00    -0.276 OA
ATOM     26  N   UNL     1      -1.608   2.586   0.844  0.00  0.00    -0.292 N 
ATOM     27  C   UNL     1      -1.511   2.859  -0.595  0.00  0.00    +0.117 C 
BRANCH  22  31
ATOM     28  C   UNL     1       1.810   2.757  -4.380  0.00  0.00    +0.000 A 
ATOM     29  C   UNL     1       0.839   1.797  -4.594  0.00  0.00    +0.000 A 
ATOM     30  C   UNL     1      -0.009   1.430  -3.566  0.00  0.00    +0.004 A 
ATOM     31  C   UNL     1       0.114   2.023  -2.323  0.00  0.00    -0.042 A 
ATOM     32  C   UNL     1       1.081   2.987  -2.110  0.00  0.00    +0.004 A 
ATOM     33  C   UNL     1       1.932   3.351  -3.137  0.00  0.00    +0.000 A 
ENDBRANCH  22  31
ENDBRANCH  21  26
ENDBRANCH   1  21
TORSDOF 7
