REMARK  Name = ZINC19287756
REMARK  9 active torsions:
REMARK  status: ('A' for Active; 'I' for Inactive)
REMARK    1  A    between atoms: C_1  and  C_2
REMARK    2  A    between atoms: N_6  and  C_7
REMARK    3  A    between atoms: C_7  and  C_8
REMARK    4  A    between atoms: C_8  and  C_10
REMARK    5  A    between atoms: C_8  and  C_11
REMARK    6  A    between atoms: N_13  and  C_14
REMARK    7  A    between atoms: C_14  and  C_20
REMARK    8  A    between atoms: C_20  and  N_21
REMARK    9  A    between atoms: C_24  and  C_27
REMARK                            x       y       z     vdW  Elec       q    Type
REMARK                         _______ _______ _______ _____ _____    ______ ____
ROOT
ATOM      1  C   UNL     1       6.404   0.128   2.269  0.00  0.00    +0.020 C 
ATOM      2  C   UNL     1       7.058   1.301   1.535  0.00  0.00    +0.024 C 
ATOM      3  C   UNL     1       6.558   1.341   0.090  0.00  0.00    +0.002 C 
ATOM      4  C   UNL     1       6.923   0.032  -0.613  0.00  0.00    +0.000 C 
ATOM      5  C   UNL     1       6.269  -1.140   0.121  0.00  0.00    +0.002 C 
ATOM      6  C   UNL     1       6.769  -1.181   1.566  0.00  0.00    +0.024 C 
ENDROOT
BRANCH   1   9
ATOM      7  C   UNL     1       4.158  -0.641   2.816  0.00  0.00    +0.218 C 
ATOM      8  O   UNL     1       4.643  -1.667   3.243  0.00  0.00    -0.275 OA
ATOM      9  N   UNL     1       4.949   0.298   2.260  0.00  0.00    -0.311 N 
ATOM     10  H   UNL     1       4.502   1.192   1.800  0.00  0.00    +0.149 HD
BRANCH   7  11
ATOM     11  C   UNL     1       2.670  -0.416   2.906  0.00  0.00    +0.092 C 
ATOM     12  C   UNL     1       2.096  -0.233   1.500  0.00  0.00    +0.019 C 
BRANCH  11  13
ATOM     13  C   UNL     1       2.011  -1.625   3.574  0.00  0.00    +0.135 C 
BRANCH  13  19
ATOM     14  C   UNL     1       0.765  -0.102   5.967  0.00  0.00    +0.084 C 
ATOM     15  C   UNL     1       0.022  -0.698   4.799  0.00  0.00    +0.084 A 
ATOM     16  N   UNL     1      -1.270  -0.661   4.621  0.00  0.00    -0.350 N 
ATOM     17  C   UNL     1      -1.577  -1.285   3.474  0.00  0.00    +0.101 A 
ATOM     18  C   UNL     1      -0.432  -1.734   2.925  0.00  0.00    +0.104 A 
ATOM     19  N   UNL     1       0.583  -1.359   3.764  0.00  0.00    -0.335 N 
ATOM     20  H   UNL     1      -1.914  -0.166   5.363  0.00  0.00    +0.166 HD
ENDBRANCH  13  19
ENDBRANCH  11  13
ENDBRANCH   7  11
ENDBRANCH   1   9
BRANCH   1  21
ATOM     21  C   UNL     1       6.904   0.088   3.714  0.00  0.00    -0.053 C 
BRANCH  21  22
ATOM     22  N   UNL     1       6.684   1.396   4.345  0.00  0.00    +0.381 N 
ATOM     23  C   UNL     1       7.571   1.578   5.501  0.00  0.00    -0.078 C 
ATOM     24  C   UNL     1       7.419   3.002   6.043  0.00  0.00    -0.016 C 
ATOM     25  C   UNL     1       5.962   3.234   6.452  0.00  0.00    -0.018 C 
ATOM     26  C   UNL     1       5.055   2.990   5.243  0.00  0.00    -0.016 C 
ATOM     27  C   UNL     1       5.276   1.567   4.724  0.00  0.00    -0.078 C 
ATOM     28  C   UNL     1       5.790   4.674   6.938  0.00  0.00    +0.007 C 
ATOM     29  H   UNL     1       6.930   2.175   3.608  0.00  0.00    -0.082 HD
ENDBRANCH  21  22
ENDBRANCH   1  21
TORSDOF 6
