REMARK  Name = ZINC16913852
REMARK  8 active torsions:
REMARK  status: ('A' for Active; 'I' for Inactive)
REMARK    1  A    between atoms: C_1  and  C_2
REMARK    2  A    between atoms: C_2  and  C_4
REMARK    3  A    between atoms: C_2  and  N_21
REMARK    4  A    between atoms: C_4  and  O_6
REMARK    5  A    between atoms: O_6  and  C_7
REMARK    6  A    between atoms: C_7  and  C_9
REMARK    7  A    between atoms: C_7  and  C_10
REMARK    8  A    between atoms: N_12  and  C_13
REMARK                            x       y       z     vdW  Elec       q    Type
REMARK                         _______ _______ _______ _____ _____    ______ ____
ROOT
ATOM      1  C   UNL     1      -3.515  -0.921   0.603  0.00  0.00    +0.328 C 
ATOM      2  O   UNL     1      -3.228  -2.033   0.979  0.00  0.00    -0.249 OA
ENDROOT
BRANCH   1   4
ATOM      3  C   UNL     1      -2.866   0.331  -1.437  0.00  0.00    +0.040 C 
ATOM      4  C   UNL     1      -2.459  -0.037  -0.009  0.00  0.00    +0.178 C 
BRANCH   4   5
ATOM      5  N   UNL     1      -1.179  -0.750  -0.035  0.00  0.00    -0.315 N 
ATOM      6  C   UNL     1       0.003  -0.043  -0.049  0.00  0.00    +0.150 C 
ATOM      7  N   UNL     1      -0.008   1.252  -0.040  0.00  0.00    -0.113 NA
ATOM      8  S   UNL     1       1.598   1.723  -0.063  0.00  0.00    +0.101 S 
ATOM      9  O   UNL     1       1.848   2.348  -1.315  0.00  0.00    -0.146 OA
ATOM     10  O   UNL     1       1.889   2.330   1.188  0.00  0.00    -0.146 OA
ATOM     11  C   UNL     1       2.381   0.133  -0.086  0.00  0.00    +0.123 A 
ATOM     12  C   UNL     1       1.292  -0.751  -0.075  0.00  0.00    +0.043 A 
ATOM     13  C   UNL     1       1.577  -2.124  -0.089  0.00  0.00    +0.013 A 
ATOM     14  C   UNL     1       2.882  -2.564  -0.113  0.00  0.00    +0.001 A 
ATOM     15  C   UNL     1       3.935  -1.667  -0.124  0.00  0.00    +0.002 A 
ATOM     16  C   UNL     1       3.672  -0.304  -0.111  0.00  0.00    +0.030 A 
ATOM     17  H   UNL     1      -1.165  -1.720  -0.041  0.00  0.00    +0.148 HD
ENDBRANCH   4   5
ENDBRANCH   1   4
BRANCH   1  18
ATOM     18  O   UNL     1      -4.774  -0.473   0.730  0.00  0.00    -0.451 OA
BRANCH  18  19
ATOM     19  C   UNL     1      -5.738  -1.379   1.328  0.00  0.00    +0.259 C 
ATOM     20  C   UNL     1      -5.759  -1.173   2.844  0.00  0.00    +0.062 C 
BRANCH  19  21
ATOM     21  C   UNL     1      -7.107  -1.099   0.765  0.00  0.00    +0.258 C 
ATOM     22  O   UNL     1      -7.256  -0.222  -0.060  0.00  0.00    -0.271 OA
ATOM     23  N   UNL     1      -8.167  -1.823   1.177  0.00  0.00    -0.280 N 
ATOM     24  H   UNL     1      -8.039  -2.566   1.787  0.00  0.00    +0.155 HD
BRANCH  23  25
ATOM     25  C   UNL     1      -9.453  -1.502   0.724  0.00  0.00    +0.069 A 
ATOM     26  C   UNL     1      -9.637  -1.021  -0.565  0.00  0.00    +0.027 A 
ATOM     27  C   UNL     1     -10.906  -0.705  -1.009  0.00  0.00    +0.017 A 
ATOM     28  C   UNL     1     -11.995  -0.868  -0.171  0.00  0.00    +0.021 A 
ATOM     29  C   UNL     1     -11.817  -1.348   1.115  0.00  0.00    +0.055 A 
ATOM     30  C   UNL     1     -10.549  -1.670   1.563  0.00  0.00    +0.146 A 
ATOM     31  F   UNL     1     -10.375  -2.144   2.817  0.00  0.00    -0.204 F 
ATOM     32 BR   UNL     1     -13.731  -0.435  -0.784  0.00  0.00    -0.050 Br
ENDBRANCH  23  25
ENDBRANCH  19  21
ENDBRANCH  18  19
ENDBRANCH   1  18
TORSDOF 6
