REMARK  Name = ZINC21867952
REMARK  8 active torsions:
REMARK  status: ('A' for Active; 'I' for Inactive)
REMARK    1  A    between atoms: C_4  and  C_7
REMARK    2  A    between atoms: C_7  and  C_9
REMARK    3  A    between atoms: C_14  and  N_15
REMARK    4  A    between atoms: C_16  and  C_18
REMARK    5  A    between atoms: C_18  and  O_19
REMARK    6  A    between atoms: O_19  and  C_20
REMARK    7  A    between atoms: C_20  and  C_22
REMARK    8  A    between atoms: C_22  and  N_23
REMARK                            x       y       z     vdW  Elec       q    Type
REMARK                         _______ _______ _______ _____ _____    ______ ____
ROOT
ATOM      1  N   UNL     1      -2.350  -0.196   0.006  0.00  0.00    -0.282 N 
ATOM      2  C   UNL     1      -3.474  -0.934  -0.074  0.00  0.00    +0.255 C 
ATOM      3  O   UNL     1      -4.558  -0.391  -0.068  0.00  0.00    -0.272 OA
ATOM      4  H   UNL     1      -1.370  -0.692   0.079  0.00  0.00    +0.155 HD
ENDROOT
BRANCH   1  10
ATOM      5  C   UNL     1      -1.418   1.953  -0.619  0.00  0.00    +0.043 A 
ATOM      6  C   UNL     1      -1.506   3.348  -0.617  0.00  0.00    +0.013 A 
ATOM      7  C   UNL     1      -2.583   3.968  -0.024  0.00  0.00    +0.001 A 
ATOM      8  C   UNL     1      -3.578   3.216   0.580  0.00  0.00    +0.002 A 
ATOM      9  C   UNL     1      -3.503   1.838   0.592  0.00  0.00    +0.024 A 
ATOM     10  C   UNL     1      -2.427   1.194  -0.005  0.00  0.00    +0.044 A 
BRANCH   5  11
ATOM     11  C   UNL     1      -0.270   1.283  -1.255  0.00  0.00    +0.195 C 
ATOM     12  O   UNL     1       0.811   1.268  -0.698  0.00  0.00    -0.287 OA
BRANCH  11  16
ATOM     13  C   UNL     1      -0.740  -0.614  -5.026  0.00  0.00    +0.000 A 
ATOM     14  C   UNL     1       0.512  -0.544  -4.442  0.00  0.00    +0.001 A 
ATOM     15  C   UNL     1       0.672   0.070  -3.217  0.00  0.00    +0.012 A 
ATOM     16  C   UNL     1      -0.433   0.623  -2.567  0.00  0.00    +0.022 A 
ATOM     17  C   UNL     1      -1.695   0.543  -3.160  0.00  0.00    +0.012 A 
ATOM     18  C   UNL     1      -1.840  -0.069  -4.387  0.00  0.00    +0.001 A 
ENDBRANCH  11  16
ENDBRANCH   5  11
ENDBRANCH   1  10
BRANCH   2  19
ATOM     19  C   UNL     1      -3.385  -2.435  -0.172  0.00  0.00    +0.328 C 
BRANCH  19  20
ATOM     20  O   UNL     1      -4.722  -2.996  -0.246  0.00  0.00    -0.454 OA
BRANCH  20  21
ATOM     21  C   UNL     1      -4.819  -4.332  -0.339  0.00  0.00    +0.326 C 
ATOM     22  O   UNL     1      -3.819  -5.010  -0.357  0.00  0.00    -0.249 OA
BRANCH  21  23
ATOM     23  C   UNL     1      -6.174  -4.986  -0.419  0.00  0.00    +0.238 C 
BRANCH  23  24
ATOM     24  N   UNL     1      -6.011  -6.438  -0.512  0.00  0.00    -0.213 N 
ATOM     25  C   UNL     1      -5.956  -7.265   0.553  0.00  0.00    +0.247 C 
ATOM     26  O   UNL     1      -6.031  -6.959   1.724  0.00  0.00    -0.273 OA
ATOM     27  C   UNL     1      -5.784  -8.652  -0.021  0.00  0.00    +0.113 C 
ATOM     28  C   UNL     1      -6.962  -9.538   0.366  0.00  0.00    +0.035 C 
ATOM     29  C   UNL     1      -6.783 -10.929  -0.247  0.00  0.00    +0.003 C 
ATOM     30  C   UNL     1      -5.475 -11.543   0.257  0.00  0.00    +0.000 C 
ATOM     31  C   UNL     1      -4.300 -10.656  -0.161  0.00  0.00    +0.003 C 
ATOM     32  C   UNL     1      -4.470  -9.264   0.453  0.00  0.00    +0.035 C 
ATOM     33  N   UNL     1      -5.757  -8.437  -1.474  0.00  0.00    -0.285 N 
ATOM     34  C   UNL     1      -5.902  -7.111  -1.664  0.00  0.00    +0.310 C 
ATOM     35  O   UNL     1      -5.929  -6.585  -2.759  0.00  0.00    -0.252 OA
ATOM     36  H   UNL     1      -5.635  -9.292  -2.155  0.00  0.00    +0.151 HD
ENDBRANCH  23  24
ENDBRANCH  21  23
ENDBRANCH  20  21
ENDBRANCH  19  20
ENDBRANCH   2  19
TORSDOF 8
