REMARK  Name = ZINC28053525
REMARK  6 active torsions:
REMARK  status: ('A' for Active; 'I' for Inactive)
REMARK    1  A    between atoms: C_1  and  C_2
REMARK    2  A    between atoms: C_10  and  C_18
REMARK    3  A    between atoms: C_24  and  C_27
REMARK    4  A    between atoms: C_30  and  C_33
REMARK    5  A    between atoms: C_33  and  C_34
REMARK    6  A    between atoms: C_33  and  C_35
REMARK                            x       y       z     vdW  Elec       q    Type
REMARK                         _______ _______ _______ _____ _____    ______ ____
ROOT
ATOM      1  C   UNL     1      -2.021   0.470  -0.065  0.00  0.00    +0.044 C 
ATOM      2  C   UNL     1      -0.824   1.385  -0.044  0.00  0.00    -0.050 A 
ATOM      3  C   UNL     1       0.452   0.849  -0.025  0.00  0.00    +0.007 A 
ATOM      4  C   UNL     1       1.561   1.676  -0.011  0.00  0.00    +0.046 A 
ATOM      5  C   UNL     1       1.394   3.048  -0.009  0.00  0.00    +0.131 A 
ATOM      6  C   UNL     1       0.103   3.592  -0.024  0.00  0.00    +0.038 A 
ATOM      7  C   UNL     1      -1.006   2.755  -0.037  0.00  0.00    +0.016 A 
ATOM      8  C   UNL     1      -0.040   5.068  -0.026  0.00  0.00    +0.050 C 
ATOM      9  C   UNL     1       1.016   5.808   0.319  0.00  0.00    +0.025 C 
ATOM     10  C   UNL     1       0.976   7.317   0.327  0.00  0.00    +0.174 C 
ATOM     11  N   UNL     1      -0.221   7.791  -0.354  0.00  0.00    -0.201 N 
ATOM     12  C   UNL     1      -1.270   6.993  -0.685  0.00  0.00    +0.240 A 
ATOM     13  N   UNL     1      -2.159   7.744  -1.268  0.00  0.00    -0.092 NA
ATOM     14  N   UNL     1      -1.742   8.962  -1.334  0.00  0.00    -0.021 NA
ATOM     15  N   UNL     1      -0.568   9.066  -0.798  0.00  0.00    -0.042 NA
ATOM     16  N   UNL     1      -1.262   5.637  -0.403  0.00  0.00    -0.282 N 
ATOM     17  C   UNL     1       2.299   5.119   0.722  0.00  0.00    +0.234 C 
ATOM     18  O   UNL     1       2.456   3.893   0.007  0.00  0.00    -0.479 OA
ATOM     19  H   UNL     1      -2.164   5.012  -0.465  0.00  0.00    +0.155 HD
ENDROOT
BRANCH  10  20
ATOM     20  C   UNL     1       0.967   7.808   1.752  0.00  0.00    -0.019 A 
ATOM     21  C   UNL     1      -0.061   7.445   2.602  0.00  0.00    +0.006 A 
ATOM     22  C   UNL     1      -0.066   7.892   3.910  0.00  0.00    +0.000 A 
ATOM     23  C   UNL     1       0.950   8.711   4.365  0.00  0.00    +0.000 A 
ATOM     24  C   UNL     1       1.976   9.078   3.513  0.00  0.00    +0.000 A 
ATOM     25  C   UNL     1       1.984   8.627   2.207  0.00  0.00    +0.006 A 
ENDBRANCH  10  20
BRANCH  17  26
ATOM     26  C   UNL     1       2.265   4.831   2.201  0.00  0.00    -0.003 A 
ATOM     27  C   UNL     1       3.024   5.591   3.071  0.00  0.00    +0.008 A 
ATOM     28  C   UNL     1       2.989   5.330   4.428  0.00  0.00    +0.004 A 
ATOM     29  C   UNL     1       2.203   4.302   4.914  0.00  0.00    -0.045 A 
ATOM     30  C   UNL     1       1.448   3.538   4.043  0.00  0.00    +0.004 A 
ATOM     31  C   UNL     1       1.479   3.803   2.687  0.00  0.00    +0.008 A 
BRANCH  29  32
ATOM     32  C   UNL     1       2.170   4.013   6.393  0.00  0.00    +0.013 C 
ATOM     33  C   UNL     1       3.578   3.662   6.876  0.00  0.00    +0.012 C 
ATOM     34  C   UNL     1       1.667   5.249   7.142  0.00  0.00    +0.012 C 
ENDBRANCH  29  32
ENDBRANCH  17  26
TORSDOF 3
