REMARK  Name = ZINC44391792
REMARK  8 active torsions:
REMARK  status: ('A' for Active; 'I' for Inactive)
REMARK    1  A    between atoms: C_1  and  C_2
REMARK    2  A    between atoms: C_2  and  C_4
REMARK    3  A    between atoms: C_2  and  N_16
REMARK    4  A    between atoms: N_6  and  C_7
REMARK    5  A    between atoms: C_10  and  N_13
REMARK    6  A    between atoms: N_13  and  C_14
REMARK    7  A    between atoms: N_13  and  C_15
REMARK    8  A    between atoms: C_21  and  C_23
REMARK                            x       y       z     vdW  Elec       q    Type
REMARK                         _______ _______ _______ _____ _____    ______ ____
ROOT
ATOM      1  N   UNL     1       0.709  -0.491   1.189  0.00  0.00    -0.217 N 
ATOM      2  C   UNL     1       0.063  -1.288   2.061  0.00  0.00    +0.268 A 
ATOM      3  O   UNL     1      -1.100  -1.603   1.861  0.00  0.00    -0.266 OA
ATOM      4  C   UNL     1       0.740  -1.758   3.208  0.00  0.00    +0.074 A 
ATOM      5  C   UNL     1       2.037  -1.378   3.384  0.00  0.00    +0.035 A 
ATOM      6  C   UNL     1       2.627  -0.538   2.410  0.00  0.00    +0.092 A 
ATOM      7  N   UNL     1       1.933  -0.147   1.367  0.00  0.00    -0.168 NA
ENDROOT
BRANCH   6   8
ATOM      8  C   UNL     1       4.036  -0.102   2.566  0.00  0.00    +0.006 A 
ATOM      9  C   UNL     1       4.618   0.730   1.611  0.00  0.00    +0.014 A 
ATOM     10  C   UNL     1       5.929   1.135   1.757  0.00  0.00    +0.050 A 
ATOM     11  C   UNL     1       6.671   0.716   2.851  0.00  0.00    +0.166 A 
ATOM     12  C   UNL     1       6.093  -0.116   3.808  0.00  0.00    +0.167 A 
ATOM     13  C   UNL     1       4.778  -0.519   3.669  0.00  0.00    +0.059 A 
ATOM     14  O   UNL     1       7.022  -0.381   4.773  0.00  0.00    -0.453 OA
ATOM     15  C   UNL     1       8.292  -0.039   4.188  0.00  0.00    +0.466 C 
ATOM     16  O   UNL     1       7.961   0.971   3.218  0.00  0.00    -0.453 OA
ENDBRANCH   6   8
BRANCH   1  18
ATOM     17  C   UNL     1      -0.034   1.520   0.013  0.00  0.00    +0.043 C 
ATOM     18  C   UNL     1      -0.002  -0.009   0.002  0.00  0.00    +0.194 C 
BRANCH  18  19
ATOM     19  C   UNL     1       0.708  -0.488  -1.238  0.00  0.00    +0.242 C 
ATOM     20  O   UNL     1       1.710  -1.166  -1.140  0.00  0.00    -0.273 OA
ATOM     21  N   UNL     1       0.231  -0.164  -2.456  0.00  0.00    -0.284 N 
ATOM     22  H   UNL     1      -0.606   0.320  -2.535  0.00  0.00    +0.155 HD
BRANCH  21  23
ATOM     23  C   UNL     1       0.943  -0.527  -3.607  0.00  0.00    +0.034 A 
ATOM     24  C   UNL     1       0.954   0.316  -4.711  0.00  0.00    +0.025 A 
ATOM     25  C   UNL     1       1.656  -0.041  -5.845  0.00  0.00    +0.025 A 
ATOM     26  C   UNL     1       2.352  -1.242  -5.881  0.00  0.00    +0.029 A 
ATOM     27  C   UNL     1       2.341  -2.085  -4.777  0.00  0.00    +0.025 A 
ATOM     28  C   UNL     1       1.643  -1.725  -3.642  0.00  0.00    +0.025 A 
BRANCH  26  29
ATOM     29  N   UNL     1       3.063  -1.604  -7.030  0.00  0.00    -0.336 N 
ATOM     30  C   UNL     1       3.074  -0.716  -8.195  0.00  0.00    +0.129 C 
ATOM     31  C   UNL     1       3.797  -2.871  -7.069  0.00  0.00    +0.129 C 
ENDBRANCH  26  29
ENDBRANCH  21  23
ENDBRANCH  18  19
ENDBRANCH   1  18
TORSDOF 5
