REMARK  Name = ZINC08852013
REMARK  9 active torsions:
REMARK  status: ('A' for Active; 'I' for Inactive)
REMARK    1  A    between atoms: C_1  and  N_2
REMARK    2  A    between atoms: N_9  and  C_12
REMARK    3  A    between atoms: C_12  and  C_13
REMARK    4  A    between atoms: C_13  and  C_14
REMARK    5  A    between atoms: N_16  and  N_17
REMARK    6  A    between atoms: C_18  and  C_20
REMARK    7  A    between atoms: C_23  and  C_26
REMARK    8  A    between atoms: C_26  and  O_27
REMARK    9  A    between atoms: O_27  and  C_28
REMARK                            x       y       z     vdW  Elec       q    Type
REMARK                         _______ _______ _______ _____ _____    ______ ____
ROOT
ATOM      1  N   UNL     1       0.002  -0.004   0.002  0.00  0.00    -0.230 N 
ATOM      2  C   UNL     1      -1.156  -0.694   0.009  0.00  0.00    +0.260 C 
ATOM      3  O   UNL     1      -2.217  -0.100   0.023  0.00  0.00    -0.269 OA
ATOM      4  H   UNL     1       0.849  -0.478  -0.009  0.00  0.00    +0.173 HD
ENDROOT
BRANCH   2   5
ATOM      5  C   UNL     1      -1.136  -2.172   0.001  0.00  0.00    +0.038 A 
ATOM      6  C   UNL     1       0.081  -2.856  -0.020  0.00  0.00    +0.013 A 
ATOM      7  C   UNL     1       0.092  -4.236  -0.022  0.00  0.00    +0.008 A 
ATOM      8  C   UNL     1      -1.098  -4.941  -0.015  0.00  0.00    -0.010 A 
ATOM      9  C   UNL     1      -2.307  -4.269   0.001  0.00  0.00    +0.008 A 
ATOM     10  C   UNL     1      -2.333  -2.889   0.009  0.00  0.00    +0.013 A 
BRANCH   8  11
ATOM     11  C   UNL     1      -1.078  -6.448  -0.022  0.00  0.00    +0.264 C 
BRANCH  11  12
ATOM     12  O   UNL     1      -1.085  -6.917  -1.372  0.00  0.00    -0.487 OA
BRANCH  12  13
ATOM     13  C   UNL     1      -1.068  -8.264  -1.557  0.00  0.00    +0.121 A 
ATOM     14  C   UNL     1      -1.040  -9.115  -0.462  0.00  0.00    +0.047 A 
ATOM     15  C   UNL     1      -1.028 -10.483  -0.652  0.00  0.00    +0.023 A 
ATOM     16  C   UNL     1      -1.033 -11.005  -1.934  0.00  0.00    +0.041 A 
ATOM     17  C   UNL     1      -1.056 -10.157  -3.027  0.00  0.00    +0.023 A 
ATOM     18  C   UNL     1      -1.073  -8.788  -2.841  0.00  0.00    +0.047 A 
ATOM     19 CL   UNL     1      -1.012 -12.724  -2.170  0.00  0.00    -0.084 Cl
ENDBRANCH  12  13
ENDBRANCH  11  12
ENDBRANCH   8  11
ENDBRANCH   2   5
BRANCH   1  22
ATOM     20  C   UNL     1       1.141   2.087   0.002  0.00  0.00    +0.231 C 
ATOM     21  O   UNL     1       2.199   1.494  -0.011  0.00  0.00    -0.274 OA
ATOM     22  N   UNL     1      -0.017   1.397   0.010  0.00  0.00    -0.234 N 
ATOM     23  H   UNL     1      -0.864   1.870   0.016  0.00  0.00    +0.173 HD
BRANCH  20  24
ATOM     24  C   UNL     1       1.121   3.593   0.011  0.00  0.00    +0.119 C 
BRANCH  24  25
ATOM     25  C   UNL     1       2.556   4.123  -0.000  0.00  0.00    +0.135 C 
BRANCH  25  34
ATOM     26  C   UNL     1       2.457  10.715  -0.934  0.00  0.00    +0.174 C 
ATOM     27  N   UNL     1       2.481   9.674   0.096  0.00  0.00    -0.249 N 
ATOM     28  C   UNL     1       2.497   8.334  -0.128  0.00  0.00    +0.165 A 
ATOM     29  C   UNL     1       2.518   7.717   1.133  0.00  0.00    +0.103 A 
ATOM     30  C   UNL     1       2.512   8.741   2.099  0.00  0.00    +0.150 A 
ATOM     31  N   UNL     1       2.490   9.889   1.480  0.00  0.00    -0.177 NA
ATOM     32  C   UNL     1       2.538   6.255   1.185  0.00  0.00    +0.265 A 
ATOM     33  O   UNL     1       2.556   5.661   2.249  0.00  0.00    -0.267 OA
ATOM     34  N   UNL     1       2.536   5.588   0.008  0.00  0.00    -0.298 N 
ATOM     35  C   UNL     1       2.521   6.270  -1.165  0.00  0.00    +0.204 A 
ATOM     36  N   UNL     1       2.498   7.569  -1.230  0.00  0.00    -0.218 NA
ENDBRANCH  25  34
ENDBRANCH  24  25
ENDBRANCH  20  24
ENDBRANCH   1  22
TORSDOF 8
