REMARK  Name = ZINC39573893
REMARK  6 active torsions:
REMARK  status: ('A' for Active; 'I' for Inactive)
REMARK    1  A    between atoms: C_1  and  C_2
REMARK    2  A    between atoms: C_2  and  C_20
REMARK    3  A    between atoms: N_3  and  N_4
REMARK    4  A    between atoms: C_5  and  C_7
REMARK    5  A    between atoms: C_10  and  C_13
REMARK    6  A    between atoms: C_23  and  N_26
REMARK                            x       y       z     vdW  Elec       q    Type
REMARK                         _______ _______ _______ _____ _____    ______ ____
ROOT
ATOM      1  N   UNL     1       0.024   0.035   2.339  0.00  0.00    -0.205 N 
ATOM      2  C   UNL     1       0.044  -0.645   3.503  0.00  0.00    +0.263 C 
ATOM      3  O   UNL     1       0.060  -1.858   3.496  0.00  0.00    -0.271 OA
ATOM      4  H   UNL     1       0.011   1.005   2.345  0.00  0.00    +0.177 HD
ENDROOT
BRANCH   2   5
ATOM      5  C   UNL     1       0.046   0.101   4.812  0.00  0.00    +0.240 C 
ATOM      6  C   UNL     1      -1.364   0.512   5.197  0.00  0.00    +0.041 C 
ATOM      7  C   UNL     1      -1.579  -0.126   6.363  0.00  0.00    +0.092 C 
ATOM      8  N   UNL     1      -0.487  -0.856   6.713  0.00  0.00    -0.153 NA
ATOM      9  N   UNL     1       0.455  -0.784   5.915  0.00  0.00    -0.170 NA
BRANCH   7  10
ATOM     10  C   UNL     1      -2.832  -0.046   7.154  0.00  0.00    +0.002 A 
ATOM     11  C   UNL     1      -3.897   0.729   6.699  0.00  0.00    +0.011 A 
ATOM     12  C   UNL     1      -5.060   0.800   7.438  0.00  0.00    +0.016 A 
ATOM     13  C   UNL     1      -5.170   0.104   8.629  0.00  0.00    +0.018 A 
ATOM     14  C   UNL     1      -4.115  -0.668   9.085  0.00  0.00    +0.016 A 
ATOM     15  C   UNL     1      -2.949  -0.750   8.351  0.00  0.00    +0.011 A 
ATOM     16 BR   UNL     1      -6.767   0.206   9.637  0.00  0.00    -0.050 Br
ENDBRANCH   7  10
ENDBRANCH   2   5
BRANCH   1  19
ATOM     17  C   UNL     1      -0.018   1.503   0.010  0.00  0.00    +0.068 C 
ATOM     18  C   UNL     1       0.002  -0.004   0.002  0.00  0.00    +0.063 C 
ATOM     19  N   UNL     1       0.022  -0.659   1.122  0.00  0.00    -0.184 NA
BRANCH  18  20
ATOM     20  C   UNL     1      -0.000  -0.735  -1.279  0.00  0.00    -0.002 A 
ATOM     21  C   UNL     1      -0.015  -0.033  -2.487  0.00  0.00    +0.012 A 
ATOM     22  C   UNL     1      -0.017  -0.723  -3.682  0.00  0.00    +0.033 A 
ATOM     23  C   UNL     1      -0.004  -2.106  -3.685  0.00  0.00    +0.126 A 
ATOM     24  C   UNL     1       0.011  -2.808  -2.493  0.00  0.00    +0.033 A 
ATOM     25  C   UNL     1       0.019  -2.131  -1.291  0.00  0.00    +0.012 A 
BRANCH  23  26
ATOM     26  N   UNL     1      -0.006  -2.840  -4.971  0.00  0.00    +0.056 N 
ATOM     27  O   UNL     1      -0.020  -2.229  -6.015  0.00  0.00    -0.126 OA
ATOM     28  O   UNL     1       0.005  -4.048  -4.978  0.00  0.00    -0.126 OA
ENDBRANCH  23  26
ENDBRANCH  18  20
ENDBRANCH   1  19
TORSDOF 5
