REMARK  Name = ZINC38931632
REMARK  9 active torsions:
REMARK  status: ('A' for Active; 'I' for Inactive)
REMARK    1  A    between atoms: C_1  and  C_2
REMARK    2  A    between atoms: C_2  and  C_3
REMARK    3  A    between atoms: C_2  and  C_4
REMARK    4  A    between atoms: C_2  and  C_5
REMARK    5  A    between atoms: C_7  and  C_11
REMARK    6  A    between atoms: N_13  and  N_14
REMARK    7  A    between atoms: C_15  and  C_16
REMARK    8  A    between atoms: C_19  and  O_22
REMARK    9  A    between atoms: O_22  and  C_23
REMARK                            x       y       z     vdW  Elec       q    Type
REMARK                         _______ _______ _______ _____ _____    ______ ____
ROOT
ATOM      1  C   UNL     1       3.305  -0.473  -3.310  0.00  0.00    +0.262 C 
ATOM      2  O   UNL     1       4.059  -1.230  -2.735  0.00  0.00    -0.271 OA
ATOM      3  N   UNL     1       3.800   0.534  -4.056  0.00  0.00    -0.205 N 
ATOM      4  H   UNL     1       3.197   1.139  -4.515  0.00  0.00    +0.177 HD
ENDROOT
BRANCH   1   7
ATOM      5  C   UNL     1       0.707  -0.490  -1.238  0.00  0.00    +0.067 C 
ATOM      6  C   UNL     1       1.233   0.306  -2.172  0.00  0.00    +0.036 C 
ATOM      7  C   UNL     1       1.815  -0.660  -3.189  0.00  0.00    +0.240 C 
ATOM      8  N   UNL     1       1.496  -1.978  -2.615  0.00  0.00    -0.170 NA
ATOM      9  N   UNL     1       0.899  -1.790  -1.552  0.00  0.00    -0.158 NA
BRANCH   5  11
ATOM     10  C   UNL     1      -0.019   1.526   0.010  0.00  0.00    +0.017 C 
ATOM     11  C   UNL     1       0.002  -0.004   0.002  0.00  0.00    +0.006 C 
ATOM     12  C   UNL     1       0.742  -0.511   1.242  0.00  0.00    +0.017 C 
ATOM     13  C   UNL     1      -1.433  -0.534   0.013  0.00  0.00    +0.017 C 
ENDBRANCH   5  11
ENDBRANCH   1   7
BRANCH   3  14
ATOM     14  N   UNL     1       5.186   0.708  -4.168  0.00  0.00    -0.188 NA
ATOM     15  C   UNL     1       5.662   1.678  -4.886  0.00  0.00    +0.138 C 
BRANCH  15  16
ATOM     16  C   UNL     1       7.120   1.861  -5.003  0.00  0.00    -0.005 A 
ATOM     17  C   UNL     1       7.991   0.987  -4.347  0.00  0.00    +0.013 A 
ATOM     18  C   UNL     1       9.354   1.161  -4.461  0.00  0.00    +0.046 A 
ATOM     19  C   UNL     1       9.861   2.204  -5.226  0.00  0.00    +0.120 A 
ATOM     20  C   UNL     1       8.999   3.075  -5.879  0.00  0.00    +0.046 A 
ATOM     21  C   UNL     1       7.636   2.905  -5.776  0.00  0.00    +0.013 A 
BRANCH  19  22
ATOM     22  O   UNL     1      11.205   2.372  -5.334  0.00  0.00    -0.495 OA
ATOM     23  C   UNL     1      11.659   3.463  -6.137  0.00  0.00    +0.277 C 
ENDBRANCH  19  22
ENDBRANCH  15  16
ENDBRANCH   3  14
TORSDOF 5
