REMARK  Name = ZINC24085875
REMARK  9 active torsions:
REMARK  status: ('A' for Active; 'I' for Inactive)
REMARK    1  A    between atoms: C_1  and  C_2
REMARK    2  A    between atoms: C_5  and  O_9
REMARK    3  A    between atoms: C_6  and  C_8
REMARK    4  A    between atoms: O_9  and  C_10
REMARK    5  A    between atoms: C_10  and  C_11
REMARK    6  A    between atoms: C_11  and  C_13
REMARK    7  A    between atoms: C_11  and  O_28
REMARK    8  A    between atoms: C_13  and  N_14
REMARK    9  A    between atoms: C_20  and  N_25
REMARK                            x       y       z     vdW  Elec       q    Type
REMARK                         _______ _______ _______ _____ _____    ______ ____
ROOT
ATOM      1  C   UNL     1       4.810   2.562  -0.029  0.00  0.00    +0.151 C 
ENDROOT
BRANCH   1   2
ATOM      2  N   UNL     1       3.345   2.534  -0.016  0.00  0.00    -0.232 N 
ATOM      3  C   UNL     1       2.605   1.411  -0.015  0.00  0.00    +0.254 C 
ATOM      4  O   UNL     1       3.039   0.276  -0.024  0.00  0.00    -0.270 OA
ATOM      5  C   UNL     1       1.176   1.788   0.000  0.00  0.00    +0.050 A 
ATOM      6  C   UNL     1      -0.013   1.076   0.008  0.00  0.00    +0.016 A 
ATOM      7  C   UNL     1      -1.221   1.756   0.017  0.00  0.00    +0.033 A 
ATOM      8  C   UNL     1      -1.247   3.137   0.031  0.00  0.00    +0.127 A 
ATOM      9  C   UNL     1      -0.066   3.863   0.023  0.00  0.00    +0.046 A 
ATOM     10  C   UNL     1       1.149   3.197   0.008  0.00  0.00    +0.052 A 
ATOM     11  C   UNL     1       2.563   3.628  -0.003  0.00  0.00    +0.254 C 
ATOM     12  O   UNL     1       2.953   4.779  -0.002  0.00  0.00    -0.270 OA
BRANCH   8  13
ATOM     13  N   UNL     1      -2.546   3.848   0.048  0.00  0.00    +0.056 N 
ATOM     14  O   UNL     1      -2.574   5.065   0.054  0.00  0.00    -0.126 OA
ATOM     15  O   UNL     1      -3.586   3.214   0.055  0.00  0.00    -0.126 OA
ENDBRANCH   8  13
ENDBRANCH   1   2
BRANCH   1  16
ATOM     16  C   UNL     1       5.332   2.564   1.409  0.00  0.00    +0.170 C 
BRANCH  16  17
ATOM     17  O   UNL     1       4.840   3.718   2.093  0.00  0.00    -0.387 OA
ATOM     18  H   UNL     1       3.756   3.871   2.204  0.00  0.00    +0.210 HD
ENDBRANCH  16  17
BRANCH  16  19
ATOM     19  C   UNL     1       6.862   2.593   1.396  0.00  0.00    +0.262 C 
BRANCH  19  20
ATOM     20  O   UNL     1       7.352   2.478   2.733  0.00  0.00    -0.489 OA
BRANCH  20  25
ATOM     21  C   UNL     1      12.943   2.517   3.419  0.00  0.00    +0.044 C 
ATOM     22  C   UNL     1      11.447   2.506   3.236  0.00  0.00    -0.050 A 
ATOM     23  C   UNL     1      10.906   2.614   1.967  0.00  0.00    +0.007 A 
ATOM     24  C   UNL     1       9.536   2.605   1.796  0.00  0.00    +0.046 A 
ATOM     25  C   UNL     1       8.701   2.487   2.898  0.00  0.00    +0.124 A 
ATOM     26  C   UNL     1       9.246   2.384   4.170  0.00  0.00    -0.009 A 
ATOM     27  C   UNL     1      10.618   2.389   4.335  0.00  0.00    +0.010 A 
ATOM     28  C   UNL     1       8.342   2.262   5.370  0.00  0.00    +0.047 C 
ENDBRANCH  20  25
ENDBRANCH  19  20
ENDBRANCH  16  19
ENDBRANCH   1  16
TORSDOF 7
