REMARK  Name = ZINC13432977
REMARK  14 active torsions:
REMARK  status: ('A' for Active; 'I' for Inactive)
REMARK    1  A    between atoms: C_1  and  C_2
REMARK    2  A    between atoms: C_3  and  C_31
REMARK    3  A    between atoms: C_4  and  O_30
REMARK    4  A    between atoms: C_5  and  C_10
REMARK    5  A    between atoms: C_6  and  O_9
REMARK    6  A    between atoms: C_10  and  C_11
REMARK    7  A    between atoms: C_12  and  C_13
REMARK    8  A    between atoms: C_12  and  C_14
REMARK    9  A    between atoms: C_14  and  C_16
REMARK   10  A    between atoms: C_14  and  O_29
REMARK   11  A    between atoms: C_16  and  C_17
REMARK   12  A    between atoms: C_17  and  C_28
REMARK   13  A    between atoms: C_18  and  C_27
REMARK   14  A    between atoms: C_24  and  C_26
REMARK                            x       y       z     vdW  Elec       q    Type
REMARK                         _______ _______ _______ _____ _____    ______ ____
ROOT
ATOM      1  C   UNL     1      -5.673   0.439   0.194  0.00  0.00    -0.021 C 
ATOM      2  C   UNL     1      -6.815   0.727   0.767  0.00  0.00    -0.048 C 
ATOM      3  C   UNL     1      -8.019   1.058  -0.078  0.00  0.00    +0.041 C 
ENDROOT
BRANCH   1   4
ATOM      4  C   UNL     1      -5.583   0.351  -1.308  0.00  0.00    +0.069 C 
BRANCH   4   9
ATOM      5  C   UNL     1      -1.363   3.854  -3.189  0.00  0.00    +0.046 C 
ATOM      6  C   UNL     1      -2.457   2.939  -2.703  0.00  0.00    -0.015 A 
ATOM      7  C   UNL     1      -2.165   1.606  -2.383  0.00  0.00    +0.060 A 
ATOM      8  C   UNL     1      -3.190   0.759  -1.924  0.00  0.00    +0.134 A 
ATOM      9  C   UNL     1      -4.478   1.250  -1.798  0.00  0.00    +0.041 A 
ATOM     10  C   UNL     1      -4.750   2.571  -2.124  0.00  0.00    +0.142 A 
ATOM     11  C   UNL     1      -3.733   3.408  -2.578  0.00  0.00    +0.086 A 
ATOM     12 CL   UNL     1      -4.089   5.059  -2.981  0.00  0.00    -0.079 Cl
BRANCH  10  13
ATOM     13  O   UNL     1      -6.014   3.050  -1.999  0.00  0.00    -0.505 OA
ATOM     14  H   UNL     1      -6.206   3.430  -1.131  0.00  0.00    +0.292 HD
ENDBRANCH  10  13
BRANCH   8  15
ATOM     15  O   UNL     1      -2.918  -0.531  -1.607  0.00  0.00    -0.506 OA
ATOM     16  H   UNL     1      -2.666  -0.664  -0.683  0.00  0.00    +0.292 HD
ENDBRANCH   8  15
BRANCH   7  17
ATOM     17  C   UNL     1      -0.798   1.098  -2.522  0.00  0.00    +0.262 C 
ATOM     18  O   UNL     1      -0.527  -0.025  -2.151  0.00  0.00    -0.296 OA
ENDBRANCH   7  17
ENDBRANCH   4   9
ENDBRANCH   1   4
BRANCH   2  19
ATOM     19  C   UNL     1      -6.926   0.728   2.269  0.00  0.00    +0.141 C 
BRANCH  19  20
ATOM     20  O   UNL     1      -7.427   1.992   2.709  0.00  0.00    -0.387 OA
ATOM     21  H   UNL     1      -8.329   2.181   2.416  0.00  0.00    +0.210 HD
ENDBRANCH  19  20
BRANCH  19  22
ATOM     22  C   UNL     1      -7.883  -0.381   2.711  0.00  0.00    +0.043 C 
BRANCH  22  23
ATOM     23  C   UNL     1      -7.884  -0.475   4.250  0.00  0.00    -0.018 C 
ATOM     24  C   UNL     1      -6.455  -0.684   4.720  0.00  0.00    -0.007 C 
ATOM     25  C   UNL     1      -6.349  -1.065   6.190  0.00  0.00    +0.011 C 
ATOM     26  C   UNL     1      -7.152  -2.337   6.473  0.00  0.00    +0.075 C 
ATOM     27  C   UNL     1      -8.582  -2.077   6.054  0.00  0.00    +0.137 C 
ATOM     28  O   UNL     1      -9.490  -2.276   6.831  0.00  0.00    -0.297 OA
ATOM     29  C   UNL     1      -8.857  -1.571   4.664  0.00  0.00    +0.058 C 
ATOM     30  C   UNL     1      -8.851  -2.726   3.662  0.00  0.00    +0.016 C 
ATOM     31  C   UNL     1      -5.723  -1.700   3.845  0.00  0.00    +0.008 C 
ATOM     32  C   UNL     1      -8.396   0.871   4.795  0.00  0.00    +0.012 C 
ENDBRANCH  22  23
ENDBRANCH  19  22
ENDBRANCH   2  19
TORSDOF 9
