REMARK  Name = ZINC38596518
REMARK  8 active torsions:
REMARK  status: ('A' for Active; 'I' for Inactive)
REMARK    1  A    between atoms: C_1  and  C_2
REMARK    2  A    between atoms: C_2  and  O_3
REMARK    3  A    between atoms: O_3  and  C_4
REMARK    4  A    between atoms: C_4  and  C_6
REMARK    5  A    between atoms: C_8  and  N_17
REMARK    6  A    between atoms: C_18  and  C_20
REMARK    7  A    between atoms: C_20  and  N_21
REMARK    8  A    between atoms: N_24  and  C_27
REMARK                            x       y       z     vdW  Elec       q    Type
REMARK                         _______ _______ _______ _____ _____    ______ ____
ROOT
ATOM      1  N   UNL     1      -0.197  -1.370   4.366  0.00  0.00    -0.285 N 
ATOM      2  C   UNL     1      -0.910  -1.626   5.480  0.00  0.00    +0.231 C 
ATOM      3  O   UNL     1      -0.876  -2.730   5.981  0.00  0.00    -0.274 OA
ATOM      4  H   UNL     1      -0.157  -0.467   4.013  0.00  0.00    +0.155 HD
ENDROOT
BRANCH   1   6
ATOM      5  C   UNL     1       0.635  -3.803   4.217  0.00  0.00    +0.234 C 
ATOM      6  C   UNL     1       0.469  -2.379   3.736  0.00  0.00    +0.053 C 
ATOM      7  C   UNL     1       1.133  -2.312   2.524  0.00  0.00    +0.020 A 
ATOM      8  C   UNL     1       1.330  -1.256   1.600  0.00  0.00    +0.050 A 
ATOM      9  C   UNL     1       2.038  -1.481   0.464  0.00  0.00    +0.124 A 
ATOM     10  C   UNL     1       2.585  -2.737   0.178  0.00  0.00    +0.040 A 
ATOM     11  C   UNL     1       2.436  -3.791   1.016  0.00  0.00    +0.029 A 
ATOM     12  C   UNL     1       1.707  -3.634   2.224  0.00  0.00    +0.045 A 
ATOM     13  N   UNL     1       1.424  -4.489   3.189  0.00  0.00    -0.367 N 
ATOM     14  F   UNL     1       2.220  -0.468  -0.410  0.00  0.00    -0.205 F 
ATOM     15  H   UNL     1       1.695  -5.420   3.215  0.00  0.00    +0.161 HD
BRANCH   5  16
ATOM     16  C   UNL     1       1.367  -3.824   5.534  0.00  0.00    +0.336 C 
ATOM     17  O   UNL     1       2.559  -3.629   5.566  0.00  0.00    -0.248 OA
BRANCH  16  18
ATOM     18  O   UNL     1       0.695  -4.060   6.672  0.00  0.00    -0.463 OA
BRANCH  18  20
ATOM     19  C   UNL     1       0.523  -4.349   9.065  0.00  0.00    +0.048 C 
ATOM     20  C   UNL     1       1.453  -4.066   7.883  0.00  0.00    +0.229 C 
ENDBRANCH  18  20
ENDBRANCH  16  18
ENDBRANCH   5  16
ENDBRANCH   1   6
BRANCH   2  21
ATOM     21  C   UNL     1      -1.751  -0.541   6.103  0.00  0.00    +0.180 C 
BRANCH  21  22
ATOM     22  N   UNL     1      -2.425  -1.069   7.297  0.00  0.00    -0.298 NA
ATOM     23  C   UNL     1      -3.407  -2.100   6.935  0.00  0.00    +0.066 C 
ATOM     24  C   UNL     1      -4.043  -2.665   8.207  0.00  0.00    -0.063 C 
ATOM     25  N   UNL     1      -4.697  -1.580   8.951  0.00  0.00    +0.383 N 
ATOM     26  C   UNL     1      -3.699  -0.570   9.327  0.00  0.00    -0.063 C 
ATOM     27  C   UNL     1      -3.061   0.012   8.063  0.00  0.00    +0.066 C 
ATOM     28  H   UNL     1      -5.404  -1.154   8.370  0.00  0.00    -0.081 HD
BRANCH  25  29
ATOM     29  C   UNL     1      -5.323  -2.125  10.163  0.00  0.00    -0.068 C 
ATOM     30  C   UNL     1      -6.363  -3.176   9.771  0.00  0.00    -0.015 C 
ATOM     31  C   UNL     1      -7.015  -3.744  11.034  0.00  0.00    -0.002 C 
ATOM     32  C   UNL     1      -7.697  -2.615  11.808  0.00  0.00    -0.000 C 
ATOM     33  C   UNL     1      -6.656  -1.564  12.200  0.00  0.00    -0.002 C 
ATOM     34  C   UNL     1      -6.005  -0.996  10.937  0.00  0.00    -0.015 C 
ENDBRANCH  25  29
ENDBRANCH  21  22
ENDBRANCH   2  21
TORSDOF 7
