REMARK  Name = ZINC10022059
REMARK  10 active torsions:
REMARK  status: ('A' for Active; 'I' for Inactive)
REMARK    1  A    between atoms: C_1  and  C_2
REMARK    2  A    between atoms: C_2  and  O_3
REMARK    3  A    between atoms: O_3  and  C_4
REMARK    4  A    between atoms: C_7  and  C_9
REMARK    5  A    between atoms: C_13  and  N_14
REMARK    6  A    between atoms: C_15  and  C_17
REMARK    7  A    between atoms: C_17  and  C_18
REMARK    8  A    between atoms: C_18  and  C_19
REMARK    9  A    between atoms: C_19  and  S_20
REMARK   10  A    between atoms: S_20  and  C_23
REMARK                            x       y       z     vdW  Elec       q    Type
REMARK                         _______ _______ _______ _____ _____    ______ ____
ROOT
ATOM      1  C   UNL     1      -1.584   2.276  -8.714  0.00  0.00    +0.069 A 
ATOM      2  C   UNL     1      -0.821   1.860  -9.879  0.00  0.00    -0.023 A 
ATOM      3  C   UNL     1       0.337   1.220  -9.609  0.00  0.00    -0.004 A 
ATOM      4  S   UNL     1       0.427   1.172  -7.841  0.00  0.00    -0.077 S 
ATOM      5  C   UNL     1      -1.053   1.989  -7.463  0.00  0.00    +0.084 A 
ATOM      6  C   UNL     1       1.320   0.676 -10.599  0.00  0.00    +0.043 C 
ATOM      7  C   UNL     1       0.640   0.619 -11.974  0.00  0.00    +0.005 C 
ATOM      8  C   UNL     1      -0.054   1.958 -12.237  0.00  0.00    +0.005 C 
ATOM      9  C   UNL     1      -1.266   2.106 -11.315  0.00  0.00    +0.037 C 
ENDROOT
BRANCH   1  13
ATOM     10  C   UNL     1      -5.190   2.916  -9.044  0.00  0.00    +0.407 C 
ATOM     11  O   UNL     1      -5.216   4.128  -9.105  0.00  0.00    -0.226 OA
ATOM     12  N   UNL     1      -4.013   2.272  -8.915  0.00  0.00    -0.217 N 
ATOM     13  C   UNL     1      -2.864   2.975  -8.854  0.00  0.00    +0.255 C 
ATOM     14  O   UNL     1      -2.890   4.190  -8.915  0.00  0.00    -0.270 OA
ATOM     15  H   UNL     1      -3.992   1.304  -8.866  0.00  0.00    +0.161 HD
BRANCH  10  16
ATOM     16  O   UNL     1      -6.337   2.214  -9.105  0.00  0.00    -0.450 OA
BRANCH  16  18
ATOM     17  C   UNL     1      -8.756   2.011  -9.295  0.00  0.00    +0.048 C 
ATOM     18  C   UNL     1      -7.567   2.972  -9.243  0.00  0.00    +0.230 C 
ENDBRANCH  16  18
ENDBRANCH  10  16
ENDBRANCH   1  13
BRANCH   5  19
ATOM     19  N   UNL     1      -1.582   2.281  -6.215  0.00  0.00    -0.279 N 
ATOM     20  C   UNL     1      -0.919   1.915  -5.101  0.00  0.00    +0.218 C 
ATOM     21  O   UNL     1       0.140   1.330  -5.189  0.00  0.00    -0.275 OA
ATOM     22  H   UNL     1      -2.429   2.748  -6.145  0.00  0.00    +0.155 HD
BRANCH  20  23
ATOM     23  C   UNL     1      -1.493   2.232  -3.744  0.00  0.00    +0.098 C 
BRANCH  23  24
ATOM     24  C   UNL     1      -0.551   1.712  -2.657  0.00  0.00    +0.032 C 
BRANCH  24  25
ATOM     25  C   UNL     1      -1.135   2.034  -1.279  0.00  0.00    +0.172 C 
BRANCH  25  26
ATOM     26  S   UNL     1      -0.017   1.417   0.010  0.00  0.00    -0.003 S 
ATOM     27  O   UNL     1       0.002  -0.004   0.002  0.00  0.00    -0.169 OA
ATOM     28  O   UNL     1       1.195   2.158   0.002  0.00  0.00    -0.169 OA
BRANCH  26  29
ATOM     29  C   UNL     1      -0.798   1.847   1.530  0.00  0.00    +0.088 A 
ATOM     30  C   UNL     1      -0.521   3.062   2.129  0.00  0.00    +0.028 A 
ATOM     31  C   UNL     1      -1.137   3.403   3.318  0.00  0.00    +0.022 A 
ATOM     32  C   UNL     1      -2.023   2.523   3.915  0.00  0.00    +0.041 A 
ATOM     33  C   UNL     1      -2.295   1.305   3.318  0.00  0.00    +0.022 A 
ATOM     34  C   UNL     1      -1.683   0.968   2.126  0.00  0.00    +0.028 A 
ATOM     35 CL   UNL     1      -2.792   2.948   5.412  0.00  0.00    -0.084 Cl
ENDBRANCH  26  29
ENDBRANCH  25  26
ENDBRANCH  24  25
ENDBRANCH  23  24
ENDBRANCH  20  23
ENDBRANCH   5  19
TORSDOF 9
