REMARK  Name = ZINC15970365
REMARK  7 active torsions:
REMARK  status: ('A' for Active; 'I' for Inactive)
REMARK    1  A    between atoms: C_1  and  C_2
REMARK    2  A    between atoms: C_2  and  C_4
REMARK    3  A    between atoms: C_2  and  N_16
REMARK    4  A    between atoms: N_6  and  C_7
REMARK    5  A    between atoms: C_7  and  C_8
REMARK    6  A    between atoms: C_8  and  C_9
REMARK    7  A    between atoms: C_17  and  C_19
REMARK                            x       y       z     vdW  Elec       q    Type
REMARK                         _______ _______ _______ _____ _____    ______ ____
ROOT
ATOM      1  C   UNL     1      -0.019   1.531   0.011  0.00  0.00    +0.167 C 
ATOM      2  C   UNL     1      -0.087  -0.002   0.055  0.00  0.00    +0.069 C 
ATOM      3  C   UNL     1       1.011  -0.549   0.931  0.00  0.00    -0.015 A 
ATOM      4  C   UNL     1       1.115  -1.893   1.471  0.00  0.00    +0.003 A 
ATOM      5  C   UNL     1       0.291  -3.017   1.366  0.00  0.00    +0.010 A 
ATOM      6  C   UNL     1       0.705  -4.152   2.019  0.00  0.00    +0.001 A 
ATOM      7  C   UNL     1       1.881  -4.192   2.750  0.00  0.00    +0.002 A 
ATOM      8  C   UNL     1       2.714  -3.093   2.871  0.00  0.00    +0.026 A 
ATOM      9  C   UNL     1       2.319  -1.927   2.218  0.00  0.00    +0.047 A 
ATOM     10  N   UNL     1       2.889  -0.691   2.127  0.00  0.00    -0.356 N 
ATOM     11  H   UNL     1       3.727  -0.430   2.540  0.00  0.00    +0.166 HD
ATOM     12  C   UNL     1       2.099   0.127   1.365  0.00  0.00    +0.046 A 
ATOM     13  C   UNL     1       2.352   1.577   1.030  0.00  0.00    +0.155 C 
ATOM     14  N   UNL     1       1.395   1.916  -0.049  0.00  0.00    -0.273 N 
ATOM     15  C   UNL     1       2.058   2.555  -1.022  0.00  0.00    +0.248 C 
ATOM     16  O   UNL     1       1.542   3.143  -1.951  0.00  0.00    -0.270 OA
ATOM     17  C   UNL     1       3.502   2.435  -0.794  0.00  0.00    +0.042 A 
ATOM     18  C   UNL     1       3.706   1.805   0.451  0.00  0.00    -0.009 A 
ATOM     19  C   UNL     1       4.971   1.520   0.915  0.00  0.00    +0.006 A 
ATOM     20  C   UNL     1       6.041   1.893   0.107  0.00  0.00    +0.000 A 
ATOM     21  C   UNL     1       5.851   2.521  -1.108  0.00  0.00    +0.001 A 
ATOM     22  C   UNL     1       4.585   2.809  -1.593  0.00  0.00    +0.013 A 
ENDROOT
BRANCH   1  24
ATOM     23  N   UNL     1      -1.896   2.714  -1.083  0.00  0.00    -0.303 N 
ATOM     24  C   UNL     1      -0.737   2.038  -1.213  0.00  0.00    +0.235 C 
ATOM     25  O   UNL     1      -0.273   1.838  -2.316  0.00  0.00    -0.274 OA
ATOM     26  H   UNL     1      -2.267   2.874  -0.201  0.00  0.00    +0.149 HD
BRANCH  23  28
ATOM     27  C   UNL     1      -3.477   2.096  -2.843  0.00  0.00    +0.038 C 
ATOM     28  C   UNL     1      -2.595   3.207  -2.272  0.00  0.00    +0.156 C 
BRANCH  28  29
ATOM     29  C   UNL     1      -3.453   4.388  -1.897  0.00  0.00    +0.233 C 
ATOM     30  O   UNL     1      -3.478   4.779  -0.750  0.00  0.00    -0.274 OA
ATOM     31  N   UNL     1      -4.192   5.010  -2.838  0.00  0.00    -0.313 N 
ATOM     32  H   UNL     1      -4.171   4.697  -3.756  0.00  0.00    +0.149 HD
BRANCH  31  33
ATOM     33  C   UNL     1      -5.026   6.157  -2.473  0.00  0.00    +0.109 C 
BRANCH  33  34
ATOM     34  C   UNL     1      -5.756   6.672  -3.716  0.00  0.00    +0.056 C 
BRANCH  34  35
ATOM     35  C   UNL     1      -6.614   7.853  -3.341  0.00  0.00    -0.011 A 
ATOM     36  C   UNL     1      -7.951   7.669  -3.043  0.00  0.00    +0.006 A 
ATOM     37  C   UNL     1      -8.737   8.751  -2.694  0.00  0.00    +0.000 A 
ATOM     38  C   UNL     1      -8.190  10.020  -2.653  0.00  0.00    +0.003 A 
ATOM     39  C   UNL     1      -6.855  10.207  -2.955  0.00  0.00    +0.038 A 
ATOM     40  C   UNL     1      -6.065   9.123  -3.300  0.00  0.00    +0.127 A 
ATOM     41  F   UNL     1      -4.759   9.305  -3.596  0.00  0.00    -0.205 F 
ENDBRANCH  34  35
ENDBRANCH  33  34
ENDBRANCH  31  33
ENDBRANCH  28  29
ENDBRANCH  23  28
ENDBRANCH   1  24
TORSDOF 6
