REMARK  Name = ZINC38600206
REMARK  9 active torsions:
REMARK  status: ('A' for Active; 'I' for Inactive)
REMARK    1  A    between atoms: C_1  and  C_2
REMARK    2  A    between atoms: C_7  and  C_30
REMARK    3  A    between atoms: C_9  and  N_12
REMARK    4  A    between atoms: C_13  and  C_15
REMARK    5  A    between atoms: C_15  and  C_17
REMARK    6  A    between atoms: C_15  and  N_18
REMARK    7  A    between atoms: N_21  and  C_24
REMARK    8  A    between atoms: C_30  and  O_32
REMARK    9  A    between atoms: O_32  and  C_33
REMARK                            x       y       z     vdW  Elec       q    Type
REMARK                         _______ _______ _______ _____ _____    ______ ____
ROOT
ATOM      1  N   UNL     1       0.335  -3.064   4.009  0.00  0.00    -0.285 N 
ATOM      2  C   UNL     1       0.518  -1.796   4.427  0.00  0.00    +0.234 C 
ATOM      3  O   UNL     1       0.086  -0.872   3.770  0.00  0.00    -0.274 OA
ATOM      4  H   UNL     1       0.609  -3.804   4.571  0.00  0.00    +0.155 HD
ENDROOT
BRANCH   1  12
ATOM      5  C   UNL     1      -0.903  -8.285   2.607  0.00  0.00    +0.044 C 
ATOM      6  C   UNL     1      -0.988  -6.888   2.048  0.00  0.00    -0.050 A 
ATOM      7  C   UNL     1      -1.533  -6.696   0.775  0.00  0.00    +0.005 A 
ATOM      8  C   UNL     1      -1.637  -5.464   0.220  0.00  0.00    +0.026 A 
ATOM      9  C   UNL     1      -1.184  -4.326   0.936  0.00  0.00    +0.045 A 
ATOM     10  N   UNL     1      -1.173  -3.046   0.624  0.00  0.00    -0.367 N 
ATOM     11  C   UNL     1      -0.589  -2.287   1.734  0.00  0.00    +0.234 C 
ATOM     12  C   UNL     1      -0.235  -3.305   2.795  0.00  0.00    +0.053 C 
ATOM     13  C   UNL     1      -0.610  -4.533   2.277  0.00  0.00    +0.018 A 
ATOM     14  C   UNL     1      -0.540  -5.849   2.794  0.00  0.00    +0.015 A 
ATOM     15  H   UNL     1      -1.499  -2.667  -0.207  0.00  0.00    +0.161 HD
BRANCH  11  16
ATOM     16  C   UNL     1       0.650  -1.564   1.273  0.00  0.00    +0.335 C 
ATOM     17  O   UNL     1       1.400  -2.092   0.486  0.00  0.00    -0.248 OA
BRANCH  16  18
ATOM     18  O   UNL     1       0.921  -0.333   1.735  0.00  0.00    -0.466 OA
ATOM     19  C   UNL     1       2.112   0.293   1.256  0.00  0.00    +0.280 C 
ENDBRANCH  16  18
ENDBRANCH  11  16
ENDBRANCH   1  12
BRANCH   2  20
ATOM     20  C   UNL     1       1.258  -1.525   5.712  0.00  0.00    +0.140 C 
ATOM     21  C   UNL     1       2.754  -1.764   5.498  0.00  0.00    +0.034 C 
BRANCH  20  22
ATOM     22  N   UNL     1       1.038  -0.132   6.120  0.00  0.00    -0.295 NA
ATOM     23  C   UNL     1       1.437   0.077   7.519  0.00  0.00    +0.066 C 
ATOM     24  C   UNL     1       1.136   1.522   7.922  0.00  0.00    -0.063 C 
ATOM     25  N   UNL     1       1.873   2.439   7.043  0.00  0.00    +0.383 N 
ATOM     26  C   UNL     1       1.446   2.236   5.653  0.00  0.00    -0.063 C 
ATOM     27  C   UNL     1       1.750   0.797   5.231  0.00  0.00    +0.066 C 
ATOM     28  H   UNL     1       2.863   2.257   7.121  0.00  0.00    -0.081 HD
BRANCH  25  29
ATOM     29  C   UNL     1       1.599   3.826   7.442  0.00  0.00    -0.068 C 
ATOM     30  C   UNL     1       2.046   4.038   8.890  0.00  0.00    -0.015 C 
ATOM     31  C   UNL     1       1.760   5.482   9.306  0.00  0.00    -0.002 C 
ATOM     32  C   UNL     1       2.528   6.438   8.390  0.00  0.00    -0.000 C 
ATOM     33  C   UNL     1       2.081   6.226   6.942  0.00  0.00    -0.002 C 
ATOM     34  C   UNL     1       2.367   4.781   6.527  0.00  0.00    -0.015 C 
ENDBRANCH  25  29
ENDBRANCH  20  22
ENDBRANCH   2  20
TORSDOF 6
