REMARK  Name = ZINC07405667
REMARK  6 active torsions:
REMARK  status: ('A' for Active; 'I' for Inactive)
REMARK    1  A    between atoms: C_1  and  C_2
REMARK    2  A    between atoms: C_5  and  S_9
REMARK    3  A    between atoms: C_6  and  C_8
REMARK    4  A    between atoms: S_9  and  N_12
REMARK    5  A    between atoms: N_12  and  C_13
REMARK    6  A    between atoms: C_17  and  N_19
REMARK                            x       y       z     vdW  Elec       q    Type
REMARK                         _______ _______ _______ _____ _____    ______ ____
ROOT
ATOM      1  N   UNL     1      -1.124   1.941  -1.156  0.00  0.00    -0.216 N 
ATOM      2  H   UNL     1      -0.867   2.651  -1.764  0.00  0.00    +0.174 HD
ENDROOT
BRANCH   1   3
ATOM      3  C   UNL     1      -2.326   1.254  -1.351  0.00  0.00    +0.050 A 
ATOM      4  C   UNL     1      -2.355  -0.132  -1.273  0.00  0.00    +0.027 A 
ATOM      5  C   UNL     1      -3.545  -0.808  -1.460  0.00  0.00    +0.042 A 
ATOM      6  C   UNL     1      -4.705  -0.106  -1.738  0.00  0.00    +0.154 A 
ATOM      7  C   UNL     1      -4.677   1.276  -1.823  0.00  0.00    +0.163 A 
ATOM      8  C   UNL     1      -3.491   1.957  -1.630  0.00  0.00    +0.060 A 
ATOM      9  F   UNL     1      -5.867  -0.769  -1.926  0.00  0.00    -0.203 F 
BRANCH   7  10
ATOM     10  N   UNL     1      -5.919   2.024  -2.119  0.00  0.00    +0.059 N 
ATOM     11  O   UNL     1      -5.895   3.240  -2.194  0.00  0.00    -0.126 OA
ATOM     12  O   UNL     1      -6.966   1.424  -2.289  0.00  0.00    -0.126 OA
ENDBRANCH   7  10
ENDBRANCH   1   3
BRANCH   1  13
ATOM     13  S   UNL     1      -0.139   1.542   0.115  0.00  0.00    +0.073 S 
ATOM     14  O   UNL     1       0.037   0.133   0.065  0.00  0.00    -0.150 OA
ATOM     15  O   UNL     1       0.955   2.448   0.081  0.00  0.00    -0.150 OA
BRANCH  13  20
ATOM     16  C   UNL     1      -3.197   2.719   5.181  0.00  0.00    +0.044 C 
ATOM     17  C   UNL     1      -2.434   2.425   3.916  0.00  0.00    -0.050 A 
ATOM     18  C   UNL     1      -2.047   1.129   3.627  0.00  0.00    +0.005 A 
ATOM     19  C   UNL     1      -1.347   0.860   2.466  0.00  0.00    +0.029 A 
ATOM     20  C   UNL     1      -1.033   1.886   1.594  0.00  0.00    +0.111 A 
ATOM     21  C   UNL     1      -1.414   3.182   1.886  0.00  0.00    -0.024 A 
ATOM     22  C   UNL     1      -2.119   3.451   3.044  0.00  0.00    +0.008 A 
ATOM     23  C   UNL     1      -1.066   4.301   0.938  0.00  0.00    +0.046 C 
ENDBRANCH  13  20
ENDBRANCH   1  13
TORSDOF 4
