REMARK  Name = ZINC36548500
REMARK  10 active torsions:
REMARK  status: ('A' for Active; 'I' for Inactive)
REMARK    1  A    between atoms: C_1  and  C_2
REMARK    2  A    between atoms: C_3  and  C_4
REMARK    3  A    between atoms: C_4  and  C_6
REMARK    4  A    between atoms: C_4  and  N_20
REMARK    5  A    between atoms: N_8  and  C_9
REMARK    6  A    between atoms: C_9  and  S_10
REMARK    7  A    between atoms: S_10  and  C_13
REMARK    8  A    between atoms: C_16  and  C_19
REMARK    9  A    between atoms: N_20  and  C_21
REMARK   10  A    between atoms: C_28  and  C_30
REMARK                            x       y       z     vdW  Elec       q    Type
REMARK                         _______ _______ _______ _____ _____    ______ ____
ROOT
ATOM      1  C   UNL     1      -1.134  -2.106  -0.036  0.00  0.00    +0.190 C 
ENDROOT
BRANCH   1   2
ATOM      2  C   UNL     1      -2.161  -2.576  -1.034  0.00  0.00    +0.239 C 
ATOM      3  O   UNL     1      -1.877  -3.444  -1.833  0.00  0.00    -0.273 OA
ATOM      4  N   UNL     1      -3.394  -2.032  -1.040  0.00  0.00    -0.294 N 
ATOM      5  H   UNL     1      -3.621  -1.338  -0.402  0.00  0.00    +0.150 HD
BRANCH   4   6
ATOM      6  C   UNL     1      -4.391  -2.489  -2.011  0.00  0.00    +0.278 C 
BRANCH   6   7
ATOM      7  S   UNL     1      -5.430  -3.768  -1.253  0.00  0.00    +0.013 S 
ATOM      8  O   UNL     1      -6.444  -4.177  -2.161  0.00  0.00    -0.168 OA
ATOM      9  O   UNL     1      -4.619  -4.730  -0.592  0.00  0.00    -0.168 OA
BRANCH   7  10
ATOM     10  C   UNL     1      -6.294  -2.942   0.042  0.00  0.00    +0.090 A 
ATOM     11  C   UNL     1      -5.745  -2.881   1.309  0.00  0.00    +0.027 A 
ATOM     12  C   UNL     1      -6.423  -2.233   2.325  0.00  0.00    +0.005 A 
ATOM     13  C   UNL     1      -7.649  -1.645   2.073  0.00  0.00    -0.050 A 
ATOM     14  C   UNL     1      -8.197  -1.706   0.806  0.00  0.00    +0.005 A 
ATOM     15  C   UNL     1      -7.517  -2.350  -0.211  0.00  0.00    +0.027 A 
ATOM     16  C   UNL     1      -8.388  -0.940   3.181  0.00  0.00    +0.044 C 
ENDBRANCH   7  10
ENDBRANCH   6   7
ENDBRANCH   4   6
ENDBRANCH   1   2
BRANCH   1  19
ATOM     17  C   UNL     1       1.153   0.784  -1.107  0.00  0.00    +0.035 C 
ATOM     18  C   UNL     1       0.656  -0.534  -0.571  0.00  0.00    -0.032 C 
ATOM     19  C   UNL     1      -0.630  -0.743  -0.437  0.00  0.00    +0.000 C 
ENDBRANCH   1  19
BRANCH   1  20
ATOM     20  N   UNL     1      -0.015  -3.050  -0.004  0.00  0.00    -0.253 N 
ATOM     21  C   UNL     1       0.747  -3.229  -1.101  0.00  0.00    +0.241 C 
ATOM     22  O   UNL     1       0.507  -2.607  -2.115  0.00  0.00    -0.273 OA
BRANCH  20  23
ATOM     23  C   UNL     1       0.262  -3.768   1.165  0.00  0.00    +0.056 A 
ATOM     24  C   UNL     1      -0.183  -5.076   1.302  0.00  0.00    +0.025 A 
ATOM     25  C   UNL     1       0.092  -5.781   2.457  0.00  0.00    +0.002 A 
ATOM     26  C   UNL     1       0.811  -5.186   3.478  0.00  0.00    +0.002 A 
ATOM     27  C   UNL     1       1.256  -3.884   3.346  0.00  0.00    +0.022 A 
ATOM     28  C   UNL     1       0.990  -3.175   2.190  0.00  0.00    +0.062 A 
ATOM     29 CL   UNL     1       1.556  -1.542   2.022  0.00  0.00    -0.082 Cl
ENDBRANCH  20  23
BRANCH  21  30
ATOM     30  C   UNL     1       1.899  -4.201  -1.069  0.00  0.00    +0.160 C 
ATOM     31  C   UNL     1       3.133  -3.545  -0.410  0.00  0.00    +0.041 C 
ATOM     32  C   UNL     1       3.891  -2.995  -1.641  0.00  0.00    +0.098 C 
ATOM     33  C   UNL     1       3.430  -3.872  -2.784  0.00  0.00    +0.214 C 
ATOM     34  O   UNL     1       3.984  -3.961  -3.859  0.00  0.00    -0.276 OA
ATOM     35  N   UNL     1       2.315  -4.541  -2.434  0.00  0.00    -0.304 N 
ATOM     36  H   UNL     1       1.847  -5.166  -3.009  0.00  0.00    +0.149 HD
ENDBRANCH  21  30
ENDBRANCH   1  20
TORSDOF 8
