REMARK  Name = ZINC22504613
REMARK  7 active torsions:
REMARK  status: ('A' for Active; 'I' for Inactive)
REMARK    1  A    between atoms: C_1  and  C_2
REMARK    2  A    between atoms: C_2  and  C_3
REMARK    3  A    between atoms: C_2  and  C_4
REMARK    4  A    between atoms: C_6  and  C_10
REMARK    5  A    between atoms: C_13  and  C_18
REMARK    6  A    between atoms: C_18  and  O_19
REMARK    7  A    between atoms: O_19  and  C_20
REMARK                            x       y       z     vdW  Elec       q    Type
REMARK                         _______ _______ _______ _____ _____    ______ ____
ROOT
ATOM      1  C   UNL     1       2.167  -5.946   3.211  0.00  0.00    +0.150 A 
ATOM      2  N   UNL     1       2.284  -4.881   2.457  0.00  0.00    -0.154 NA
ATOM      3  N   UNL     1       2.264  -4.977   1.071  0.00  0.00    -0.186 N 
ATOM      4  C   UNL     1       2.341  -4.166  -0.042  0.00  0.00    +0.193 A 
ATOM      5  N   UNL     1       2.243  -4.921  -1.099  0.00  0.00    -0.128 NA
ATOM      6  N   UNL     1       2.103  -6.153  -0.750  0.00  0.00    -0.120 NA
ATOM      7  C   UNL     1       2.106  -6.237   0.545  0.00  0.00    +0.218 A 
ATOM      8  S   UNL     1       2.003  -7.249   2.000  0.00  0.00    -0.025 S 
ENDROOT
BRANCH   1  11
ATOM      9  C   UNL     1       2.098  -6.840   6.774  0.00  0.00    +0.066 A 
ATOM     10  C   UNL     1       2.043  -7.197   5.427  0.00  0.00    +0.055 A 
ATOM     11  C   UNL     1       2.170  -6.044   4.683  0.00  0.00    +0.093 A 
ATOM     12  N   UNL     1       2.305  -5.011   5.564  0.00  0.00    -0.275 N 
ATOM     13  H   UNL     1       2.429  -3.983   5.191  0.00  0.00    +0.189 HD
ATOM     14  N   UNL     1       2.250  -5.543   6.858  0.00  0.00    -0.178 NA
BRANCH   9  16
ATOM     15  C   UNL     1       0.527  -8.043   8.268  0.00  0.00    +0.014 C 
ATOM     16  C   UNL     1       2.000  -7.790   7.939  0.00  0.00    +0.033 C 
ATOM     17  C   UNL     1       2.676  -9.114   7.576  0.00  0.00    +0.014 C 
ENDBRANCH   9  16
ENDBRANCH   1  11
BRANCH   4  18
ATOM     18  C   UNL     1       2.517  -2.669  -0.036  0.00  0.00    +0.307 C 
BRANCH  18  19
ATOM     19  O   UNL     1       1.234  -2.039  -0.020  0.00  0.00    -0.484 OA
BRANCH  19  20
ATOM     20  C   UNL     1       1.213  -0.680  -0.013  0.00  0.00    +0.121 A 
ATOM     21  C   UNL     1       0.002  -0.004   0.002  0.00  0.00    +0.047 A 
ATOM     22  C   UNL     1      -0.017   1.377   0.010  0.00  0.00    +0.023 A 
ATOM     23  C   UNL     1       1.172   2.086   0.002  0.00  0.00    +0.041 A 
ATOM     24  C   UNL     1       2.381   1.413  -0.013  0.00  0.00    +0.023 A 
ATOM     25  C   UNL     1       2.403   0.032  -0.021  0.00  0.00    +0.047 A 
ATOM     26 CL   UNL     1       1.145   3.822   0.011  0.00  0.00    -0.084 Cl
ENDBRANCH  19  20
ENDBRANCH  18  19
ENDBRANCH   4  18
TORSDOF 5
