REMARK  Name = ZINC39681265
REMARK  6 active torsions:
REMARK  status: ('A' for Active; 'I' for Inactive)
REMARK    1  A    between atoms: C_5  and  O_7
REMARK    2  A    between atoms: O_7  and  C_8
REMARK    3  A    between atoms: C_8  and  C_9
REMARK    4  A    between atoms: C_9  and  N_10
REMARK    5  A    between atoms: C_11  and  C_13
REMARK    6  A    between atoms: C_24  and  C_26
REMARK                            x       y       z     vdW  Elec       q    Type
REMARK                         _______ _______ _______ _____ _____    ______ ____
ROOT
ATOM      1  C   UNL     1       2.207  -6.295   2.119  0.00  0.00    +0.100 C 
ATOM      2  C   UNL     1       3.575  -5.698   2.518  0.00  0.00    +0.121 C 
ATOM      3  N   UNL     1       4.282  -6.807   3.200  0.00  0.00    -0.296 N 
ATOM      4  C   UNL     1       3.928  -8.011   2.411  0.00  0.00    +0.115 C 
ATOM      5  C   UNL     1       2.443  -7.813   2.049  0.00  0.00    -0.004 C 
ATOM      6  C   UNL     1       2.171  -8.326   0.638  0.00  0.00    -0.010 C 
ATOM      7  C   UNL     1       2.356  -9.846   0.608  0.00  0.00    -0.082 C 
ATOM      8  N   UNL     1       1.435 -10.472   1.564  0.00  0.00    +0.379 N 
ATOM      9  C   UNL     1       1.763 -10.044   2.929  0.00  0.00    -0.082 C 
ATOM     10  C   UNL     1       1.553  -8.533   3.058  0.00  0.00    -0.010 C 
ATOM     11  C   UNL     1       5.069  -6.736   4.292  0.00  0.00    +0.247 C 
ATOM     12  O   UNL     1       5.162  -5.692   4.908  0.00  0.00    -0.270 OA
ATOM     13  H   UNL     1       0.488 -10.198   1.345  0.00  0.00    -0.086 HD
ATOM     14  H   UNL     1       1.515 -11.475   1.498  0.00  0.00    -0.086 HD
ENDROOT
BRANCH  11  15
ATOM     15  C   UNL     1       5.819  -7.928   4.740  0.00  0.00    +0.037 A 
ATOM     16  C   UNL     1       6.074  -8.972   3.849  0.00  0.00    +0.014 A 
ATOM     17  C   UNL     1       6.774 -10.082   4.273  0.00  0.00    +0.021 A 
ATOM     18  C   UNL     1       7.225 -10.162   5.581  0.00  0.00    +0.041 A 
ATOM     19  C   UNL     1       6.975  -9.129   6.470  0.00  0.00    +0.021 A 
ATOM     20  C   UNL     1       6.280  -8.012   6.056  0.00  0.00    +0.014 A 
ATOM     21 CL   UNL     1       8.105 -11.562   6.108  0.00  0.00    -0.084 Cl
ENDBRANCH  11  15
BRANCH   1  23
ATOM     22  N   UNL     1       0.466  -5.635   0.490  0.00  0.00    -0.312 N 
ATOM     23  C   UNL     1       1.776  -5.769   0.774  0.00  0.00    +0.218 C 
ATOM     24  O   UNL     1       2.610  -5.466  -0.054  0.00  0.00    -0.275 OA
ATOM     25  H   UNL     1      -0.201  -5.877   1.152  0.00  0.00    +0.149 HD
BRANCH  22  26
ATOM     26  C   UNL     1       0.048  -5.123  -0.817  0.00  0.00    +0.145 C 
BRANCH  26  27
ATOM     27  C   UNL     1      -1.480  -5.070  -0.879  0.00  0.00    +0.248 C 
BRANCH  27  28
ATOM     28  O   UNL     1      -1.963  -4.118   0.071  0.00  0.00    -0.489 OA
BRANCH  28  33
ATOM     29  C   UNL     1      -5.517  -4.506  -0.606  0.00  0.00    +0.004 A 
ATOM     30  C   UNL     1      -6.051  -3.601   0.293  0.00  0.00    +0.002 A 
ATOM     31  C   UNL     1      -5.217  -2.868   1.117  0.00  0.00    +0.023 A 
ATOM     32  C   UNL     1      -3.847  -3.039   1.046  0.00  0.00    +0.083 A 
ATOM     33  C   UNL     1      -3.309  -3.948   0.144  0.00  0.00    +0.139 A 
ATOM     34  C   UNL     1      -4.149  -4.681  -0.682  0.00  0.00    +0.047 A 
ATOM     35 CL   UNL     1      -2.801  -2.119   2.080  0.00  0.00    -0.080 Cl
ENDBRANCH  28  33
ENDBRANCH  27  28
ENDBRANCH  26  27
ENDBRANCH  22  26
ENDBRANCH   1  23
TORSDOF 6
