REMARK  Name = ZINC12750901
REMARK  8 active torsions:
REMARK  status: ('A' for Active; 'I' for Inactive)
REMARK    1  A    between atoms: C_1  and  C_2
REMARK    2  A    between atoms: C_2  and  C_4
REMARK    3  A    between atoms: C_2  and  S_17
REMARK    4  A    between atoms: N_6  and  C_7
REMARK    5  A    between atoms: C_9  and  N_14
REMARK    6  A    between atoms: S_17  and  C_18
REMARK    7  A    between atoms: N_23  and  C_24
REMARK    8  A    between atoms: C_24  and  C_25
REMARK                            x       y       z     vdW  Elec       q    Type
REMARK                         _______ _______ _______ _____ _____    ______ ____
ROOT
ATOM      1  C   UNL     1      -0.016   0.013   0.004  0.00  0.00    +0.029 C 
ATOM      2  C   UNL     1      -0.024   1.543   0.013  0.00  0.00    +0.136 C 
ENDROOT
BRANCH   2   3
ATOM      3  C   UNL     1       1.393   2.054   0.001  0.00  0.00    +0.230 C 
ATOM      4  O   UNL     1       1.891   2.437  -1.037  0.00  0.00    -0.274 OA
ATOM      5  N   UNL     1       2.108   2.084   1.143  0.00  0.00    -0.283 N 
ATOM      6  H   UNL     1       1.691   1.839   1.983  0.00  0.00    +0.155 HD
BRANCH   5   7
ATOM      7  C   UNL     1       3.454   2.470   1.116  0.00  0.00    +0.054 A 
ATOM      8  C   UNL     1       3.881   3.443   0.223  0.00  0.00    +0.057 A 
ATOM      9  C   UNL     1       5.209   3.824   0.201  0.00  0.00    +0.128 A 
ATOM     10  C   UNL     1       6.114   3.230   1.062  0.00  0.00    +0.034 A 
ATOM     11  C   UNL     1       5.694   2.257   1.949  0.00  0.00    +0.024 A 
ATOM     12  C   UNL     1       4.366   1.875   1.979  0.00  0.00    +0.062 A 
ATOM     13 CL   UNL     1       3.838   0.652   3.093  0.00  0.00    -0.082 Cl
BRANCH   9  14
ATOM     14  N   UNL     1       5.664   4.865  -0.748  0.00  0.00    +0.056 N 
ATOM     15  O   UNL     1       6.835   5.198  -0.770  0.00  0.00    -0.126 OA
ATOM     16  O   UNL     1       4.867   5.388  -1.506  0.00  0.00    -0.126 OA
ENDBRANCH   9  14
ENDBRANCH   5   7
ENDBRANCH   2   3
BRANCH   2  17
ATOM     17  S   UNL     1      -0.899   2.152  -1.455  0.00  0.00    -0.084 S 
BRANCH  17  18
ATOM     18  C   UNL     1      -2.557   1.601  -1.222  0.00  0.00    +0.161 A 
ATOM     19  N   UNL     1      -3.076   0.909  -0.227  0.00  0.00    -0.133 NA
ATOM     20  N   UNL     1      -4.412   0.582  -0.244  0.00  0.00    -0.125 NA
ATOM     21  C   UNL     1      -5.168   0.962  -1.256  0.00  0.00    +0.182 A 
ATOM     22  S   UNL     1      -3.986   1.840  -2.268  0.00  0.00    -0.025 S 
ATOM     23  N   UNL     1      -6.523   0.744  -1.473  0.00  0.00    -0.320 N 
ATOM     24  H   UNL     1      -6.947   1.089  -2.274  0.00  0.00    +0.148 HD
BRANCH  23  25
ATOM     25  C   UNL     1      -7.310  -0.009  -0.493  0.00  0.00    +0.135 C 
BRANCH  25  26
ATOM     26  C   UNL     1      -8.761  -0.105  -0.970  0.00  0.00    +0.135 C 
ATOM     27  C   UNL     1      -9.600  -0.888   0.058  0.00  0.00    +0.035 C 
ATOM     28  C   UNL     1     -10.714   0.103   0.473  0.00  0.00    +0.031 C 
ATOM     29  C   UNL     1     -10.725   1.096  -0.717  0.00  0.00    +0.160 C 
ATOM     30  O   UNL     1      -9.329   1.212  -1.075  0.00  0.00    -0.375 OA
ENDBRANCH  25  26
ENDBRANCH  23  25
ENDBRANCH  17  18
ENDBRANCH   2  17
TORSDOF 7
