REMARK  Name = ZINC11421253
REMARK  10 active torsions:
REMARK  status: ('A' for Active; 'I' for Inactive)
REMARK    1  A    between atoms: C_1  and  N_2
REMARK    2  A    between atoms: C_6  and  C_8
REMARK    3  A    between atoms: C_8  and  O_9
REMARK    4  A    between atoms: O_9  and  C_10
REMARK    5  A    between atoms: C_10  and  C_12
REMARK    6  A    between atoms: C_16  and  S_18
REMARK    7  A    between atoms: S_18  and  N_21
REMARK    8  A    between atoms: N_21  and  C_22
REMARK    9  A    between atoms: N_21  and  C_25
REMARK   10  A    between atoms: C_22  and  C_23
REMARK                            x       y       z     vdW  Elec       q    Type
REMARK                         _______ _______ _______ _____ _____    ______ ____
ROOT
ATOM      1  C   UNL     1      -2.449   2.578   4.707  0.00  0.00    +0.061 A 
ATOM      2  C   UNL     1      -2.646   3.642   3.824  0.00  0.00    +0.016 A 
ATOM      3  C   UNL     1      -2.054   3.620   2.579  0.00  0.00    +0.023 A 
ATOM      4  C   UNL     1      -1.260   2.548   2.206  0.00  0.00    +0.068 A 
ATOM      5  C   UNL     1      -1.065   1.487   3.075  0.00  0.00    +0.128 A 
ATOM      6  C   UNL     1      -1.652   1.498   4.323  0.00  0.00    +0.045 A 
ATOM      7 CL   UNL     1      -0.513   2.530   0.639  0.00  0.00    -0.082 Cl
ENDROOT
BRANCH   5   8
ATOM      8  S   UNL     1      -0.058   0.126   2.588  0.00  0.00    +0.076 S 
ATOM      9  O   UNL     1      -0.023  -0.768   3.693  0.00  0.00    -0.150 OA
ATOM     10  O   UNL     1       1.120   0.676   2.015  0.00  0.00    -0.150 OA
BRANCH   8  11
ATOM     11  N   UNL     1      -0.855  -0.661   1.368  0.00  0.00    -0.199 N 
BRANCH  11  12
ATOM     12  C   UNL     1      -0.540  -0.383   0.035  0.00  0.00    +0.052 A 
ATOM     13  C   UNL     1       0.737  -0.640  -0.446  0.00  0.00    +0.027 A 
ATOM     14  C   UNL     1       1.045  -0.370  -1.765  0.00  0.00    +0.040 A 
ATOM     15  C   UNL     1       0.084   0.167  -2.605  0.00  0.00    +0.124 A 
ATOM     16  C   UNL     1      -1.189   0.429  -2.127  0.00  0.00    +0.040 A 
ATOM     17  C   UNL     1      -1.502   0.155  -0.810  0.00  0.00    +0.027 A 
ATOM     18  F   UNL     1       0.389   0.435  -3.894  0.00  0.00    -0.205 F 
ENDBRANCH  11  12
BRANCH  11  19
ATOM     19  C   UNL     1      -1.890  -1.647   1.686  0.00  0.00    +0.158 C 
BRANCH  19  20
ATOM     20  C   UNL     1      -1.391  -3.027   1.343  0.00  0.00    -0.014 C 
ATOM     21  C   UNL     1      -1.405  -3.973   2.250  0.00  0.00    +0.005 C 
ENDBRANCH  19  20
ENDBRANCH  11  19
ENDBRANCH   8  11
ENDBRANCH   5   8
BRANCH   1  22
ATOM     22  C   UNL     1      -3.080   2.596   6.042  0.00  0.00    +0.340 C 
ATOM     23  O   UNL     1      -2.906   1.670   6.809  0.00  0.00    -0.245 OA
BRANCH  22  24
ATOM     24  O   UNL     1      -3.848   3.639   6.410  0.00  0.00    -0.452 OA
BRANCH  24  25
ATOM     25  C   UNL     1      -4.436   3.590   7.737  0.00  0.00    +0.328 C 
BRANCH  25  31
ATOM     26  C   UNL     1      -8.073   7.498  10.748  0.00  0.00    +0.129 C 
ATOM     27  N   UNL     1      -7.277   6.290  10.521  0.00  0.00    -0.302 N 
ATOM     28  C   UNL     1      -6.633   6.117   9.350  0.00  0.00    +0.306 C 
ATOM     29  O   UNL     1      -6.714   6.963   8.482  0.00  0.00    -0.252 OA
ATOM     30  N   UNL     1      -5.900   5.005   9.142  0.00  0.00    -0.237 N 
ATOM     31  C   UNL     1      -5.256   4.832   7.970  0.00  0.00    +0.258 C 
ATOM     32  O   UNL     1      -5.337   5.677   7.104  0.00  0.00    -0.272 OA
ATOM     33  H   UNL     1      -7.212   5.614  11.214  0.00  0.00    +0.150 HD
ATOM     34  H   UNL     1      -5.835   4.330   9.835  0.00  0.00    +0.159 HD
ENDBRANCH  25  31
ENDBRANCH  24  25
ENDBRANCH  22  24
ENDBRANCH   1  22
TORSDOF 9
