REMARK  Name = ZINC54044786
REMARK  6 active torsions:
REMARK  status: ('A' for Active; 'I' for Inactive)
REMARK    1  A    between atoms: C_1  and  C_2
REMARK    2  A    between atoms: C_5  and  N_8
REMARK    3  A    between atoms: N_13  and  C_14
REMARK    4  A    between atoms: C_14  and  C_16
REMARK    5  A    between atoms: C_14  and  C_22
REMARK    6  A    between atoms: N_26  and  C_27
REMARK                            x       y       z     vdW  Elec       q    Type
REMARK                         _______ _______ _______ _____ _____    ______ ____
ROOT
ATOM      1  N   UNL     1       0.059  -4.173  -0.021  0.00  0.00    -0.181 N 
ATOM      2  C   UNL     1       0.688  -4.993   0.857  0.00  0.00    +0.240 A 
ATOM      3  N   UNL     1       0.441  -6.227   0.476  0.00  0.00    -0.092 NA
ATOM      4  N   UNL     1      -0.296  -6.235  -0.576  0.00  0.00    -0.021 NA
ATOM      5  N   UNL     1      -0.576  -5.030  -0.937  0.00  0.00    -0.038 NA
ATOM      6  N   UNL     1       1.446  -4.605   1.947  0.00  0.00    -0.298 N 
ATOM      7  H   UNL     1       1.567  -3.662   2.142  0.00  0.00    +0.150 HD
ENDROOT
BRANCH   1  12
ATOM      8  C   UNL     1      -0.018   1.503   0.010  0.00  0.00    +0.044 C 
ATOM      9  C   UNL     1       0.002  -0.004   0.002  0.00  0.00    -0.050 A 
ATOM     10  C   UNL     1       0.006  -0.688  -1.200  0.00  0.00    +0.005 A 
ATOM     11  C   UNL     1       0.025  -2.068  -1.211  0.00  0.00    +0.028 A 
ATOM     12  C   UNL     1       0.040  -2.771  -0.013  0.00  0.00    +0.071 A 
ATOM     13  C   UNL     1       0.037  -2.082   1.192  0.00  0.00    +0.028 A 
ATOM     14  C   UNL     1       0.023  -0.700   1.196  0.00  0.00    +0.005 A 
ENDBRANCH   1  12
BRANCH   6  15
ATOM     15  C   UNL     1       2.065  -5.617   2.807  0.00  0.00    +0.168 C 
BRANCH  15  16
ATOM     16  C   UNL     1       1.070  -6.072   3.843  0.00  0.00    +0.112 A 
ATOM     17  N   UNL     1       0.164  -5.322   4.409  0.00  0.00    -0.348 N 
ATOM     18  C   UNL     1      -0.541  -6.061   5.279  0.00  0.00    +0.102 A 
ATOM     19  C   UNL     1      -0.054  -7.316   5.250  0.00  0.00    +0.104 A 
ATOM     20  N   UNL     1       0.965  -7.325   4.336  0.00  0.00    -0.337 N 
ATOM     21  C   UNL     1       1.788  -8.478   3.963  0.00  0.00    +0.150 C 
ATOM     22  H   UNL     1       0.024  -4.380   4.230  0.00  0.00    +0.167 HD
ENDBRANCH  15  16
BRANCH  15  23
ATOM     23  C   UNL     1       3.269  -5.024   3.492  0.00  0.00    -0.020 A 
ATOM     24  C   UNL     1       3.223  -3.730   3.974  0.00  0.00    +0.006 A 
ATOM     25  C   UNL     1       4.328  -3.187   4.603  0.00  0.00    +0.000 A 
ATOM     26  C   UNL     1       5.479  -3.938   4.750  0.00  0.00    +0.000 A 
ATOM     27  C   UNL     1       5.524  -5.234   4.269  0.00  0.00    +0.000 A 
ATOM     28  C   UNL     1       4.418  -5.778   3.644  0.00  0.00    +0.006 A 
ENDBRANCH  15  23
ENDBRANCH   6  15
TORSDOF 4
