REMARK  Name = ZINC09399039
REMARK  12 active torsions:
REMARK  status: ('A' for Active; 'I' for Inactive)
REMARK    1  A    between atoms: C_1  and  C_2
REMARK    2  A    between atoms: C_2  and  N_3
REMARK    3  A    between atoms: C_4  and  C_28
REMARK    4  A    between atoms: C_7  and  S_8
REMARK    5  A    between atoms: S_8  and  C_9
REMARK    6  A    between atoms: C_9  and  C_10
REMARK    7  A    between atoms: C_10  and  O_12
REMARK    8  A    between atoms: O_12  and  C_13
REMARK    9  A    between atoms: C_13  and  C_14
REMARK   10  A    between atoms: N_19  and  C_20
REMARK   11  A    between atoms: C_23  and  C_27
REMARK   12  A    between atoms: C_25  and  C_26
REMARK                            x       y       z     vdW  Elec       q    Type
REMARK                         _______ _______ _______ _____ _____    ______ ____
ROOT
ATOM      1  O   UNL     1       3.349  11.974  -0.011  0.00  0.00    -0.455 OA
ENDROOT
BRANCH   1   2
ATOM      2  C   UNL     1       3.719  10.704  -0.241  0.00  0.00    +0.318 C 
ATOM      3  O   UNL     1       4.854  10.456  -0.573  0.00  0.00    -0.250 OA
BRANCH   2   4
ATOM      4  C   UNL     1       2.719   9.588  -0.085  0.00  0.00    +0.197 C 
BRANCH   4   5
ATOM      5  S   UNL     1       3.515   8.007  -0.462  0.00  0.00    -0.075 S 
BRANCH   5  10
ATOM      6  N   UNL     1       2.176   5.552  -0.346  0.00  0.00    -0.302 N 
ATOM      7  C   UNL     1       0.898   5.132  -0.051  0.00  0.00    +0.171 A 
ATOM      8  N   UNL     1       0.200   6.205   0.247  0.00  0.00    -0.128 NA
ATOM      9  N   UNL     1       0.941   7.251   0.155  0.00  0.00    -0.122 NA
ATOM     10  C   UNL     1       2.158   6.912  -0.208  0.00  0.00    +0.192 A 
BRANCH   7  11
ATOM     11  C   UNL     1       0.409   3.744  -0.061  0.00  0.00    +0.056 A 
ATOM     12  C   UNL     1      -0.883   3.283  -0.046  0.00  0.00    +0.019 A 
ATOM     13  C   UNL     1      -1.100   1.923  -0.067  0.00  0.00    +0.008 A 
ATOM     14  C   UNL     1      -0.033   1.083  -0.088  0.00  0.00    +0.046 A 
ATOM     15  S   UNL     1       1.341   2.222  -0.095  0.00  0.00    -0.094 S 
ENDBRANCH   7  11
BRANCH   6  17
ATOM     16  C   UNL     1       3.345   4.566  -2.254  0.00  0.00    +0.027 C 
ATOM     17  C   UNL     1       3.316   4.716  -0.732  0.00  0.00    +0.122 C 
ENDBRANCH   6  17
ENDBRANCH   5  10
ENDBRANCH   4   5
ENDBRANCH   2   4
ENDBRANCH   1   2
BRANCH   1  18
ATOM     18  C   UNL     1       4.365  12.997  -0.180  0.00  0.00    +0.328 C 
BRANCH  18  19
ATOM     19  C   UNL     1       3.771  14.349   0.119  0.00  0.00    +0.258 C 
ATOM     20  O   UNL     1       2.606  14.441   0.443  0.00  0.00    -0.272 OA
ATOM     21  N   UNL     1       4.534  15.456   0.026  0.00  0.00    -0.237 N 
ATOM     22  C   UNL     1       4.003  16.666   0.294  0.00  0.00    +0.310 C 
ATOM     23  O   UNL     1       2.835  16.758   0.619  0.00  0.00    -0.252 OA
ATOM     24  N   UNL     1       4.766  17.773   0.201  0.00  0.00    -0.269 N 
ATOM     25  H   UNL     1       5.466  15.383  -0.233  0.00  0.00    +0.159 HD
ATOM     26  H   UNL     1       5.716  17.693   0.022  0.00  0.00    +0.156 HD
BRANCH  24  27
ATOM     27  C   UNL     1       4.188  19.037   0.363  0.00  0.00    +0.038 A 
ATOM     28  C   UNL     1       2.835  19.221   0.108  0.00  0.00    +0.024 A 
ATOM     29  C   UNL     1       2.268  20.470   0.269  0.00  0.00    +0.005 A 
ATOM     30  C   UNL     1       3.045  21.536   0.684  0.00  0.00    -0.050 A 
ATOM     31  C   UNL     1       4.392  21.355   0.939  0.00  0.00    +0.008 A 
ATOM     32  C   UNL     1       4.964  20.108   0.785  0.00  0.00    -0.029 A 
ATOM     33  C   UNL     1       6.431  19.910   1.070  0.00  0.00    +0.045 C 
ATOM     34  C   UNL     1       2.422  22.897   0.860  0.00  0.00    +0.044 C 
ENDBRANCH  24  27
ENDBRANCH  18  19
ENDBRANCH   1  18
TORSDOF 9
