REMARK  Name = ZINC39426762
REMARK  8 active torsions:
REMARK  status: ('A' for Active; 'I' for Inactive)
REMARK    1  A    between atoms: C_1  and  C_2
REMARK    2  A    between atoms: C_2  and  C_4
REMARK    3  A    between atoms: C_2  and  S_16
REMARK    4  A    between atoms: N_6  and  C_7
REMARK    5  A    between atoms: C_12  and  C_13
REMARK    6  A    between atoms: S_16  and  C_17
REMARK    7  A    between atoms: C_20  and  C_21
REMARK    8  A    between atoms: N_33  and  C_34
REMARK                            x       y       z     vdW  Elec       q    Type
REMARK                         _______ _______ _______ _____ _____    ______ ____
ROOT
ATOM      1  C   UNL     1       3.163  -0.056  -1.178  0.00  0.00    +0.169 C 
ATOM      2  N   UNL     1       3.485   0.866  -0.308  0.00  0.00    -0.220 NA
ATOM      3  C   UNL     1       4.841   1.021  -0.298  0.00  0.00    +0.129 C 
ATOM      4  C   UNL     1       5.571   1.892   0.481  0.00  0.00    +0.041 C 
ATOM      5  C   UNL     1       5.366   0.064  -1.290  0.00  0.00    +0.275 C 
ATOM      6  O   UNL     1       6.531  -0.120  -1.592  0.00  0.00    -0.268 OA
ATOM      7  N   UNL     1       4.282  -0.569  -1.789  0.00  0.00    -0.214 N 
ENDROOT
BRANCH   4   8
ATOM      8  C   UNL     1       7.005   2.058   0.246  0.00  0.00    -0.015 A 
ATOM      9  C   UNL     1       7.509   2.144  -1.052  0.00  0.00    +0.008 A 
ATOM     10  C   UNL     1       8.869   2.301  -1.269  0.00  0.00    +0.001 A 
ATOM     11  C   UNL     1       9.758   2.377  -0.239  0.00  0.00    +0.008 A 
ATOM     12  C   UNL     1       9.323   2.297   1.094  0.00  0.00    -0.017 A 
ATOM     13  C   UNL     1       7.942   2.142   1.368  0.00  0.00    -0.011 A 
ATOM     14  C   UNL     1       7.503   2.068   2.694  0.00  0.00    +0.009 A 
ATOM     15  C   UNL     1       8.410   2.150   3.709  0.00  0.00    +0.001 A 
ATOM     16  C   UNL     1       9.768   2.308   3.445  0.00  0.00    +0.001 A 
ATOM     17  C   UNL     1      10.230   2.374   2.165  0.00  0.00    +0.008 A 
ENDBRANCH   4   8
BRANCH   7  18
ATOM     18  C   UNL     1       4.295  -1.574  -2.766  0.00  0.00    +0.044 A 
ATOM     19  C   UNL     1       3.733  -1.339  -4.014  0.00  0.00    +0.024 A 
ATOM     20  C   UNL     1       3.748  -2.331  -4.974  0.00  0.00    +0.002 A 
ATOM     21  C   UNL     1       4.323  -3.558  -4.695  0.00  0.00    +0.000 A 
ATOM     22  C   UNL     1       4.884  -3.794  -3.454  0.00  0.00    +0.002 A 
ATOM     23  C   UNL     1       4.876  -2.804  -2.490  0.00  0.00    +0.024 A 
ENDBRANCH   7  18
BRANCH   1  24
ATOM     24  S   UNL     1       1.514  -0.577  -1.516  0.00  0.00    -0.077 S 
BRANCH  24  26
ATOM     25  C   UNL     1       0.618   1.916  -0.833  0.00  0.00    +0.029 C 
ATOM     26  C   UNL     1       0.496   0.448  -0.419  0.00  0.00    +0.137 C 
BRANCH  26  27
ATOM     27  C   UNL     1      -0.944   0.015  -0.520  0.00  0.00    +0.230 C 
ATOM     28  O   UNL     1      -1.321  -0.616  -1.484  0.00  0.00    -0.274 OA
ATOM     29  N   UNL     1      -1.812   0.329   0.462  0.00  0.00    -0.284 N 
ATOM     30  H   UNL     1      -1.495   0.763   1.270  0.00  0.00    +0.155 HD
BRANCH  29  31
ATOM     31  C   UNL     1      -3.165   0.032   0.316  0.00  0.00    +0.046 A 
ATOM     32  C   UNL     1      -3.727  -0.061  -0.950  0.00  0.00    +0.024 A 
ATOM     33  C   UNL     1      -5.068  -0.355  -1.092  0.00  0.00    +0.002 A 
ATOM     34  C   UNL     1      -5.863  -0.560   0.024  0.00  0.00    +0.001 A 
ATOM     35  C   UNL     1      -5.323  -0.473   1.288  0.00  0.00    +0.015 A 
ATOM     36  C   UNL     1      -3.966  -0.181   1.448  0.00  0.00    +0.058 A 
BRANCH  36  37
ATOM     37  C   UNL     1      -3.380  -0.092   2.799  0.00  0.00    +0.243 C 
ATOM     38  O   UNL     1      -2.222   0.251   2.938  0.00  0.00    -0.270 OA
ATOM     39  N   UNL     1      -4.128  -0.391   3.879  0.00  0.00    -0.325 N 
ATOM     40  H   UNL     1      -5.052  -0.664   3.768  0.00  0.00    +0.145 HD
ATOM     41  H   UNL     1      -3.743  -0.332   4.767  0.00  0.00    +0.145 HD
ENDBRANCH  36  37
ENDBRANCH  29  31
ENDBRANCH  26  27
ENDBRANCH  24  26
ENDBRANCH   1  24
TORSDOF 7
