REMARK  Name = ZINC04235485
REMARK  9 active torsions:
REMARK  status: ('A' for Active; 'I' for Inactive)
REMARK    1  A    between atoms: C_4  and  O_7
REMARK    2  A    between atoms: O_7  and  C_8
REMARK    3  A    between atoms: C_8  and  C_9
REMARK    4  A    between atoms: N_11  and  C_12
REMARK    5  A    between atoms: C_22  and  O_24
REMARK    6  A    between atoms: O_24  and  C_25
REMARK    7  A    between atoms: N_27  and  C_28
REMARK    8  A    between atoms: C_31  and  O_34
REMARK    9  A    between atoms: O_34  and  C_35
REMARK                            x       y       z     vdW  Elec       q    Type
REMARK                         _______ _______ _______ _____ _____    ______ ____
ROOT
ATOM      1  C   UNL     1       4.093  -5.285   2.869  0.00  0.00    +0.130 C 
ATOM      2  C   UNL     1       5.342  -5.311   3.769  0.00  0.00    +0.185 C 
ATOM      3  O   UNL     1       5.921  -6.621   3.660  0.00  0.00    -0.368 OA
ATOM      4  C   UNL     1       4.868  -7.535   3.304  0.00  0.00    +0.192 C 
ATOM      5  C   UNL     1       3.984  -6.719   2.305  0.00  0.00    +0.173 C 
ATOM      6  O   UNL     1       4.711  -6.786   1.065  0.00  0.00    -0.368 OA
ATOM      7  C   UNL     1       5.274  -8.102   0.961  0.00  0.00    +0.207 C 
ATOM      8  C   UNL     1       5.459  -8.653   2.416  0.00  0.00    +0.235 C 
ENDROOT
BRANCH   1  11
ATOM      9  C   UNL     1       2.555  -3.665   3.842  0.00  0.00    +0.251 C 
ATOM     10  O   UNL     1       3.226  -2.779   3.356  0.00  0.00    -0.272 OA
ATOM     11  N   UNL     1       2.903  -4.954   3.657  0.00  0.00    -0.305 N 
ATOM     12  H   UNL     1       2.366  -5.662   4.045  0.00  0.00    +0.149 HD
BRANCH   9  13
ATOM     13  C   UNL     1       1.331  -3.324   4.652  0.00  0.00    +0.324 C 
BRANCH  13  14
ATOM     14  O   UNL     1       1.173  -1.905   4.703  0.00  0.00    -0.483 OA
BRANCH  14  18
ATOM     15  C   UNL     1      -2.058  -0.455   6.819  0.00  0.00    +0.000 A 
ATOM     16  C   UNL     1      -1.187   0.424   6.201  0.00  0.00    +0.004 A 
ATOM     17  C   UNL     1      -0.105  -0.059   5.492  0.00  0.00    +0.045 A 
ATOM     18  C   UNL     1       0.109  -1.427   5.401  0.00  0.00    +0.121 A 
ATOM     19  C   UNL     1      -0.766  -2.306   6.023  0.00  0.00    +0.045 A 
ATOM     20  C   UNL     1      -1.847  -1.818   6.730  0.00  0.00    +0.004 A 
ENDBRANCH  14  18
ENDBRANCH  13  14
ENDBRANCH   9  13
ENDBRANCH   1  11
BRANCH   8  21
ATOM     21  O   UNL     1       6.840  -8.854   2.721  0.00  0.00    -0.442 OA
BRANCH  21  22
ATOM     22  C   UNL     1       7.331 -10.095   2.545  0.00  0.00    +0.405 C 
ATOM     23  O   UNL     1       6.606 -10.984   2.144  0.00  0.00    -0.226 OA
ATOM     24  N   UNL     1       8.627 -10.352   2.814  0.00  0.00    -0.251 N 
ATOM     25  H   UNL     1       9.234  -9.623   3.016  0.00  0.00    +0.158 HD
BRANCH  24  26
ATOM     26  C   UNL     1       9.096 -11.672   2.803  0.00  0.00    +0.037 A 
ATOM     27  C   UNL     1      10.172 -12.034   3.603  0.00  0.00    +0.027 A 
ATOM     28  C   UNL     1      10.634 -13.335   3.591  0.00  0.00    +0.048 A 
ATOM     29  C   UNL     1      10.023 -14.281   2.781  0.00  0.00    +0.129 A 
ATOM     30  C   UNL     1       8.948 -13.921   1.982  0.00  0.00    +0.048 A 
ATOM     31  C   UNL     1       8.482 -12.621   1.997  0.00  0.00    +0.027 A 
BRANCH  29  32
ATOM     32  O   UNL     1      10.479 -15.562   2.770  0.00  0.00    -0.456 OA
BRANCH  32  33
ATOM     33  C   UNL     1       9.980 -16.408   1.831  0.00  0.00    +0.128 A 
ATOM     34  C   UNL     1      10.444 -16.348   0.525  0.00  0.00    +0.046 A 
ATOM     35  C   UNL     1       9.936 -17.210  -0.428  0.00  0.00    +0.004 A 
ATOM     36  C   UNL     1       8.966 -18.132  -0.080  0.00  0.00    +0.000 A 
ATOM     37  C   UNL     1       8.502 -18.194   1.221  0.00  0.00    +0.004 A 
ATOM     38  C   UNL     1       9.011 -17.338   2.179  0.00  0.00    +0.046 A 
ENDBRANCH  32  33
ENDBRANCH  29  32
ENDBRANCH  24  26
ENDBRANCH  21  22
ENDBRANCH   8  21
TORSDOF 9
