REMARK  Name = ZINC19351597
REMARK  14 active torsions:
REMARK  status: ('A' for Active; 'I' for Inactive)
REMARK    1  A    between atoms: C_1  and  C_2
REMARK    2  A    between atoms: C_5  and  C_8
REMARK    3  A    between atoms: N_10  and  C_11
REMARK    4  A    between atoms: C_11  and  C_13
REMARK    5  A    between atoms: C_11  and  C_16
REMARK    6  A    between atoms: C_13  and  C_14
REMARK    7  A    between atoms: C_13  and  C_15
REMARK    8  A    between atoms: C_16  and  O_18
REMARK    9  A    between atoms: O_18  and  C_19
REMARK   10  A    between atoms: C_19  and  C_21
REMARK   11  A    between atoms: C_19  and  C_22
REMARK   12  A    between atoms: N_24  and  C_25
REMARK   13  A    between atoms: C_25  and  C_26
REMARK   14  A    between atoms: N_28  and  C_29
REMARK                            x       y       z     vdW  Elec       q    Type
REMARK                         _______ _______ _______ _____ _____    ______ ____
ROOT
ATOM      1  C   UNL     1       0.022   5.280   1.139  0.00  0.00    +0.258 C 
ATOM      2  C   UNL     1      -0.100   5.721  -0.321  0.00  0.00    +0.062 C 
ENDROOT
BRANCH   1   3
ATOM      3  C   UNL     1       1.199   5.972   1.776  0.00  0.00    +0.254 C 
ATOM      4  O   UNL     1       2.153   5.323   2.151  0.00  0.00    -0.272 OA
ATOM      5  N   UNL     1       1.193   7.311   1.929  0.00  0.00    -0.304 N 
ATOM      6  H   UNL     1       0.328   7.899   1.589  0.00  0.00    +0.149 HD
BRANCH   5   7
ATOM      7  C   UNL     1       2.338   7.983   2.549  0.00  0.00    +0.200 C 
BRANCH   7   8
ATOM      8  C   UNL     1       2.081   9.467   2.600  0.00  0.00    +0.234 C 
ATOM      9  O   UNL     1       1.044   9.919   2.163  0.00  0.00    -0.274 OA
ATOM     10  N   UNL     1       3.004  10.292   3.133  0.00  0.00    -0.282 N 
ATOM     11  H   UNL     1       3.911   9.877   3.595  0.00  0.00    +0.155 HD
BRANCH  10  12
ATOM     12  C   UNL     1       2.808  11.680   3.097  0.00  0.00    +0.072 A 
ATOM     13  C   UNL     1       1.528  12.204   3.216  0.00  0.00    +0.029 A 
ATOM     14  C   UNL     1       1.335  13.571   3.185  0.00  0.00    +0.043 A 
ATOM     15  C   UNL     1       2.416  14.421   3.026  0.00  0.00    +0.161 A 
ATOM     16  C   UNL     1       3.696  13.902   2.901  0.00  0.00    +0.195 A 
ATOM     17  C   UNL     1       3.893  12.532   2.937  0.00  0.00    +0.182 A 
ATOM     18  F   UNL     1       5.140  12.025   2.816  0.00  0.00    -0.200 F 
ATOM     19  F   UNL     1       4.749  14.733   2.745  0.00  0.00    -0.199 F 
ATOM     20  F   UNL     1       2.224  15.758   2.991  0.00  0.00    -0.202 F 
ENDBRANCH  10  12
ENDBRANCH   7   8
ENDBRANCH   5   7
ENDBRANCH   1   3
BRANCH   1  21
ATOM     21  O   UNL     1       0.216   3.843   1.196  0.00  0.00    -0.451 OA
BRANCH  21  22
ATOM     22  C   UNL     1      -0.887   3.081   1.270  0.00  0.00    +0.329 C 
ATOM     23  O   UNL     1      -1.979   3.599   1.288  0.00  0.00    -0.249 OA
BRANCH  22  24
ATOM     24  C   UNL     1      -0.764   1.581   1.333  0.00  0.00    +0.185 C 
BRANCH  24  27
ATOM     25  C   UNL     1      -2.263  -0.234   1.963  0.00  0.00    +0.245 C 
ATOM     26  O   UNL     1      -1.302  -0.837   2.400  0.00  0.00    -0.270 OA
ATOM     27  N   UNL     1      -2.100   0.984   1.409  0.00  0.00    -0.298 N 
ATOM     28  H   UNL     1      -2.969   1.529   1.014  0.00  0.00    +0.150 HD
BRANCH  25  33
ATOM     29  C   UNL     1      -7.510  -2.578   2.264  0.00  0.00    +0.044 C 
ATOM     30  C   UNL     1      -6.136  -1.964   2.185  0.00  0.00    -0.050 A 
ATOM     31  C   UNL     1      -5.044  -2.653   2.682  0.00  0.00    +0.004 A 
ATOM     32  C   UNL     1      -3.784  -2.097   2.613  0.00  0.00    +0.013 A 
ATOM     33  C   UNL     1      -3.611  -0.836   2.040  0.00  0.00    +0.037 A 
ATOM     34  C   UNL     1      -4.717  -0.144   1.544  0.00  0.00    +0.013 A 
ATOM     35  C   UNL     1      -5.972  -0.714   1.615  0.00  0.00    +0.004 A 
ENDBRANCH  25  33
ENDBRANCH  24  27
BRANCH  24  36
ATOM     36  C   UNL     1      -0.050   1.075   0.077  0.00  0.00    +0.014 C 
ATOM     37  C   UNL     1       1.387   1.599   0.062  0.00  0.00    +0.009 C 
ATOM     38  C   UNL     1      -0.789   1.576  -1.166  0.00  0.00    +0.009 C 
ENDBRANCH  24  36
ENDBRANCH  22  24
ENDBRANCH  21  22
ENDBRANCH   1  21
TORSDOF 10
