REMARK  Name = ZINC19012680
REMARK  13 active torsions:
REMARK  status: ('A' for Active; 'I' for Inactive)
REMARK    1  A    between atoms: C_1  and  C_2
REMARK    2  A    between atoms: C_2  and  O_3
REMARK    3  A    between atoms: O_3  and  C_4
REMARK    4  A    between atoms: C_4  and  C_6
REMARK    5  A    between atoms: C_7  and  C_19
REMARK    6  A    between atoms: C_12  and  C_14
REMARK    7  A    between atoms: C_19  and  S_20
REMARK    8  A    between atoms: S_20  and  C_21
REMARK    9  A    between atoms: C_24  and  C_26
REMARK   10  A    between atoms: C_26  and  O_27
REMARK   11  A    between atoms: O_27  and  C_28
REMARK   12  A    between atoms: C_30  and  C_35
REMARK   13  A    between atoms: C_33  and  C_34
REMARK                            x       y       z     vdW  Elec       q    Type
REMARK                         _______ _______ _______ _____ _____    ______ ____
ROOT
ATOM      1  C   UNL     1      -0.696   1.689   3.586  0.00  0.00    +0.082 C 
ATOM      2  C   UNL     1      -0.317   1.171   4.774  0.00  0.00    +0.034 C 
ATOM      3  N   UNL     1      -0.973   1.498   5.926  0.00  0.00    -0.272 N 
ATOM      4  C   UNL     1      -2.023   2.327   5.973  0.00  0.00    +0.304 C 
ATOM      5  O   UNL     1      -2.546   2.554   7.047  0.00  0.00    -0.252 OA
ATOM      6  N   UNL     1      -2.521   2.918   4.869  0.00  0.00    -0.285 N 
ATOM      7  C   UNL     1      -1.880   2.635   3.574  0.00  0.00    +0.179 C 
ATOM      8  H   UNL     1      -0.662   1.105   6.757  0.00  0.00    +0.156 HD
ATOM      9  H   UNL     1      -3.283   3.515   4.926  0.00  0.00    +0.151 HD
ENDROOT
BRANCH   7  10
ATOM     10  C   UNL     1      -1.423   3.945   2.985  0.00  0.00    +0.130 A 
ATOM     11  C   UNL     1      -1.626   4.352   1.720  0.00  0.00    +0.047 A 
ATOM     12  C   UNL     1      -1.034   5.630   1.601  0.00  0.00    +0.041 A 
ATOM     13  C   UNL     1      -0.505   5.928   2.801  0.00  0.00    +0.195 A 
ATOM     14  O   UNL     1      -0.749   4.905   3.638  0.00  0.00    -0.466 OA
ENDBRANCH   7  10
BRANCH   1  15
ATOM     15  C   UNL     1      -0.015   1.355   2.392  0.00  0.00    +0.339 C 
ATOM     16  O   UNL     1      -0.493   0.539   1.626  0.00  0.00    -0.245 OA
BRANCH  15  17
ATOM     17  O   UNL     1       1.165   1.942   2.101  0.00  0.00    -0.462 OA
BRANCH  17  19
ATOM     18  C   UNL     1       3.113   2.323   0.723  0.00  0.00    +0.048 C 
ATOM     19  C   UNL     1       1.798   1.558   0.879  0.00  0.00    +0.229 C 
ENDBRANCH  17  19
ENDBRANCH  15  17
ENDBRANCH   1  15
BRANCH   2  20
ATOM     20  C   UNL     1       0.852   0.222   4.830  0.00  0.00    +0.130 C 
BRANCH  20  21
ATOM     21  S   UNL     1       2.293   1.079   5.511  0.00  0.00    -0.060 S 
BRANCH  21  22
ATOM     22  C   UNL     1       3.476  -0.226   5.463  0.00  0.00    +0.278 A 
ATOM     23  N   UNL     1       3.269  -1.448   5.034  0.00  0.00    -0.101 NA
ATOM     24  N   UNL     1       4.355  -2.128   5.147  0.00  0.00    -0.108 NA
ATOM     25  C   UNL     1       5.290  -1.375   5.648  0.00  0.00    +0.255 A 
ATOM     26  O   UNL     1       4.762  -0.153   5.856  0.00  0.00    -0.412 OA
BRANCH  25  27
ATOM     27  C   UNL     1       6.709  -1.793   5.938  0.00  0.00    +0.326 C 
BRANCH  27  28
ATOM     28  O   UNL     1       7.521  -1.550   4.788  0.00  0.00    -0.482 OA
BRANCH  28  29
ATOM     29  C   UNL     1       8.838  -1.873   4.883  0.00  0.00    +0.124 A 
ATOM     30  C   UNL     1       9.339  -2.408   6.061  0.00  0.00    +0.049 A 
ATOM     31  C   UNL     1      10.676  -2.740   6.153  0.00  0.00    -0.047 A 
ATOM     32  C   UNL     1      11.518  -2.531   5.076  0.00  0.00    +0.004 A 
ATOM     33  C   UNL     1      11.022  -1.993   3.903  0.00  0.00    +0.007 A 
ATOM     34  C   UNL     1       9.684  -1.663   3.804  0.00  0.00    -0.009 A 
ATOM     35  C   UNL     1       9.145  -1.077   2.525  0.00  0.00    +0.047 C 
ATOM     36  C   UNL     1      11.220  -3.327   7.430  0.00  0.00    +0.044 C 
ENDBRANCH  28  29
ENDBRANCH  27  28
ENDBRANCH  25  27
ENDBRANCH  21  22
ENDBRANCH  20  21
ENDBRANCH   2  20
TORSDOF 10
