REMARK  Name = ZINC38925966
REMARK  6 active torsions:
REMARK  status: ('A' for Active; 'I' for Inactive)
REMARK    1  A    between atoms: C_1  and  C_2
REMARK    2  A    between atoms: C_2  and  C_22
REMARK    3  A    between atoms: N_3  and  N_4
REMARK    4  A    between atoms: C_5  and  C_7
REMARK    5  A    between atoms: C_10  and  C_12
REMARK    6  A    between atoms: C_25  and  N_28
REMARK                            x       y       z     vdW  Elec       q    Type
REMARK                         _______ _______ _______ _____ _____    ______ ____
ROOT
ATOM      1  N   UNL     1       0.024   0.035   2.340  0.00  0.00    -0.202 N 
ATOM      2  C   UNL     1       0.044  -0.645   3.503  0.00  0.00    +0.280 C 
ATOM      3  O   UNL     1       0.060  -1.863   3.497  0.00  0.00    -0.267 OA
ATOM      4  H   UNL     1       0.011   1.005   2.345  0.00  0.00    +0.178 HD
ENDROOT
BRANCH   2   5
ATOM      5  C   UNL     1       0.046   0.080   4.775  0.00  0.00    +0.132 C 
ATOM      6  N   UNL     1       0.024   1.376   4.953  0.00  0.00    -0.148 NA
ATOM      7  N   UNL     1       0.032   1.741   6.176  0.00  0.00    -0.153 NA
ATOM      8  C   UNL     1       0.060   0.745   7.034  0.00  0.00    +0.077 C 
ATOM      9  C   UNL     1       0.068  -0.509   6.176  0.00  0.00    +0.120 C 
BRANCH   8  10
ATOM     10  C   UNL     1       0.076   0.827   8.494  0.00  0.00    +0.006 A 
ATOM     11  C   UNL     1       0.113  -0.330   9.273  0.00  0.00    +0.010 A 
ATOM     12  C   UNL     1       0.127  -0.247  10.656  0.00  0.00    +0.001 A 
ATOM     13  C   UNL     1       0.107   0.951  11.306  0.00  0.00    +0.008 A 
ATOM     14  C   UNL     1       0.070   2.158  10.587  0.00  0.00    -0.017 A 
ATOM     15  C   UNL     1       0.060   2.126   9.171  0.00  0.00    -0.009 A 
ATOM     16  C   UNL     1       0.029   3.324   8.452  0.00  0.00    +0.009 A 
ATOM     17  C   UNL     1       0.015   4.513   9.122  0.00  0.00    +0.001 A 
ATOM     18  C   UNL     1       0.032   4.549  10.513  0.00  0.00    +0.001 A 
ATOM     19  C   UNL     1       0.048   3.400  11.245  0.00  0.00    +0.008 A 
ENDBRANCH   8  10
ENDBRANCH   2   5
BRANCH   1  22
ATOM     20  C   UNL     1      -0.018   1.503   0.010  0.00  0.00    +0.068 C 
ATOM     21  C   UNL     1       0.002  -0.004   0.002  0.00  0.00    +0.063 C 
ATOM     22  N   UNL     1       0.022  -0.659   1.123  0.00  0.00    -0.184 NA
BRANCH  21  23
ATOM     23  C   UNL     1      -0.000  -0.734  -1.279  0.00  0.00    -0.002 A 
ATOM     24  C   UNL     1      -0.015  -0.033  -2.487  0.00  0.00    +0.012 A 
ATOM     25  C   UNL     1      -0.017  -0.722  -3.681  0.00  0.00    +0.033 A 
ATOM     26  C   UNL     1      -0.004  -2.106  -3.685  0.00  0.00    +0.126 A 
ATOM     27  C   UNL     1       0.010  -2.808  -2.492  0.00  0.00    +0.033 A 
ATOM     28  C   UNL     1       0.019  -2.131  -1.290  0.00  0.00    +0.012 A 
BRANCH  26  29
ATOM     29  N   UNL     1      -0.007  -2.839  -4.971  0.00  0.00    +0.056 N 
ATOM     30  O   UNL     1      -0.020  -2.229  -6.014  0.00  0.00    -0.126 OA
ATOM     31  O   UNL     1       0.005  -4.048  -4.978  0.00  0.00    -0.126 OA
ENDBRANCH  26  29
ENDBRANCH  21  23
ENDBRANCH   1  22
TORSDOF 5
