REMARK  Name = ZINC18479106
REMARK  8 active torsions:
REMARK  status: ('A' for Active; 'I' for Inactive)
REMARK    1  A    between atoms: C_1  and  C_2
REMARK    2  A    between atoms: C_5  and  C_8
REMARK    3  A    between atoms: C_11  and  S_14
REMARK    4  A    between atoms: N_12  and  N_13
REMARK    5  A    between atoms: S_14  and  C_15
REMARK    6  A    between atoms: C_15  and  C_16
REMARK    7  A    between atoms: N_18  and  C_19
REMARK    8  A    between atoms: C_22  and  N_25
REMARK                            x       y       z     vdW  Elec       q    Type
REMARK                         _______ _______ _______ _____ _____    ______ ____
ROOT
ATOM      1  C   UNL     1      -0.736   0.863  -0.776  0.00  0.00    +0.173 C 
ENDROOT
BRANCH   1   2
ATOM      2  C   UNL     1      -1.726   1.309   0.269  0.00  0.00    +0.227 C 
ATOM      3  O   UNL     1      -2.724   1.914  -0.060  0.00  0.00    -0.275 OA
ATOM      4  N   UNL     1      -1.501   1.036   1.570  0.00  0.00    -0.285 N 
ATOM      5  H   UNL     1      -0.668   0.619   1.841  0.00  0.00    +0.155 HD
BRANCH   4   6
ATOM      6  C   UNL     1      -2.471   1.353   2.530  0.00  0.00    +0.034 A 
ATOM      7  C   UNL     1      -2.084   1.755   3.801  0.00  0.00    +0.025 A 
ATOM      8  C   UNL     1      -3.039   2.072   4.746  0.00  0.00    +0.025 A 
ATOM      9  C   UNL     1      -4.388   1.979   4.428  0.00  0.00    +0.030 A 
ATOM     10  C   UNL     1      -4.775   1.572   3.158  0.00  0.00    +0.025 A 
ATOM     11  C   UNL     1      -3.820   1.260   2.212  0.00  0.00    +0.025 A 
BRANCH   9  12
ATOM     12  N   UNL     1      -5.356   2.296   5.386  0.00  0.00    -0.330 N 
ATOM     13  C   UNL     1      -4.726   2.728   6.654  0.00  0.00    +0.105 C 
ATOM     14  C   UNL     1      -5.707   2.818   7.792  0.00  0.00    +0.019 C 
ATOM     15  C   UNL     1      -5.687   1.481   8.562  0.00  0.00    +0.002 C 
ATOM     16  C   UNL     1      -6.451   0.441   7.880  0.00  0.00    +0.002 C 
ATOM     17  C   UNL     1      -5.885   0.127   6.479  0.00  0.00    +0.019 C 
ATOM     18  C   UNL     1      -6.341   1.200   5.529  0.00  0.00    +0.105 C 
ENDBRANCH   9  12
ENDBRANCH   4   6
ENDBRANCH   1   2
BRANCH   1  19
ATOM     19  S   UNL     1      -1.315   1.375  -2.413  0.00  0.00    -0.075 S 
BRANCH  19  23
ATOM     20  C   UNL     1       1.268   0.207  -5.101  0.00  0.00    +0.182 A 
ATOM     21  N   UNL     1       1.803  -0.222  -3.982  0.00  0.00    -0.127 NA
ATOM     22  N   UNL     1       1.055   0.098  -2.987  0.00  0.00    -0.121 NA
ATOM     23  C   UNL     1      -0.008   0.744  -3.412  0.00  0.00    +0.209 A 
ATOM     24  N   UNL     1       0.092   0.839  -4.770  0.00  0.00    -0.224 N 
BRANCH  20  29
ATOM     25  C   UNL     1       3.436  -0.431 -10.393  0.00  0.00    +0.044 C 
ATOM     26  C   UNL     1       2.869  -0.264  -9.007  0.00  0.00    -0.050 A 
ATOM     27  C   UNL     1       1.887   0.684  -8.775  0.00  0.00    +0.004 A 
ATOM     28  C   UNL     1       1.363   0.842  -7.508  0.00  0.00    +0.012 A 
ATOM     29  C   UNL     1       1.825   0.043  -6.461  0.00  0.00    +0.021 A 
ATOM     30  C   UNL     1       2.819  -0.906  -6.701  0.00  0.00    +0.012 A 
ATOM     31  C   UNL     1       3.331  -1.058  -7.973  0.00  0.00    +0.004 A 
ENDBRANCH  20  29
BRANCH  24  32
ATOM     32  N   UNL     1      -0.792   1.437  -5.623  0.00  0.00    -0.295 N 
ATOM     33  H   UNL     1      -0.509   2.382  -5.833  0.00  0.00    +0.163 HD
ATOM     34  H   UNL     1      -0.903   0.896  -6.467  0.00  0.00    +0.163 HD
ENDBRANCH  24  32
ENDBRANCH  19  23
ENDBRANCH   1  19
TORSDOF 7
