REMARK  Name = ZINC22021135
REMARK  12 active torsions:
REMARK  status: ('A' for Active; 'I' for Inactive)
REMARK    1  A    between atoms: C_1  and  C_2
REMARK    2  A    between atoms: C_2  and  C_25
REMARK    3  A    between atoms: N_5  and  C_9
REMARK    4  A    between atoms: C_9  and  C_10
REMARK    5  A    between atoms: C_10  and  C_12
REMARK    6  A    between atoms: C_10  and  O_24
REMARK    7  A    between atoms: C_12  and  O_13
REMARK    8  A    between atoms: O_13  and  C_14
REMARK    9  A    between atoms: C_19  and  C_20
REMARK   10  A    between atoms: C_20  and  C_21
REMARK   11  A    between atoms: C_20  and  C_22
REMARK   12  A    between atoms: C_20  and  C_23
REMARK                            x       y       z     vdW  Elec       q    Type
REMARK                         _______ _______ _______ _____ _____    ______ ____
ROOT
ATOM      1  C   UNL     1      -0.019   1.526   0.010  0.00  0.00    +0.047 C 
ATOM      2  C   UNL     1       0.002  -0.004   0.002  0.00  0.00    +0.135 C 
ATOM      3  C   UNL     1       0.745  -0.534   1.212  0.00  0.00    +0.251 C 
ATOM      4  O   UNL     1       0.457  -0.369   2.378  0.00  0.00    -0.272 OA
ATOM      5  N   UNL     1       1.793  -1.225   0.722  0.00  0.00    -0.221 N 
ATOM      6  C   UNL     1       1.815  -1.206  -0.615  0.00  0.00    +0.310 C 
ATOM      7  O   UNL     1       2.665  -1.760  -1.285  0.00  0.00    -0.252 OA
ATOM      8  N   UNL     1       0.792  -0.505  -1.136  0.00  0.00    -0.281 N 
ATOM      9  H   UNL     1       0.482  -0.272  -2.166  0.00  0.00    +0.152 HD
ENDROOT
BRANCH   2  10
ATOM     10  C   UNL     1      -1.401  -0.551  -0.040  0.00  0.00    -0.012 A 
ATOM     11  C   UNL     1      -2.071  -0.823   1.139  0.00  0.00    +0.010 A 
ATOM     12  C   UNL     1      -3.359  -1.325   1.105  0.00  0.00    +0.050 A 
ATOM     13  C   UNL     1      -3.982  -1.557  -0.111  0.00  0.00    +0.166 A 
ATOM     14  C   UNL     1      -3.307  -1.283  -1.298  0.00  0.00    +0.167 A 
ATOM     15  C   UNL     1      -2.018  -0.776  -1.257  0.00  0.00    +0.055 A 
ATOM     16  O   UNL     1      -4.124  -1.593  -2.346  0.00  0.00    -0.453 OA
ATOM     17  C   UNL     1      -5.151  -2.440  -1.796  0.00  0.00    +0.466 C 
ATOM     18  O   UNL     1      -5.222  -2.037  -0.415  0.00  0.00    -0.453 OA
ENDBRANCH   2  10
BRANCH   5  19
ATOM     19  C   UNL     1       2.786  -1.913   1.552  0.00  0.00    +0.152 C 
BRANCH  19  20
ATOM     20  C   UNL     1       2.328  -3.349   1.811  0.00  0.00    +0.170 C 
BRANCH  20  21
ATOM     21  O   UNL     1       1.070  -3.333   2.489  0.00  0.00    -0.387 OA
ATOM     22  H   UNL     1       0.580  -4.279   2.761  0.00  0.00    +0.210 HD
ENDBRANCH  20  21
BRANCH  20  23
ATOM     23  C   UNL     1       3.365  -4.067   2.677  0.00  0.00    +0.262 C 
BRANCH  23  24
ATOM     24  O   UNL     1       2.996  -5.440   2.823  0.00  0.00    -0.489 OA
BRANCH  24  25
ATOM     25  C   UNL     1       3.818  -6.223   3.569  0.00  0.00    +0.124 A 
ATOM     26  C   UNL     1       4.959  -5.683   4.145  0.00  0.00    +0.046 A 
ATOM     27  C   UNL     1       5.790  -6.481   4.908  0.00  0.00    +0.004 A 
ATOM     28  C   UNL     1       5.491  -7.819   5.089  0.00  0.00    +0.001 A 
ATOM     29  C   UNL     1       4.358  -8.361   4.511  0.00  0.00    +0.008 A 
ATOM     30  C   UNL     1       3.521  -7.566   3.752  0.00  0.00    -0.000 A 
BRANCH  30  31
ATOM     31  C   UNL     1       2.285  -8.157   3.123  0.00  0.00    -0.009 C 
ATOM     32  C   UNL     1       2.193  -9.642   3.478  0.00  0.00    +0.015 C 
ATOM     33  C   UNL     1       1.047  -7.429   3.650  0.00  0.00    +0.015 C 
ATOM     34  C   UNL     1       2.361  -7.999   1.603  0.00  0.00    +0.015 C 
ENDBRANCH  30  31
ENDBRANCH  24  25
ENDBRANCH  23  24
ENDBRANCH  20  23
ENDBRANCH  19  20
ENDBRANCH   5  19
TORSDOF 8
