REMARK  Name = ZINC36597847
REMARK  13 active torsions:
REMARK  status: ('A' for Active; 'I' for Inactive)
REMARK    1  A    between atoms: C_1  and  C_2
REMARK    2  A    between atoms: C_5  and  C_7
REMARK    3  A    between atoms: C_7  and  N_8
REMARK    4  A    between atoms: N_8  and  C_9
REMARK    5  A    between atoms: C_9  and  C_11
REMARK    6  A    between atoms: C_9  and  C_20
REMARK    7  A    between atoms: N_22  and  C_23
REMARK    8  A    between atoms: C_23  and  C_24
REMARK    9  A    between atoms: C_23  and  C_25
REMARK   10  A    between atoms: C_23  and  C_26
REMARK   11  A    between atoms: C_27  and  C_29
REMARK   12  A    between atoms: C_33  and  O_36
REMARK   13  A    between atoms: C_34  and  O_35
REMARK                            x       y       z     vdW  Elec       q    Type
REMARK                         _______ _______ _______ _____ _____    ______ ____
ROOT
ATOM      1  N   UNL     1       2.926  -4.768  -0.844  0.00  0.00    -0.275 N 
ATOM      2  C   UNL     1       1.766  -4.762  -0.158  0.00  0.00    +0.252 C 
ATOM      3  O   UNL     1       0.947  -5.642  -0.343  0.00  0.00    -0.270 OA
ENDROOT
BRANCH   2   4
ATOM      4  C   UNL     1       1.490  -3.690   0.817  0.00  0.00    +0.082 A 
ATOM      5  C   UNL     1       1.577  -2.349   0.430  0.00  0.00    +0.017 A 
ATOM      6  C   UNL     1       1.319  -1.351   1.343  0.00  0.00    +0.005 A 
ATOM      7  C   UNL     1       0.971  -1.667   2.646  0.00  0.00    +0.049 A 
ATOM      8  C   UNL     1       0.880  -2.989   3.044  0.00  0.00    +0.159 A 
ATOM      9  C   UNL     1       1.134  -4.010   2.132  0.00  0.00    +0.171 A 
BRANCH   9  10
ATOM     10  O   UNL     1       1.040  -5.308   2.517  0.00  0.00    -0.503 OA
ATOM     11  H   UNL     1       1.865  -5.676   2.861  0.00  0.00    +0.292 HD
ENDBRANCH   9  10
BRANCH   8  12
ATOM     12  O   UNL     1       0.539  -3.292   4.325  0.00  0.00    -0.503 OA
ATOM     13  H   UNL     1      -0.413  -3.390   4.466  0.00  0.00    +0.292 HD
ENDBRANCH   8  12
ENDBRANCH   2   4
BRANCH   1  14
ATOM     14  C   UNL     1       3.253  -5.893  -1.723  0.00  0.00    +0.183 C 
BRANCH  14  19
ATOM     15  C   UNL     1       4.728  -9.664   1.286  0.00  0.00    +0.086 C 
ATOM     16  C   UNL     1       3.875  -8.813   0.381  0.00  0.00    +0.102 A 
ATOM     17  C   UNL     1       2.613  -9.087   0.003  0.00  0.00    +0.045 A 
ATOM     18  C   UNL     1       2.200  -8.030  -0.841  0.00  0.00    +0.046 A 
ATOM     19  C   UNL     1       3.233  -7.173  -0.927  0.00  0.00    +0.122 A 
ATOM     20  O   UNL     1       4.243  -7.650  -0.181  0.00  0.00    -0.463 OA
ENDBRANCH  14  19
ENDBRANCH   1  14
BRANCH   1  21
ATOM     21  C   UNL     1       3.861  -3.647  -0.711  0.00  0.00    +0.193 C 
BRANCH  21  22
ATOM     22  C   UNL     1       4.087  -3.018  -2.061  0.00  0.00    -0.014 A 
ATOM     23  C   UNL     1       3.200  -3.263  -3.093  0.00  0.00    +0.010 A 
ATOM     24  C   UNL     1       3.402  -2.687  -4.333  0.00  0.00    +0.050 A 
ATOM     25  C   UNL     1       4.495  -1.863  -4.545  0.00  0.00    +0.166 A 
ATOM     26  C   UNL     1       5.389  -1.617  -3.506  0.00  0.00    +0.167 A 
ATOM     27  C   UNL     1       5.177  -2.192  -2.264  0.00  0.00    +0.055 A 
ATOM     28  O   UNL     1       6.370  -0.784  -3.962  0.00  0.00    -0.453 OA
ATOM     29  C   UNL     1       6.294  -0.851  -5.399  0.00  0.00    +0.466 C 
ATOM     30  O   UNL     1       4.917  -1.185  -5.653  0.00  0.00    -0.453 OA
ENDBRANCH  21  22
BRANCH  21  31
ATOM     31  C   UNL     1       5.173  -4.150  -0.165  0.00  0.00    +0.239 C 
ATOM     32  O   UNL     1       5.486  -5.312  -0.314  0.00  0.00    -0.273 OA
ATOM     33  N   UNL     1       5.998  -3.308   0.487  0.00  0.00    -0.309 N 
ATOM     34  H   UNL     1       5.748  -2.378   0.606  0.00  0.00    +0.149 HD
BRANCH  33  35
ATOM     35  C   UNL     1       7.274  -3.796   1.018  0.00  0.00    +0.026 C 
ATOM     36  C   UNL     1       8.129  -4.337  -0.130  0.00  0.00    +0.031 C 
ATOM     37  C   UNL     1       8.013  -2.648   1.708  0.00  0.00    +0.031 C 
ATOM     38  C   UNL     1       7.011  -4.914   2.029  0.00  0.00    +0.031 C 
ENDBRANCH  33  35
ENDBRANCH  21  31
ENDBRANCH   1  21
TORSDOF 9
