REMARK  Name = ZINC13268625
REMARK  6 active torsions:
REMARK  status: ('A' for Active; 'I' for Inactive)
REMARK    1  A    between atoms: C_1  and  C_2
REMARK    2  A    between atoms: C_3  and  C_20
REMARK    3  A    between atoms: C_10  and  C_12
REMARK    4  A    between atoms: C_23  and  O_26
REMARK    5  A    between atoms: O_26  and  C_27
REMARK    6  A    between atoms: C_27  and  C_28
REMARK                            x       y       z     vdW  Elec       q    Type
REMARK                         _______ _______ _______ _____ _____    ______ ____
ROOT
ATOM      1  C   UNL     1      -2.297   1.467   1.198  0.00  0.00    +0.043 C 
ATOM      2  C   UNL     1      -0.839   1.817   1.055  0.00  0.00    -0.022 C 
ATOM      3  C   UNL     1      -0.256   2.496   2.034  0.00  0.00    +0.042 C 
ATOM      4  N   UNL     1       1.098   2.856   1.986  0.00  0.00    -0.282 N 
ATOM      5  C   UNL     1       1.874   2.259   1.005  0.00  0.00    +0.240 A 
ATOM      6  N   UNL     1       3.166   2.220   0.843  0.00  0.00    -0.092 NA
ATOM      7  N   UNL     1       3.464   1.538  -0.209  0.00  0.00    -0.021 NA
ATOM      8  N   UNL     1       2.389   1.102  -0.783  0.00  0.00    -0.042 NA
ATOM      9  N   UNL     1       1.318   1.558  -0.017  0.00  0.00    -0.202 N 
ATOM     10  C   UNL     1      -0.118   1.378  -0.192  0.00  0.00    +0.170 C 
ATOM     11  H   UNL     1       1.474   3.495   2.610  0.00  0.00    +0.155 HD
ENDROOT
BRANCH  10  12
ATOM     12  C   UNL     1      -0.589   2.206  -1.360  0.00  0.00    -0.017 A 
ATOM     13  C   UNL     1      -1.186   1.592  -2.445  0.00  0.00    +0.007 A 
ATOM     14  C   UNL     1      -1.618   2.350  -3.517  0.00  0.00    +0.022 A 
ATOM     15  C   UNL     1      -1.454   3.724  -3.504  0.00  0.00    +0.059 A 
ATOM     16  C   UNL     1      -0.857   4.338  -2.417  0.00  0.00    +0.060 A 
ATOM     17  C   UNL     1      -0.430   3.579  -1.342  0.00  0.00    +0.027 A 
ATOM     18 CL   UNL     1      -0.650   6.062  -2.399  0.00  0.00    -0.082 Cl
ATOM     19 CL   UNL     1      -1.996   4.676  -4.850  0.00  0.00    -0.082 Cl
ENDBRANCH  10  12
BRANCH   3  20
ATOM     20  C   UNL     1      -1.060   2.885   3.215  0.00  0.00    -0.004 A 
ATOM     21  C   UNL     1      -1.062   4.209   3.654  0.00  0.00    +0.013 A 
ATOM     22  C   UNL     1      -1.816   4.569   4.750  0.00  0.00    +0.046 A 
ATOM     23  C   UNL     1      -2.565   3.613   5.424  0.00  0.00    +0.121 A 
ATOM     24  C   UNL     1      -2.561   2.293   4.993  0.00  0.00    +0.046 A 
ATOM     25  C   UNL     1      -1.813   1.927   3.894  0.00  0.00    +0.013 A 
BRANCH  23  26
ATOM     26  O   UNL     1      -3.303   3.970   6.507  0.00  0.00    -0.481 OA
BRANCH  26  27
ATOM     27  C   UNL     1      -3.262   5.345   6.896  0.00  0.00    +0.353 C 
BRANCH  27  28
ATOM     28  C   UNL     1      -4.135   5.551   8.107  0.00  0.00    +0.393 C 
ATOM     29  O   UNL     1      -4.731   4.616   8.588  0.00  0.00    -0.243 OA
ATOM     30  O   UNL     1      -4.250   6.772   8.651  0.00  0.00    -0.243 OA
ENDBRANCH  27  28
ENDBRANCH  26  27
ENDBRANCH  23  26
ENDBRANCH   3  20
TORSDOF 5
