REMARK  Name = ZINC08896262
REMARK  13 active torsions:
REMARK  status: ('A' for Active; 'I' for Inactive)
REMARK    1  A    between atoms: C_1  and  C_2
REMARK    2  A    between atoms: C_2  and  O_3
REMARK    3  A    between atoms: O_3  and  C_4
REMARK    4  A    between atoms: C_4  and  C_6
REMARK    5  A    between atoms: C_7  and  C_35
REMARK    6  A    between atoms: C_8  and  C_30
REMARK    7  A    between atoms: C_10  and  N_11
REMARK    8  A    between atoms: C_12  and  C_14
REMARK    9  A    between atoms: N_19  and  S_20
REMARK   10  A    between atoms: S_20  and  C_23
REMARK   11  A    between atoms: C_30  and  O_32
REMARK   12  A    between atoms: O_32  and  C_33
REMARK   13  A    between atoms: C_33  and  C_34
REMARK                            x       y       z     vdW  Elec       q    Type
REMARK                         _______ _______ _______ _____ _____    ______ ____
ROOT
ATOM      1  N   UNL     1       3.425  -2.822  -6.005  0.00  0.00    -0.278 N 
ATOM      2  C   UNL     1       3.747  -1.655  -6.598  0.00  0.00    +0.236 C 
ATOM      3  O   UNL     1       3.441  -0.604  -6.075  0.00  0.00    -0.274 OA
ATOM      4  H   UNL     1       3.670  -3.662  -6.423  0.00  0.00    +0.155 HD
ENDROOT
BRANCH   1   9
ATOM      5  C   UNL     1       2.325  -3.915  -4.038  0.00  0.00    +0.091 A 
ATOM      6  C   UNL     1       1.653  -3.654  -2.854  0.00  0.00    -0.014 A 
ATOM      7  C   UNL     1       1.448  -2.344  -2.515  0.00  0.00    +0.102 A 
ATOM      8  S   UNL     1       2.197  -1.465  -3.873  0.00  0.00    -0.066 S 
ATOM      9  C   UNL     1       2.745  -2.821  -4.803  0.00  0.00    +0.087 A 
ATOM     10  C   UNL     1       1.167  -4.774  -1.971  0.00  0.00    +0.046 C 
BRANCH   5  11
ATOM     11  C   UNL     1       2.586  -5.291  -4.476  0.00  0.00    +0.342 C 
ATOM     12  O   UNL     1       1.777  -5.871  -5.175  0.00  0.00    -0.245 OA
BRANCH  11  13
ATOM     13  O   UNL     1       3.722  -5.913  -4.102  0.00  0.00    -0.461 OA
BRANCH  13  15
ATOM     14  C   UNL     1       5.249  -7.810  -4.051  0.00  0.00    +0.048 C 
ATOM     15  C   UNL     1       3.914  -7.274  -4.572  0.00  0.00    +0.229 C 
ENDBRANCH  13  15
ENDBRANCH  11  13
ENDBRANCH   5  11
BRANCH   7  16
ATOM     16  C   UNL     1       0.776  -1.800  -1.335  0.00  0.00    +0.346 C 
ATOM     17  O   UNL     1       0.312  -2.552  -0.499  0.00  0.00    -0.244 OA
BRANCH  16  18
ATOM     18  O   UNL     1       0.671  -0.465  -1.174  0.00  0.00    -0.461 OA
BRANCH  18  19
ATOM     19  C   UNL     1       0.002  -0.004   0.002  0.00  0.00    +0.229 C 
ATOM     20  C   UNL     1      -0.019   1.526   0.010  0.00  0.00    +0.048 C 
ENDBRANCH  18  19
ENDBRANCH  16  18
ENDBRANCH   7  16
ENDBRANCH   1   9
BRANCH   2  21
ATOM     21  C   UNL     1       4.488  -1.655  -7.910  0.00  0.00    +0.166 C 
ATOM     22  C   UNL     1       3.639  -2.355  -8.992  0.00  0.00    +0.031 C 
ATOM     23  C   UNL     1       2.957  -1.161  -9.719  0.00  0.00    +0.019 C 
ATOM     24  C   UNL     1       4.073  -0.088  -9.669  0.00  0.00    +0.110 C 
ATOM     25  N   UNL     1       4.717  -0.273  -8.356  0.00  0.00    -0.165 NA
BRANCH  25  26
ATOM     26  S   UNL     1       5.557   0.884  -7.521  0.00  0.00    +0.062 S 
ATOM     27  O   UNL     1       5.083   2.142  -7.981  0.00  0.00    -0.153 OA
ATOM     28  O   UNL     1       5.513   0.508  -6.151  0.00  0.00    -0.153 OA
BRANCH  26  29
ATOM     29  C   UNL     1       7.243   0.766  -8.021  0.00  0.00    +0.106 A 
ATOM     30  C   UNL     1       8.111  -0.061  -7.334  0.00  0.00    +0.031 A 
ATOM     31  C   UNL     1       9.432  -0.157  -7.729  0.00  0.00    +0.040 A 
ATOM     32  C   UNL     1       9.888   0.583  -8.806  0.00  0.00    +0.124 A 
ATOM     33  C   UNL     1       9.018   1.415  -9.491  0.00  0.00    +0.040 A 
ATOM     34  C   UNL     1       7.696   1.506  -9.098  0.00  0.00    +0.031 A 
ATOM     35  F   UNL     1      11.180   0.493  -9.190  0.00  0.00    -0.205 F 
ENDBRANCH  26  29
ENDBRANCH  25  26
ENDBRANCH   2  21
TORSDOF 10
