REMARK  Name = ZINC17983177
REMARK  11 active torsions:
REMARK  status: ('A' for Active; 'I' for Inactive)
REMARK    1  A    between atoms: C_1  and  C_2
REMARK    2  A    between atoms: C_2  and  C_3
REMARK    3  A    between atoms: C_2  and  C_4
REMARK    4  A    between atoms: C_2  and  C_5
REMARK    5  A    between atoms: C_7  and  N_16
REMARK    6  A    between atoms: N_8  and  C_10
REMARK    7  A    between atoms: C_17  and  C_19
REMARK    8  A    between atoms: C_19  and  S_20
REMARK    9  A    between atoms: S_20  and  C_21
REMARK   10  A    between atoms: N_26  and  C_27
REMARK   11  A    between atoms: C_27  and  C_28
REMARK                            x       y       z     vdW  Elec       q    Type
REMARK                         _______ _______ _______ _____ _____    ______ ____
ROOT
ATOM      1  N   UNL     1       5.299  -4.368  -0.074  0.00  0.00    -0.270 N 
ATOM      2  C   UNL     1       5.183  -3.025  -0.065  0.00  0.00    +0.229 C 
ATOM      3  O   UNL     1       6.177  -2.330  -0.071  0.00  0.00    -0.275 OA
ATOM      4  H   UNL     1       4.504  -4.923  -0.069  0.00  0.00    +0.156 HD
ENDROOT
BRANCH   1   7
ATOM      5  C   UNL     1       8.771  -5.266  -0.113  0.00  0.00    +0.071 A 
ATOM      6  C   UNL     1       7.756  -4.305  -0.098  0.00  0.00    +0.069 A 
ATOM      7  C   UNL     1       6.562  -4.958  -0.090  0.00  0.00    +0.129 A 
ATOM      8  N   UNL     1       6.827  -6.293  -0.094  0.00  0.00    -0.218 N 
ATOM      9  N   UNL     1       8.219  -6.452  -0.115  0.00  0.00    -0.169 NA
BRANCH   8  10
ATOM     10  C   UNL     1       5.878  -7.324  -0.083  0.00  0.00    +0.067 A 
ATOM     11  C   UNL     1       4.694  -7.171   0.626  0.00  0.00    +0.028 A 
ATOM     12  C   UNL     1       3.758  -8.187   0.631  0.00  0.00    +0.002 A 
ATOM     13  C   UNL     1       4.004  -9.359  -0.061  0.00  0.00    +0.000 A 
ATOM     14  C   UNL     1       5.184  -9.516  -0.764  0.00  0.00    +0.002 A 
ATOM     15  C   UNL     1       6.122  -8.502  -0.777  0.00  0.00    +0.028 A 
ENDBRANCH   8  10
BRANCH   5  17
ATOM     16  C   UNL     1      10.696  -4.530   1.266  0.00  0.00    +0.017 C 
ATOM     17  C   UNL     1      10.252  -4.984  -0.126  0.00  0.00    +0.006 C 
ATOM     18  C   UNL     1      11.010  -6.255  -0.514  0.00  0.00    +0.017 C 
ATOM     19  C   UNL     1      10.552  -3.880  -1.142  0.00  0.00    +0.017 C 
ENDBRANCH   5  17
ENDBRANCH   1   7
BRANCH   2  20
ATOM     20  C   UNL     1       3.818  -2.387  -0.048  0.00  0.00    +0.172 C 
BRANCH  20  21
ATOM     21  S   UNL     1       3.994  -0.582  -0.040  0.00  0.00    -0.088 S 
BRANCH  21  22
ATOM     22  C   UNL     1       2.334   0.009  -0.020  0.00  0.00    +0.160 A 
ATOM     23  N   UNL     1       1.204  -0.673  -0.013  0.00  0.00    -0.133 NA
ATOM     24  N   UNL     1       0.002  -0.004   0.002  0.00  0.00    -0.125 NA
ATOM     25  C   UNL     1      -0.016   1.314   0.009  0.00  0.00    +0.183 A 
ATOM     26  S   UNL     1       1.730   1.690  -0.005  0.00  0.00    -0.025 S 
ATOM     27  N   UNL     1      -1.103   2.180   0.019  0.00  0.00    -0.315 N 
ATOM     28  H   UNL     1      -0.959   3.140   0.024  0.00  0.00    +0.148 HD
BRANCH  27  29
ATOM     29  C   UNL     1      -2.466   1.645   0.024  0.00  0.00    +0.178 C 
BRANCH  29  30
ATOM     30  C   UNL     1      -3.454   2.783   0.035  0.00  0.00    +0.122 A 
ATOM     31  C   UNL     1      -3.975   3.383  -1.050  0.00  0.00    +0.046 A 
ATOM     32  C   UNL     1      -4.848   4.391  -0.582  0.00  0.00    +0.041 A 
ATOM     33  C   UNL     1      -4.809   4.347   0.762  0.00  0.00    +0.195 A 
ATOM     34  O   UNL     1      -3.967   3.367   1.130  0.00  0.00    -0.466 OA
ENDBRANCH  29  30
ENDBRANCH  27  29
ENDBRANCH  21  22
ENDBRANCH  20  21
ENDBRANCH   2  20
TORSDOF 8
