REMARK  Name = ZINC13050958
REMARK  8 active torsions:
REMARK  status: ('A' for Active; 'I' for Inactive)
REMARK    1  A    between atoms: C_5  and  C_7
REMARK    2  A    between atoms: C_7  and  N_8
REMARK    3  A    between atoms: C_9  and  C_11
REMARK    4  A    between atoms: C_11  and  S_12
REMARK    5  A    between atoms: S_12  and  C_13
REMARK    6  A    between atoms: C_17  and  C_30
REMARK    7  A    between atoms: N_23  and  C_24
REMARK    8  A    between atoms: C_24  and  C_25
REMARK                            x       y       z     vdW  Elec       q    Type
REMARK                         _______ _______ _______ _____ _____    ______ ____
ROOT
ATOM      1  C   UNL     1       0.002  -0.004   0.002  0.00  0.00    +0.173 A 
ATOM      2  N   UNL     1       1.162  -0.613  -0.018  0.00  0.00    -0.223 NA
ATOM      3  C   UNL     1       1.254  -1.964  -0.021  0.00  0.00    +0.080 A 
ATOM      4  C   UNL     1       2.492  -2.611  -0.037  0.00  0.00    +0.043 A 
ATOM      5  C   UNL     1       2.537  -3.999  -0.046  0.00  0.00    +0.065 A 
ATOM      6  C   UNL     1       1.353  -4.748  -0.039  0.00  0.00    +0.016 A 
ATOM      7  C   UNL     1       0.137  -4.127  -0.023  0.00  0.00    +0.016 A 
ATOM      8  C   UNL     1       0.069  -2.734  -0.015  0.00  0.00    +0.065 A 
ATOM      9  C   UNL     1      -1.220  -2.024   0.002  0.00  0.00    +0.263 A 
ATOM     10  O   UNL     1      -2.274  -2.631   0.009  0.00  0.00    -0.267 OA
ATOM     11  N   UNL     1      -1.189  -0.671   0.010  0.00  0.00    -0.280 N 
ENDROOT
BRANCH   5  12
ATOM     12  C   UNL     1       3.844  -4.692  -0.062  0.00  0.00    +0.387 C 
ATOM     13  O   UNL     1       4.873  -4.047  -0.068  0.00  0.00    -0.241 OA
ATOM     14  O   UNL     1       3.893  -6.038  -0.071  0.00  0.00    -0.241 OA
ENDBRANCH   5  12
BRANCH   1  15
ATOM     15  S   UNL     1      -0.022   1.758   0.012  0.00  0.00    -0.078 S 
BRANCH  15  16
ATOM     16  C   UNL     1       1.756   2.096  -0.004  0.00  0.00    +0.173 C 
BRANCH  16  18
ATOM     17  N   UNL     1       3.240   4.076  -0.007  0.00  0.00    -0.310 N 
ATOM     18  C   UNL     1       1.984   3.586   0.002  0.00  0.00    +0.224 C 
ATOM     19  O   UNL     1       1.037   4.344   0.015  0.00  0.00    -0.275 OA
ATOM     20  H   UNL     1       3.997   3.469  -0.018  0.00  0.00    +0.149 HD
BRANCH  17  21
ATOM     21  C   UNL     1       3.461   5.524  -0.001  0.00  0.00    +0.142 C 
BRANCH  21  26
ATOM     22  C   UNL     1       6.951   6.391   1.149  0.00  0.00    +0.000 A 
ATOM     23  C   UNL     1       7.659   6.323  -0.037  0.00  0.00    +0.003 A 
ATOM     24  C   UNL     1       7.010   5.996  -1.212  0.00  0.00    +0.038 A 
ATOM     25  C   UNL     1       5.649   5.737  -1.202  0.00  0.00    +0.128 A 
ATOM     26  C   UNL     1       4.941   5.806  -0.014  0.00  0.00    +0.005 A 
ATOM     27  C   UNL     1       5.592   6.138   1.159  0.00  0.00    +0.008 A 
ATOM     28  F   UNL     1       5.013   5.418  -2.350  0.00  0.00    -0.205 F 
ENDBRANCH  21  26
ENDBRANCH  17  21
ENDBRANCH  16  18
ENDBRANCH  15  16
ENDBRANCH   1  15
BRANCH  11  29
ATOM     29  C   UNL     1      -2.445   0.084   0.026  0.00  0.00    +0.201 C 
BRANCH  29  30
ATOM     30  C   UNL     1      -2.889   0.350  -1.389  0.00  0.00    +0.125 A 
ATOM     31  C   UNL     1      -3.679  -0.448  -2.129  0.00  0.00    +0.046 A 
ATOM     32  C   UNL     1      -3.841   0.185  -3.383  0.00  0.00    +0.041 A 
ATOM     33  C   UNL     1      -3.133   1.328  -3.337  0.00  0.00    +0.195 A 
ATOM     34  O   UNL     1      -2.559   1.423  -2.127  0.00  0.00    -0.466 OA
ENDBRANCH  29  30
ENDBRANCH  11  29
TORSDOF 8
