REMARK  Name = ZINC32586403
REMARK  6 active torsions:
REMARK  status: ('A' for Active; 'I' for Inactive)
REMARK    1  A    between atoms: C_1  and  C_2
REMARK    2  A    between atoms: C_5  and  N_9
REMARK    3  A    between atoms: N_9  and  S_10
REMARK    4  A    between atoms: S_10  and  C_13
REMARK    5  A    between atoms: C_16  and  N_20
REMARK    6  A    between atoms: C_18  and  C_19
REMARK                            x       y       z     vdW  Elec       q    Type
REMARK                         _______ _______ _______ _____ _____    ______ ____
ROOT
ATOM      1  S   UNL     1       2.524  -0.399  -0.745  0.00  0.00    +0.073 S 
ATOM      2  O   UNL     1       3.804  -0.981  -0.539  0.00  0.00    -0.150 OA
ATOM      3  O   UNL     1       1.323  -1.029  -0.321  0.00  0.00    -0.150 OA
ENDROOT
BRANCH   1   4
ATOM      4  C   UNL     1       2.367  -0.130  -2.479  0.00  0.00    +0.112 A 
ATOM      5  C   UNL     1       1.232  -0.555  -3.145  0.00  0.00    +0.031 A 
ATOM      6  C   UNL     1       1.109  -0.344  -4.505  0.00  0.00    +0.034 A 
ATOM      7  C   UNL     1       2.120   0.292  -5.200  0.00  0.00    +0.127 A 
ATOM      8  C   UNL     1       3.255   0.717  -4.535  0.00  0.00    +0.038 A 
ATOM      9  C   UNL     1       3.376   0.510  -3.174  0.00  0.00    -0.022 A 
ATOM     10  C   UNL     1       4.611   0.979  -2.447  0.00  0.00    +0.046 C 
BRANCH   7  11
ATOM     11  N   UNL     1       1.988   0.519  -6.657  0.00  0.00    +0.056 N 
ATOM     12  O   UNL     1       0.988   0.145  -7.243  0.00  0.00    -0.126 OA
ATOM     13  O   UNL     1       2.879   1.079  -7.270  0.00  0.00    -0.126 OA
ENDBRANCH   7  11
ENDBRANCH   1   4
BRANCH   1  14
ATOM     14  N   UNL     1       2.559   1.090  -0.020  0.00  0.00    -0.213 N 
ATOM     15  H   UNL     1       3.434   1.392   0.573  0.00  0.00    +0.174 HD
BRANCH  14  20
ATOM     16  C   UNL     1      -1.839   4.628  -0.598  0.00  0.00    +0.044 C 
ATOM     17  C   UNL     1      -0.670   3.689  -0.444  0.00  0.00    -0.048 A 
ATOM     18  C   UNL     1      -0.887   2.326  -0.359  0.00  0.00    +0.005 A 
ATOM     19  C   UNL     1       0.181   1.462  -0.213  0.00  0.00    +0.027 A 
ATOM     20  C   UNL     1       1.476   1.962  -0.162  0.00  0.00    +0.083 A 
ATOM     21  C   UNL     1       1.692   3.333  -0.254  0.00  0.00    +0.146 A 
ATOM     22  C   UNL     1       0.617   4.192  -0.395  0.00  0.00    +0.043 A 
ATOM     23  F   UNL     1       2.949   3.824  -0.205  0.00  0.00    -0.203 F 
ENDBRANCH  14  20
ENDBRANCH   1  14
TORSDOF 4
