REMARK  Name = ZINC23022323
REMARK  12 active torsions:
REMARK  status: ('A' for Active; 'I' for Inactive)
REMARK    1  A    between atoms: C_1  and  C_2
REMARK    2  A    between atoms: C_2  and  C_3
REMARK    3  A    between atoms: C_3  and  C_4
REMARK    4  A    between atoms: C_4  and  N_5
REMARK    5  A    between atoms: N_5  and  C_6
REMARK    6  A    between atoms: C_7  and  N_19
REMARK    7  A    between atoms: N_8  and  C_15
REMARK    8  A    between atoms: C_15  and  C_16
REMARK    9  A    between atoms: C_16  and  C_17
REMARK   10  A    between atoms: C_16  and  C_18
REMARK   11  A    between atoms: C_20  and  C_22
REMARK   12  A    between atoms: C_29  and  C_31
REMARK                            x       y       z     vdW  Elec       q    Type
REMARK                         _______ _______ _______ _____ _____    ______ ____
ROOT
ATOM      1  N   UNL     1      -5.502   8.403   0.744  0.00  0.00    -0.264 N 
ATOM      2  C   UNL     1      -4.381   8.934   1.275  0.00  0.00    +0.225 C 
ATOM      3  O   UNL     1      -3.473   8.209   1.625  0.00  0.00    -0.275 OA
ENDROOT
BRANCH   1   4
ATOM      4  C   UNL     1      -6.603   9.234   0.447  0.00  0.00    +0.140 A 
ATOM      5  C   UNL     1      -6.602  10.024  -0.685  0.00  0.00    +0.127 A 
ATOM      6  N   UNL     1      -7.692  10.819  -0.950  0.00  0.00    -0.280 N 
ATOM      7  C   UNL     1      -8.743  10.835  -0.111  0.00  0.00    +0.331 A 
ATOM      8  O   UNL     1      -9.696  11.548  -0.360  0.00  0.00    -0.246 OA
ATOM      9  N   UNL     1      -8.761  10.075   0.999  0.00  0.00    -0.273 N 
ATOM     10  H   UNL     1      -9.631  10.103   1.671  0.00  0.00    +0.173 HD
ATOM     11  C   UNL     1      -7.720   9.275   1.302  0.00  0.00    +0.277 A 
ATOM     12  O   UNL     1      -7.746   8.591   2.311  0.00  0.00    -0.266 OA
BRANCH   5  13
ATOM     13  N   UNL     1      -5.525  10.012  -1.539  0.00  0.00    -0.343 N 
ATOM     14  H   UNL     1      -5.531  10.644  -2.439  0.00  0.00    +0.144 HD
ATOM     15  H   UNL     1      -4.658   9.370  -1.323  0.00  0.00    +0.144 HD
ENDBRANCH   5  13
BRANCH   6  16
ATOM     16  C   UNL     1      -7.706  11.659  -2.150  0.00  0.00    +0.131 C 
BRANCH  16  17
ATOM     17  C   UNL     1      -7.101  13.026  -1.823  0.00  0.00    +0.003 C 
ATOM     18  C   UNL     1      -7.000  13.859  -3.102  0.00  0.00    +0.009 C 
ATOM     19  C   UNL     1      -7.992  13.750  -0.812  0.00  0.00    +0.009 C 
ENDBRANCH  16  17
ENDBRANCH   6  16
ENDBRANCH   1   4
BRANCH   2  20
ATOM     20  C   UNL     1      -4.257  10.428   1.435  0.00  0.00    +0.093 C 
ATOM     21  C   UNL     1      -2.777  10.813   1.500  0.00  0.00    +0.016 C 
ATOM     22  C   UNL     1      -2.649  12.333   1.630  0.00  0.00    +0.020 C 
ATOM     23  C   UNL     1      -3.326  12.790   2.921  0.00  0.00    +0.108 C 
ATOM     24  N   UNL     1      -4.710  12.297   2.937  0.00  0.00    -0.296 N 
ATOM     25  C   UNL     1      -4.951  10.863   2.730  0.00  0.00    +0.120 C 
ATOM     26  C   UNL     1      -5.739  13.146   3.131  0.00  0.00    +0.253 C 
ATOM     27  O   UNL     1      -6.876  12.717   3.199  0.00  0.00    -0.269 OA
BRANCH  26  28
ATOM     28  C   UNL     1      -5.488  14.584   3.263  0.00  0.00    +0.074 A 
ATOM     29  C   UNL     1      -6.205  15.647   2.737  0.00  0.00    +0.021 A 
ATOM     30  C   UNL     1      -5.744  16.910   3.014  0.00  0.00    +0.008 A 
ATOM     31  C   UNL     1      -4.634  17.057   3.784  0.00  0.00    +0.046 A 
ATOM     32  S   UNL     1      -4.185  15.422   4.146  0.00  0.00    -0.092 S 
ENDBRANCH  26  28
ENDBRANCH   2  20
BRANCH   1  33
ATOM     33  C   UNL     1      -5.575   6.965   0.475  0.00  0.00    +0.114 C 
BRANCH  33  34
ATOM     34  C   UNL     1      -6.044   6.234   1.735  0.00  0.00    +0.019 C 
BRANCH  34  36
ATOM     35  C   UNL     1      -6.729   4.023   2.674  0.00  0.00    +0.004 C 
ATOM     36  C   UNL     1      -6.260   4.754   1.414  0.00  0.00    -0.002 C 
ENDBRANCH  34  36
ENDBRANCH  33  34
ENDBRANCH   1  33
TORSDOF 9
