REMARK  Name = ZINC44713595
REMARK  11 active torsions:
REMARK  status: ('A' for Active; 'I' for Inactive)
REMARK    1  A    between atoms: C_1  and  C_2
REMARK    2  A    between atoms: C_3  and  C_12
REMARK    3  A    between atoms: C_12  and  C_13
REMARK    4  A    between atoms: C_13  and  N_14
REMARK    5  A    between atoms: C_15  and  C_17
REMARK    6  A    between atoms: C_28  and  C_30
REMARK    7  A    between atoms: C_30  and  C_32
REMARK    8  A    between atoms: C_30  and  O_35
REMARK    9  A    between atoms: C_32  and  C_33
REMARK   10  A    between atoms: C_32  and  C_34
REMARK   11  A    between atoms: O_35  and  C_36
REMARK                            x       y       z     vdW  Elec       q    Type
REMARK                         _______ _______ _______ _____ _____    ______ ____
ROOT
ATOM      1  C   UNL     1       2.462   1.511  -6.545  0.00  0.00    +0.100 C 
ATOM      2  C   UNL     1       1.931   0.331  -7.388  0.00  0.00    +0.121 C 
ATOM      3  N   UNL     1       2.778   0.329  -8.605  0.00  0.00    -0.297 N 
ATOM      4  C   UNL     1       4.138   0.648  -8.108  0.00  0.00    +0.115 C 
ATOM      5  C   UNL     1       3.911   1.716  -7.020  0.00  0.00    -0.004 C 
ATOM      6  C   UNL     1       4.881   1.503  -5.862  0.00  0.00    -0.010 C 
ATOM      7  C   UNL     1       6.310   1.769  -6.344  0.00  0.00    -0.082 C 
ATOM      8  N   UNL     1       6.411   3.144  -6.847  0.00  0.00    +0.379 N 
ATOM      9  C   UNL     1       5.543   3.314  -8.019  0.00  0.00    -0.082 C 
ATOM     10  C   UNL     1       4.082   3.113  -7.608  0.00  0.00    -0.010 C 
ATOM     11  C   UNL     1       2.397   0.091  -9.876  0.00  0.00    +0.257 C 
ATOM     12  O   UNL     1       3.228   0.042 -10.758  0.00  0.00    -0.272 OA
ATOM     13  H   UNL     1       6.126   3.787  -6.124  0.00  0.00    -0.086 HD
ATOM     14  H   UNL     1       7.367   3.337  -7.107  0.00  0.00    -0.086 HD
ENDROOT
BRANCH   1  16
ATOM     15  N   UNL     1       2.437   2.144  -4.154  0.00  0.00    -0.315 N 
ATOM     16  C   UNL     1       2.435   1.164  -5.079  0.00  0.00    +0.218 C 
ATOM     17  O   UNL     1       2.411   0.002  -4.732  0.00  0.00    -0.275 OA
ATOM     18  H   UNL     1       2.456   3.073  -4.432  0.00  0.00    +0.149 HD
BRANCH  15  19
ATOM     19  C   UNL     1       2.410   1.806  -2.729  0.00  0.00    +0.109 C 
BRANCH  19  20
ATOM     20  C   UNL     1       2.419   3.091  -1.899  0.00  0.00    +0.056 C 
BRANCH  20  23
ATOM     21  C   UNL     1       4.893   2.629  -0.083  0.00  0.00    +0.063 C 
ATOM     22  C   UNL     1       3.455   2.542   0.360  0.00  0.00    +0.017 A 
ATOM     23  C   UNL     1       2.391   2.744  -0.433  0.00  0.00    -0.018 A 
ATOM     24  C   UNL     1       1.198   2.561   0.397  0.00  0.00    +0.003 A 
ATOM     25  C   UNL     1      -0.175   2.636   0.152  0.00  0.00    +0.010 A 
ATOM     26  C   UNL     1      -1.058   2.406   1.169  0.00  0.00    +0.001 A 
ATOM     27  C   UNL     1      -0.602   2.097   2.443  0.00  0.00    +0.002 A 
ATOM     28  C   UNL     1       0.748   2.018   2.706  0.00  0.00    +0.026 A 
ATOM     29  C   UNL     1       1.665   2.249   1.686  0.00  0.00    +0.047 A 
ATOM     30  N   UNL     1       3.041   2.241   1.629  0.00  0.00    -0.358 N 
ATOM     31  H   UNL     1       3.629   2.051   2.376  0.00  0.00    +0.166 HD
ENDBRANCH  20  23
ENDBRANCH  19  20
ENDBRANCH  15  19
ENDBRANCH   1  16
BRANCH  11  32
ATOM     32  C   UNL     1       0.940  -0.115 -10.200  0.00  0.00    +0.261 C 
BRANCH  32  33
ATOM     33  C   UNL     1       0.585  -1.594 -10.038  0.00  0.00    +0.033 C 
ATOM     34  C   UNL     1       0.963  -2.058  -8.630  0.00  0.00    +0.011 C 
ATOM     35  C   UNL     1      -0.918  -1.784 -10.251  0.00  0.00    +0.011 C 
ENDBRANCH  32  33
BRANCH  32  36
ATOM     36  O   UNL     1       0.690   0.291 -11.547  0.00  0.00    -0.479 OA
BRANCH  36  37
ATOM     37  C   UNL     1      -0.523   0.843 -11.810  0.00  0.00    +0.122 A 
ATOM     38  C   UNL     1      -1.419   1.078 -10.777  0.00  0.00    +0.045 A 
ATOM     39  C   UNL     1      -2.651   1.639 -11.047  0.00  0.00    +0.004 A 
ATOM     40  C   UNL     1      -2.993   1.968 -12.346  0.00  0.00    +0.000 A 
ATOM     41  C   UNL     1      -2.103   1.734 -13.378  0.00  0.00    +0.004 A 
ATOM     42  C   UNL     1      -0.867   1.178 -13.112  0.00  0.00    +0.045 A 
ENDBRANCH  36  37
ENDBRANCH  32  36
ENDBRANCH  11  32
TORSDOF 8
