REMARK  Name = ZINC62641944
REMARK  5 active torsions:
REMARK  status: ('A' for Active; 'I' for Inactive)
REMARK    1  A    between atoms: C_1  and  O_2
REMARK    2  A    between atoms: O_2  and  C_3
REMARK    3  A    between atoms: N_5  and  C_6
REMARK    4  A    between atoms: C_9  and  N_12
REMARK    5  A    between atoms: C_13  and  C_15
REMARK                            x       y       z     vdW  Elec       q    Type
REMARK                         _______ _______ _______ _____ _____    ______ ____
ROOT
ATOM      1  N   UNL     1       4.184  -4.344   7.804  0.00  0.00    -0.278 N 
ATOM      2  C   UNL     1       3.881  -5.632   8.061  0.00  0.00    +0.303 C 
ATOM      3  O   UNL     1       4.112  -6.103   9.155  0.00  0.00    -0.265 OA
ATOM      4  H   UNL     1       4.070  -3.988   6.909  0.00  0.00    +0.155 HD
ENDROOT
BRANCH   2   5
ATOM      5  C   UNL     1       3.263  -6.479   6.998  0.00  0.00    +0.302 C 
ATOM      6  O   UNL     1       2.936  -5.983   5.940  0.00  0.00    -0.265 OA
ATOM      7  N   UNL     1       3.068  -7.795   7.214  0.00  0.00    -0.290 N 
ATOM      8  C   UNL     1       2.383  -8.558   6.209  0.00  0.00    +0.112 C 
ATOM      9  C   UNL     1       1.538  -9.655   6.781  0.00  0.00    +0.007 C 
ATOM     10  C   UNL     1       0.695  -9.199   7.961  0.00  0.00    +0.008 C 
ATOM     11  C   UNL     1       1.395  -9.299   9.302  0.00  0.00    -0.009 C 
ATOM     12  C   UNL     1       2.023 -10.682   9.492  0.00  0.00    +0.007 C 
ATOM     13  C   UNL     1       3.027 -10.883   8.354  0.00  0.00    -0.009 C 
ATOM     14  C   UNL     1       2.253 -10.952   7.037  0.00  0.00    +0.008 C 
ATOM     15  C   UNL     1       4.064  -9.784   8.325  0.00  0.00    +0.026 C 
ATOM     16  C   UNL     1       3.565  -8.374   8.449  0.00  0.00    +0.077 C 
ATOM     17  C   UNL     1       2.466  -8.240   9.513  0.00  0.00    +0.026 C 
ENDBRANCH   2   5
BRANCH   1  21
ATOM     18  C   UNL     1       5.608  -1.890  10.857  0.00  0.00    +0.037 A 
ATOM     19  C   UNL     1       6.051  -1.705   9.554  0.00  0.00    +0.025 A 
ATOM     20  C   UNL     1       5.580  -2.518   8.543  0.00  0.00    +0.025 A 
ATOM     21  C   UNL     1       4.662  -3.521   8.829  0.00  0.00    +0.034 A 
ATOM     22  C   UNL     1       4.218  -3.705  10.133  0.00  0.00    +0.025 A 
ATOM     23  C   UNL     1       4.694  -2.896  11.144  0.00  0.00    +0.025 A 
BRANCH  18  26
ATOM     24  C   UNL     1       6.340   0.236  11.639  0.00  0.00    +0.404 C 
ATOM     25  O   UNL     1       6.216   0.678  10.514  0.00  0.00    -0.226 OA
ATOM     26  N   UNL     1       6.086  -1.065  11.883  0.00  0.00    -0.251 N 
ATOM     27  H   UNL     1       6.235  -1.430  12.770  0.00  0.00    +0.158 HD
BRANCH  24  29
ATOM     28  C   UNL     1       6.984   2.412  12.311  0.00  0.00    +0.282 C 
ATOM     29  O   UNL     1       6.732   1.045  12.642  0.00  0.00    -0.453 OA
ENDBRANCH  24  29
ENDBRANCH  18  26
ENDBRANCH   1  21
TORSDOF 4
