REMARK  Name = ZINC29877841
REMARK  10 active torsions:
REMARK  status: ('A' for Active; 'I' for Inactive)
REMARK    1  A    between atoms: C_1  and  C_2
REMARK    2  A    between atoms: C_2  and  O_3
REMARK    3  A    between atoms: O_3  and  C_4
REMARK    4  A    between atoms: C_4  and  C_6
REMARK    5  A    between atoms: C_7  and  C_21
REMARK    6  A    between atoms: C_12  and  C_14
REMARK    7  A    between atoms: C_21  and  O_22
REMARK    8  A    between atoms: O_22  and  C_23
REMARK    9  A    between atoms: C_23  and  C_25
REMARK   10  A    between atoms: C_25  and  C_26
REMARK                            x       y       z     vdW  Elec       q    Type
REMARK                         _______ _______ _______ _____ _____    ______ ____
ROOT
ATOM      1  C   UNL     1       0.129   4.013  -0.029  0.00  0.00    +0.081 C 
ATOM      2  C   UNL     1       1.240   3.245   0.012  0.00  0.00    +0.061 C 
ATOM      3  N   UNL     1       1.154   1.883   0.057  0.00  0.00    -0.269 N 
ATOM      4  C   UNL     1      -0.005   1.212   0.065  0.00  0.00    +0.304 C 
ATOM      5  O   UNL     1       0.020  -0.003   0.106  0.00  0.00    -0.252 OA
ATOM      6  N   UNL     1      -1.197   1.839   0.023  0.00  0.00    -0.288 N 
ATOM      7  C   UNL     1      -1.214   3.311  -0.022  0.00  0.00    +0.144 C 
ATOM      8  H   UNL     1       2.070   1.275   0.088  0.00  0.00    +0.156 HD
ATOM      9  H   UNL     1      -2.143   1.278   0.022  0.00  0.00    +0.151 HD
ENDROOT
BRANCH   7  10
ATOM     10  C   UNL     1      -1.992   3.807   1.169  0.00  0.00    -0.022 A 
ATOM     11  C   UNL     1      -1.738   3.288   2.425  0.00  0.00    +0.007 A 
ATOM     12  C   UNL     1      -2.447   3.746   3.519  0.00  0.00    +0.020 A 
ATOM     13  C   UNL     1      -3.419   4.717   3.356  0.00  0.00    +0.041 A 
ATOM     14  C   UNL     1      -3.677   5.232   2.098  0.00  0.00    +0.020 A 
ATOM     15  C   UNL     1      -2.963   4.777   1.005  0.00  0.00    +0.007 A 
ATOM     16 CL   UNL     1      -4.314   5.289   4.729  0.00  0.00    -0.084 Cl
ENDBRANCH   7  10
BRANCH   1  17
ATOM     17  C   UNL     1       0.216   5.424  -0.075  0.00  0.00    +0.339 C 
ATOM     18  O   UNL     1       1.303   5.963  -0.174  0.00  0.00    -0.245 OA
BRANCH  17  19
ATOM     19  O   UNL     1      -0.905   6.171  -0.010  0.00  0.00    -0.462 OA
BRANCH  19  21
ATOM     20  C   UNL     1      -2.113   8.264   0.023  0.00  0.00    +0.048 C 
ATOM     21  C   UNL     1      -0.742   7.590  -0.063  0.00  0.00    +0.229 C 
ENDBRANCH  19  21
ENDBRANCH  17  19
ENDBRANCH   1  17
BRANCH   2  22
ATOM     22  C   UNL     1       2.595   3.903   0.007  0.00  0.00    +0.283 C 
BRANCH  22  23
ATOM     23  O   UNL     1       3.627   2.886   0.115  0.00  0.00    -0.458 OA
BRANCH  23  24
ATOM     24  C   UNL     1       4.901   3.309   0.124  0.00  0.00    +0.311 C 
ATOM     25  O   UNL     1       5.146   4.490   0.046  0.00  0.00    -0.251 OA
BRANCH  24  26
ATOM     26  C   UNL     1       6.025   2.312   0.233  0.00  0.00    +0.174 C 
BRANCH  26  27
ATOM     27  C   UNL     1       7.365   3.050   0.222  0.00  0.00    +0.269 C 
ATOM     28  C   UNL     1       8.482   2.065   0.456  0.00  0.00    +0.259 C 
ATOM     29  O   UNL     1       8.891   1.864   1.581  0.00  0.00    -0.271 OA
ATOM     30  N   UNL     1       9.027   1.409  -0.588  0.00  0.00    -0.280 N 
ATOM     31  C   UNL     1       8.631   1.747  -1.889  0.00  0.00    +0.076 A 
ATOM     32  C   UNL     1       8.978   0.941  -2.962  0.00  0.00    +0.027 A 
ATOM     33  C   UNL     1       8.552   1.271  -4.236  0.00  0.00    +0.002 A 
ATOM     34  C   UNL     1       7.783   2.402  -4.441  0.00  0.00    +0.004 A 
ATOM     35  C   UNL     1       7.439   3.213  -3.375  0.00  0.00    +0.047 A 
ATOM     36  C   UNL     1       7.865   2.892  -2.098  0.00  0.00    +0.143 A 
ATOM     37  O   UNL     1       7.545   3.689  -1.044  0.00  0.00    -0.477 OA
ATOM     38  H   UNL     1       9.772   0.619  -0.413  0.00  0.00    +0.155 HD
ENDBRANCH  26  27
ENDBRANCH  24  26
ENDBRANCH  23  24
ENDBRANCH  22  23
ENDBRANCH   2  22
TORSDOF 9
