REMARK  Name = ZINC16313275
REMARK  4 active torsions:
REMARK  status: ('A' for Active; 'I' for Inactive)
REMARK    1  A    between atoms: C_3  and  N_9
REMARK    2  A    between atoms: N_9  and  C_10
REMARK    3  A    between atoms: C_10  and  C_11
REMARK    4  A    between atoms: N_13  and  N_14
REMARK                            x       y       z     vdW  Elec       q    Type
REMARK                         _______ _______ _______ _____ _____    ______ ____
ROOT
ATOM      1  C   UNL     1       4.977   4.114  -0.025  0.00  0.00    +0.247 C 
ATOM      2  O   UNL     1       5.910   3.339  -0.038  0.00  0.00    -0.273 OA
ATOM      3  N   UNL     1       5.206   5.443  -0.020  0.00  0.00    -0.222 N 
ATOM      4  H   UNL     1       4.460   6.063  -0.010  0.00  0.00    +0.174 HD
ENDROOT
BRANCH   3   5
ATOM      5  N   UNL     1       6.520   5.927  -0.031  0.00  0.00    -0.137 N 
ATOM      6  C   UNL     1       7.144   6.450   1.045  0.00  0.00    +0.263 C 
ATOM      7  O   UNL     1       6.692   6.586   2.162  0.00  0.00    -0.271 OA
ATOM      8  C   UNL     1       8.525   6.832   0.565  0.00  0.00    +0.114 C 
ATOM      9  C   UNL     1       9.589   6.054   1.332  0.00  0.00    +0.035 C 
ATOM     10  C   UNL     1      10.977   6.432   0.810  0.00  0.00    +0.003 C 
ATOM     11  C   UNL     1      11.195   7.936   0.987  0.00  0.00    +0.000 C 
ATOM     12  C   UNL     1      10.135   8.703   0.193  0.00  0.00    +0.003 C 
ATOM     13  C   UNL     1       8.744   8.334   0.713  0.00  0.00    +0.035 C 
ATOM     14  N   UNL     1       8.529   6.449  -0.853  0.00  0.00    -0.284 N 
ATOM     15  C   UNL     1       7.315   5.924  -1.108  0.00  0.00    +0.326 C 
ATOM     16  O   UNL     1       6.978   5.498  -2.195  0.00  0.00    -0.251 OA
ATOM     17  H   UNL     1       9.261   6.550  -1.480  0.00  0.00    +0.151 HD
ENDBRANCH   3   5
BRANCH   1  18
ATOM     18  C   UNL     1       3.564   3.593  -0.014  0.00  0.00    +0.199 C 
BRANCH  18  19
ATOM     19  N   UNL     1       3.583   2.128  -0.021  0.00  0.00    -0.333 N 
ATOM     20  H   UNL     1       4.430   1.654  -0.032  0.00  0.00    +0.147 HD
BRANCH  19  23
ATOM     21  C   UNL     1      -0.017   1.379   0.010  0.00  0.00    +0.022 A 
ATOM     22  C   UNL     1       1.169   2.088   0.002  0.00  0.00    +0.027 A 
ATOM     23  C   UNL     1       2.381   1.412  -0.013  0.00  0.00    +0.063 A 
ATOM     24  C   UNL     1       2.398   0.021  -0.021  0.00  0.00    +0.145 A 
ATOM     25  C   UNL     1       1.208  -0.683  -0.013  0.00  0.00    +0.060 A 
ATOM     26  C   UNL     1       0.002  -0.004   0.002  0.00  0.00    +0.044 A 
ATOM     27 CL   UNL     1      -1.490  -0.891   0.011  0.00  0.00    -0.083 Cl
ATOM     28  F   UNL     1       3.576  -0.641  -0.036  0.00  0.00    -0.204 F 
ENDBRANCH  19  23
ENDBRANCH  18  19
ENDBRANCH   1  18
TORSDOF 4
