REMARK  Name = ZINC43740196
REMARK  11 active torsions:
REMARK  status: ('A' for Active; 'I' for Inactive)
REMARK    1  A    between atoms: C_1  and  C_2
REMARK    2  A    between atoms: C_2  and  C_4
REMARK    3  A    between atoms: C_4  and  O_42
REMARK    4  A    between atoms: C_9  and  C_41
REMARK    5  A    between atoms: N_21  and  O_22
REMARK    6  A    between atoms: O_22  and  C_23
REMARK    7  A    between atoms: C_23  and  C_24
REMARK    8  A    between atoms: N_26  and  C_27
REMARK    9  A    between atoms: C_27  and  C_28
REMARK   10  A    between atoms: C_31  and  C_34
REMARK   11  A    between atoms: C_39  and  C_40
REMARK                            x       y       z     vdW  Elec       q    Type
REMARK                         _______ _______ _______ _____ _____    ______ ____
ROOT
ATOM      1  C   UNL     1      -1.360  -0.906   0.196  0.00  0.00    +0.129 C 
ATOM      2  C   UNL     1      -1.822  -1.503   1.549  0.00  0.00    +0.043 C 
ATOM      3  C   UNL     1      -1.915  -3.040   1.340  0.00  0.00    +0.008 C 
ATOM      4  C   UNL     1      -2.114  -3.169  -0.174  0.00  0.00    +0.002 C 
ATOM      5  C   UNL     1      -1.119  -2.106  -0.714  0.00  0.00    +0.007 C 
ATOM      6  C   UNL     1      -1.428  -1.911  -2.186  0.00  0.00    +0.010 C 
ATOM      7  C   UNL     1      -1.122  -3.240  -2.896  0.00  0.00    +0.005 C 
ATOM      8  C   UNL     1      -1.926  -4.393  -2.301  0.00  0.00    +0.002 C 
ATOM      9  C   UNL     1      -1.735  -4.508  -0.778  0.00  0.00    -0.003 C 
ATOM     10  C   UNL     1      -2.628  -5.611  -0.210  0.00  0.00    +0.008 C 
ATOM     11  C   UNL     1      -2.228  -6.968  -0.802  0.00  0.00    +0.031 C 
ATOM     12  C   UNL     1      -2.288  -6.843  -2.316  0.00  0.00    -0.062 C 
ATOM     13  C   UNL     1      -3.010  -7.719  -3.000  0.00  0.00    +0.026 C 
ATOM     14  C   UNL     1      -3.106  -7.577  -4.467  0.00  0.00    +0.080 C 
ATOM     15  N   UNL     1      -3.357  -8.585  -5.240  0.00  0.00    -0.089 NA
ATOM     16  C   UNL     1      -2.893  -6.178  -5.014  0.00  0.00    +0.059 C 
ATOM     17  C   UNL     1      -1.571  -5.659  -4.449  0.00  0.00    +0.017 C 
ATOM     18  C   UNL     1      -1.492  -5.708  -2.949  0.00  0.00    -0.007 C 
ATOM     19  C   UNL     1      -0.019  -5.904  -2.583  0.00  0.00    +0.016 C 
ATOM     20  C   UNL     1       0.317  -2.606  -0.544  0.00  0.00    +0.015 C 
ENDROOT
BRANCH   1  22
ATOM     21  C   UNL     1       0.284   0.955  -0.606  0.00  0.00    +0.089 C 
ATOM     22  C   UNL     1      -0.085  -0.125   0.378  0.00  0.00    +0.162 C 
ATOM     23  O   UNL     1       0.642  -0.364   1.313  0.00  0.00    -0.295 OA
ENDBRANCH   1  22
BRANCH   1  24
ATOM     24  O   UNL     1      -2.380  -0.067  -0.350  0.00  0.00    -0.381 OA
ATOM     25  H   UNL     1      -2.590   0.703   0.196  0.00  0.00    +0.211 HD
ENDBRANCH   1  24
BRANCH  15  26
ATOM     26  O   UNL     1      -3.549  -9.873  -4.684  0.00  0.00    -0.384 OA
BRANCH  26  27
ATOM     27  C   UNL     1      -3.818 -10.890  -5.651  0.00  0.00    +0.358 C 
BRANCH  27  28
ATOM     28  C   UNL     1      -4.004 -12.212  -4.952  0.00  0.00    +0.253 C 
ATOM     29  O   UNL     1      -3.916 -12.277  -3.744  0.00  0.00    -0.272 OA
ATOM     30  N   UNL     1      -4.269 -13.322  -5.668  0.00  0.00    -0.312 N 
ATOM     31  H   UNL     1      -4.340 -13.270  -6.635  0.00  0.00    +0.149 HD
BRANCH  30  32
ATOM     32  C   UNL     1      -4.450 -14.607  -4.989  0.00  0.00    +0.107 C 
BRANCH  32  33
ATOM     33  C   UNL     1      -4.738 -15.696  -6.024  0.00  0.00    +0.006 C 
ATOM     34  C   UNL     1      -6.076 -15.408  -6.709  0.00  0.00    +0.006 C 
ATOM     35  C   UNL     1      -7.192 -15.392  -5.662  0.00  0.00    +0.015 C 
ATOM     36  C   UNL     1      -7.257 -16.753  -4.966  0.00  0.00    +0.102 C 
ATOM     37  C   UNL     1      -5.920 -17.041  -4.282  0.00  0.00    +0.015 C 
ATOM     38  C   UNL     1      -4.804 -17.057  -5.329  0.00  0.00    +0.006 C 
BRANCH  36  39
ATOM     39  C   UNL     1      -8.356 -16.738  -3.935  0.00  0.00    +0.359 C 
ATOM     40  O   UNL     1      -9.071 -17.715  -3.791  0.00  0.00    -0.246 OA
ATOM     41  O   UNL     1      -8.531 -15.748  -3.245  0.00  0.00    -0.246 OA
ENDBRANCH  36  39
ENDBRANCH  32  33
ENDBRANCH  30  32
ENDBRANCH  27  28
ENDBRANCH  26  27
ENDBRANCH  15  26
TORSDOF 8
