REMARK  Name = ZINC45486142
REMARK  8 active torsions:
REMARK  status: ('A' for Active; 'I' for Inactive)
REMARK    1  A    between atoms: C_1  and  C_2
REMARK    2  A    between atoms: C_5  and  C_9
REMARK    3  A    between atoms: C_7  and  C_8
REMARK    4  A    between atoms: C_9  and  C_11
REMARK    5  A    between atoms: C_9  and  N_12
REMARK    6  A    between atoms: C_13  and  C_15
REMARK    7  A    between atoms: C_15  and  N_16
REMARK    8  A    between atoms: C_20  and  N_26
REMARK                            x       y       z     vdW  Elec       q    Type
REMARK                         _______ _______ _______ _____ _____    ______ ____
ROOT
ATOM      1  N   UNL     1      -0.828  -4.769  -1.077  0.00  0.00    -0.307 N 
ATOM      2  C   UNL     1      -1.371  -5.999  -0.981  0.00  0.00    +0.233 C 
ATOM      3  O   UNL     1      -1.125  -6.697  -0.019  0.00  0.00    -0.274 OA
ATOM      4  H   UNL     1      -1.024  -4.212  -1.846  0.00  0.00    +0.149 HD
ENDROOT
BRANCH   1   5
ATOM      5  C   UNL     1       0.059  -4.275  -0.021  0.00  0.00    +0.100 C 
ATOM      6  C   UNL     1       1.485  -4.766  -0.282  0.00  0.00    +0.033 C 
BRANCH   5  11
ATOM      7  C   UNL     1      -0.018   1.503   0.010  0.00  0.00    +0.044 C 
ATOM      8  C   UNL     1       0.002  -0.004   0.002  0.00  0.00    -0.048 A 
ATOM      9  C   UNL     1       0.006  -0.689  -1.199  0.00  0.00    +0.004 A 
ATOM     10  C   UNL     1       0.025  -2.071  -1.207  0.00  0.00    +0.006 A 
ATOM     11  C   UNL     1       0.040  -2.768  -0.013  0.00  0.00    -0.027 A 
ATOM     12  C   UNL     1       0.037  -2.084   1.188  0.00  0.00    +0.009 A 
ATOM     13  C   UNL     1       0.023  -0.702   1.195  0.00  0.00    -0.047 A 
ATOM     14  C   UNL     1       0.025   0.045   2.504  0.00  0.00    +0.044 C 
ENDBRANCH   5  11
ENDBRANCH   1   5
BRANCH   2  15
ATOM     15  C   UNL     1      -2.284  -6.507  -2.067  0.00  0.00    +0.224 C 
BRANCH  15  16
ATOM     16  N   UNL     1      -2.740  -7.858  -1.729  0.00  0.00    -0.265 N 
ATOM     17  C   UNL     1      -2.108  -9.052  -2.076  0.00  0.00    +0.091 A 
ATOM     18  C   UNL     1      -0.953  -9.347  -2.783  0.00  0.00    +0.032 A 
ATOM     19  C   UNL     1      -0.577 -10.664  -2.966  0.00  0.00    +0.035 A 
ATOM     20  C   UNL     1      -1.349 -11.687  -2.444  0.00  0.00    +0.130 A 
ATOM     21  C   UNL     1      -2.501 -11.400  -1.738  0.00  0.00    +0.081 A 
ATOM     22  C   UNL     1      -2.887 -10.082  -1.550  0.00  0.00    +0.159 A 
ATOM     23  O   UNL     1      -3.939  -9.508  -0.917  0.00  0.00    -0.407 OA
ATOM     24  C   UNL     1      -3.843  -8.174  -1.022  0.00  0.00    +0.422 A 
ATOM     25  O   UNL     1      -4.630  -7.374  -0.555  0.00  0.00    -0.223 OA
BRANCH  20  26
ATOM     26  N   UNL     1      -0.939 -13.095  -2.644  0.00  0.00    +0.057 N 
ATOM     27  O   UNL     1       0.069 -13.349  -3.263  0.00  0.00    -0.126 OA
ATOM     28  O   UNL     1      -1.611 -13.991  -2.190  0.00  0.00    -0.126 OA
ENDBRANCH  20  26
ENDBRANCH  15  16
ENDBRANCH   2  15
TORSDOF 5
