REMARK  Name = ZINC66823752
REMARK  8 active torsions:
REMARK  status: ('A' for Active; 'I' for Inactive)
REMARK    1  A    between atoms: C_1  and  C_2
REMARK    2  A    between atoms: C_2  and  C_4
REMARK    3  A    between atoms: C_2  and  N_18
REMARK    4  A    between atoms: N_6  and  C_7
REMARK    5  A    between atoms: C_10  and  N_13
REMARK    6  A    between atoms: C_14  and  O_16
REMARK    7  A    between atoms: O_16  and  C_17
REMARK    8  A    between atoms: C_19  and  C_21
REMARK                            x       y       z     vdW  Elec       q    Type
REMARK                         _______ _______ _______ _____ _____    ______ ____
ROOT
ATOM      1  C   UNL     1      -1.404  -0.561   0.030  0.00  0.00    +0.237 C 
ATOM      2  O   UNL     1      -1.784  -1.279   0.930  0.00  0.00    -0.273 OA
ATOM      3  N   UNL     1      -2.246  -0.230  -0.969  0.00  0.00    -0.284 N 
ATOM      4  H   UNL     1      -1.964   0.398  -1.653  0.00  0.00    +0.155 HD
ENDROOT
BRANCH   3   5
ATOM      5  C   UNL     1      -3.528  -0.792  -1.020  0.00  0.00    +0.034 A 
ATOM      6  C   UNL     1      -4.106  -1.092  -2.246  0.00  0.00    +0.025 A 
ATOM      7  C   UNL     1      -5.370  -1.647  -2.296  0.00  0.00    +0.025 A 
ATOM      8  C   UNL     1      -6.062  -1.904  -1.119  0.00  0.00    +0.037 A 
ATOM      9  C   UNL     1      -5.484  -1.603   0.107  0.00  0.00    +0.025 A 
ATOM     10  C   UNL     1      -4.218  -1.054   0.157  0.00  0.00    +0.025 A 
BRANCH   8  11
ATOM     11  N   UNL     1      -7.345  -2.466  -1.170  0.00  0.00    -0.251 N 
ATOM     12  C   UNL     1      -8.275  -2.105  -0.264  0.00  0.00    +0.404 C 
ATOM     13  O   UNL     1      -7.978  -1.356   0.646  0.00  0.00    -0.226 OA
ATOM     14  H   UNL     1      -7.563  -3.115  -1.857  0.00  0.00    +0.158 HD
BRANCH  12  15
ATOM     15  O   UNL     1      -9.533  -2.573  -0.368  0.00  0.00    -0.453 OA
ATOM     16  C   UNL     1     -10.467  -2.149   0.627  0.00  0.00    +0.282 C 
ENDBRANCH  12  15
ENDBRANCH   8  11
ENDBRANCH   3   5
BRANCH   1  18
ATOM     17  C   UNL     1      -0.012   1.492   0.055  0.00  0.00    +0.038 C 
ATOM     18  C   UNL     1       0.010  -0.038   0.029  0.00  0.00    +0.156 C 
BRANCH  18  19
ATOM     19  N   UNL     1       0.716  -0.537   1.211  0.00  0.00    -0.304 N 
ATOM     20  C   UNL     1       2.059  -0.646   1.198  0.00  0.00    +0.217 C 
ATOM     21  O   UNL     1       2.683  -0.332   0.206  0.00  0.00    -0.275 OA
ATOM     22  H   UNL     1       0.217  -0.789   2.004  0.00  0.00    +0.149 HD
BRANCH  20  23
ATOM     23  C   UNL     1       2.786  -1.159   2.414  0.00  0.00    +0.079 C 
ATOM     24  C   UNL     1       2.512  -0.234   3.603  0.00  0.00    +0.041 C 
ATOM     25  C   UNL     1       3.316  -0.718   4.813  0.00  0.00    +0.160 C 
ATOM     26  O   UNL     1       4.705  -0.748   4.479  0.00  0.00    -0.380 OA
ATOM     27  C   UNL     1       5.028  -1.633   3.404  0.00  0.00    +0.160 C 
ATOM     28  C   UNL     1       4.292  -1.185   2.138  0.00  0.00    +0.041 C 
ENDBRANCH  20  23
ENDBRANCH  18  19
ENDBRANCH   1  18
TORSDOF 6
