REMARK  Name = ZINC23112684
REMARK  12 active torsions:
REMARK  status: ('A' for Active; 'I' for Inactive)
REMARK    1  A    between atoms: C_1  and  C_2
REMARK    2  A    between atoms: C_2  and  C_3
REMARK    3  A    between atoms: C_3  and  C_4
REMARK    4  A    between atoms: C_4  and  N_5
REMARK    5  A    between atoms: N_5  and  C_6
REMARK    6  A    between atoms: C_7  and  N_19
REMARK    7  A    between atoms: N_8  and  C_15
REMARK    8  A    between atoms: C_15  and  C_16
REMARK    9  A    between atoms: C_16  and  C_17
REMARK   10  A    between atoms: C_16  and  C_18
REMARK   11  A    between atoms: C_20  and  C_22
REMARK   12  A    between atoms: N_27  and  C_29
REMARK                            x       y       z     vdW  Elec       q    Type
REMARK                         _______ _______ _______ _____ _____    ______ ____
ROOT
ATOM      1  N   UNL     1      -3.641   0.506   3.262  0.00  0.00    -0.264 N 
ATOM      2  C   UNL     1      -3.636  -0.822   3.021  0.00  0.00    +0.225 C 
ATOM      3  O   UNL     1      -2.857  -1.289   2.216  0.00  0.00    -0.275 OA
ENDROOT
BRANCH   1   4
ATOM      4  C   UNL     1      -2.686   1.339   2.643  0.00  0.00    +0.140 A 
ATOM      5  C   UNL     1      -1.736   1.999   3.396  0.00  0.00    +0.127 A 
ATOM      6  N   UNL     1      -0.818   2.804   2.764  0.00  0.00    -0.280 N 
ATOM      7  C   UNL     1      -0.848   2.951   1.427  0.00  0.00    +0.331 A 
ATOM      8  O   UNL     1      -0.030   3.671   0.887  0.00  0.00    -0.246 OA
ATOM      9  N   UNL     1      -1.762   2.312   0.676  0.00  0.00    -0.273 N 
ATOM     10  H   UNL     1      -1.764   2.441  -0.417  0.00  0.00    +0.173 HD
ATOM     11  C   UNL     1      -2.685   1.512   1.246  0.00  0.00    +0.277 A 
ATOM     12  O   UNL     1      -3.513   0.942   0.556  0.00  0.00    -0.266 OA
BRANCH   5  13
ATOM     13  N   UNL     1      -1.708   1.852   4.762  0.00  0.00    -0.343 N 
ATOM     14  H   UNL     1      -0.948   2.381   5.357  0.00  0.00    +0.144 HD
ATOM     15  H   UNL     1      -2.446   1.206   5.261  0.00  0.00    +0.144 HD
ENDBRANCH   5  13
BRANCH   6  16
ATOM     16  C   UNL     1       0.196   3.510   3.551  0.00  0.00    +0.131 C 
BRANCH  16  17
ATOM     17  C   UNL     1       1.440   2.630   3.688  0.00  0.00    +0.003 C 
ATOM     18  C   UNL     1       2.071   2.422   2.309  0.00  0.00    +0.009 C 
ATOM     19  C   UNL     1       2.449   3.314   4.612  0.00  0.00    +0.009 C 
ENDBRANCH  16  17
ENDBRANCH   6  16
ENDBRANCH   1   4
BRANCH   2  20
ATOM     20  C   UNL     1      -4.596  -1.724   3.752  0.00  0.00    +0.102 C 
ATOM     21  C   UNL     1      -4.105  -2.005   5.191  0.00  0.00    +0.110 C 
ATOM     22  C   UNL     1      -4.483  -3.449   5.437  0.00  0.00    +0.221 C 
ATOM     23  O   UNL     1      -4.531  -3.978   6.527  0.00  0.00    -0.275 OA
ATOM     24  N   UNL     1      -4.760  -4.059   4.272  0.00  0.00    -0.271 N 
ATOM     25  C   UNL     1      -4.599  -3.142   3.138  0.00  0.00    +0.127 C 
BRANCH  24  26
ATOM     26  C   UNL     1      -5.151  -5.398   4.155  0.00  0.00    +0.038 A 
ATOM     27  C   UNL     1      -5.381  -6.157   5.295  0.00  0.00    +0.023 A 
ATOM     28  C   UNL     1      -5.771  -7.477   5.177  0.00  0.00    +0.003 A 
ATOM     29  C   UNL     1      -5.923  -8.046   3.926  0.00  0.00    +0.020 A 
ATOM     30  C   UNL     1      -5.689  -7.293   2.788  0.00  0.00    +0.043 A 
ATOM     31  C   UNL     1      -5.304  -5.971   2.900  0.00  0.00    +0.043 A 
ATOM     32 CL   UNL     1      -5.881  -8.011   1.219  0.00  0.00    -0.083 Cl
ENDBRANCH  24  26
ENDBRANCH   2  20
BRANCH   1  33
ATOM     33  C   UNL     1      -4.640   1.083   4.166  0.00  0.00    +0.114 C 
BRANCH  33  34
ATOM     34  C   UNL     1      -5.901   1.434   3.375  0.00  0.00    +0.019 C 
BRANCH  34  36
ATOM     35  C   UNL     1      -8.206   2.387   3.528  0.00  0.00    +0.004 C 
ATOM     36  C   UNL     1      -6.944   2.036   4.319  0.00  0.00    -0.002 C 
ENDBRANCH  34  36
ENDBRANCH  33  34
ENDBRANCH   1  33
TORSDOF 9
