REMARK  Name = ZINC37199549
REMARK  4 active torsions:
REMARK  status: ('A' for Active; 'I' for Inactive)
REMARK    1  A    between atoms: C_3  and  N_16
REMARK    2  A    between atoms: C_5  and  C_6
REMARK    3  A    between atoms: C_6  and  N_7
REMARK    4  A    between atoms: N_7  and  C_8
REMARK                            x       y       z     vdW  Elec       q    Type
REMARK                         _______ _______ _______ _____ _____    ______ ____
ROOT
ATOM      1  N   UNL     1      -1.614  -1.185  -1.370  0.00  0.00    -0.337 N 
ATOM      2  H   UNL     1      -1.114  -0.806  -2.110  0.00  0.00    +0.147 HD
ENDROOT
BRANCH   1   3
ATOM      3  C   UNL     1      -2.719  -2.002  -1.619  0.00  0.00    +0.030 A 
ATOM      4  C   UNL     1      -3.438  -2.542  -0.560  0.00  0.00    +0.043 A 
ATOM      5  C   UNL     1      -4.532  -3.349  -0.810  0.00  0.00    +0.044 A 
ATOM      6  C   UNL     1      -4.910  -3.620  -2.113  0.00  0.00    +0.040 A 
ATOM      7  C   UNL     1      -4.196  -3.085  -3.170  0.00  0.00    +0.044 A 
ATOM      8  C   UNL     1      -3.104  -2.272  -2.926  0.00  0.00    +0.043 A 
ATOM      9 CL   UNL     1      -4.673  -3.429  -4.803  0.00  0.00    -0.083 Cl
ATOM     10 CL   UNL     1      -5.431  -4.024   0.513  0.00  0.00    -0.083 Cl
ENDBRANCH   1   3
BRANCH   1  11
ATOM     11  C   UNL     1      -1.208  -0.902   0.009  0.00  0.00    +0.176 C 
BRANCH  11  16
ATOM     12  C   UNL     1      -0.016   1.341   0.009  0.00  0.00    +0.049 A 
ATOM     13  C   UNL     1       1.331   1.769  -0.001  0.00  0.00    +0.076 A 
ATOM     14  C   UNL     1       2.092   0.660  -0.014  0.00  0.00    +0.280 A 
ATOM     15  O   UNL     1       1.282  -0.411  -0.012  0.00  0.00    -0.437 OA
ATOM     16  C   UNL     1       0.002  -0.004   0.002  0.00  0.00    +0.125 A 
BRANCH  14  17
ATOM     17  N   UNL     1       3.572   0.625  -0.029  0.00  0.00    +0.093 N 
ATOM     18  O   UNL     1       4.201   1.658  -0.029  0.00  0.00    -0.123 OA
ATOM     19  O   UNL     1       4.152  -0.435  -0.040  0.00  0.00    -0.123 OA
ENDBRANCH  14  17
ENDBRANCH  11  16
ENDBRANCH   1  11
TORSDOF 4
