REMARK  Name = ZINC24216644
REMARK  10 active torsions:
REMARK  status: ('A' for Active; 'I' for Inactive)
REMARK    1  A    between atoms: C_1  and  C_2
REMARK    2  A    between atoms: C_2  and  O_3
REMARK    3  A    between atoms: O_3  and  C_4
REMARK    4  A    between atoms: C_7  and  C_10
REMARK    5  A    between atoms: N_15  and  C_16
REMARK    6  A    between atoms: C_16  and  C_17
REMARK    7  A    between atoms: N_19  and  C_20
REMARK    8  A    between atoms: C_20  and  C_21
REMARK    9  A    between atoms: C_24  and  S_27
REMARK   10  A    between atoms: S_27  and  N_30
REMARK                            x       y       z     vdW  Elec       q    Type
REMARK                         _______ _______ _______ _____ _____    ______ ____
ROOT
ATOM      1  C   UNL     1       4.074  -0.739   8.394  0.00  0.00    +0.197 C 
ATOM      2  O   UNL     1       5.139  -0.159   8.374  0.00  0.00    -0.278 OA
ATOM      3  N   UNL     1       3.182  -0.544   7.403  0.00  0.00    -0.313 N 
ATOM      4  H   UNL     1       2.216  -1.071   7.421  0.00  0.00    +0.149 HD
ENDROOT
BRANCH   1   5
ATOM      5  C   UNL     1       3.748  -1.677   9.527  0.00  0.00    +0.019 C 
BRANCH   5  10
ATOM      6  C   UNL     1       4.705  -2.807  11.453  0.00  0.00    -0.037 C 
ATOM      7  C   UNL     1       5.332  -2.263  12.761  0.00  0.00    -0.013 C 
ATOM      8  C   UNL     1       4.920  -0.768  12.707  0.00  0.00    -0.020 C 
ATOM      9  C   UNL     1       4.994  -0.441  11.201  0.00  0.00    -0.077 C 
ATOM     10  N   UNL     1       4.874  -1.716  10.470  0.00  0.00    +0.390 N 
ATOM     11  H   UNL     1       5.782  -1.887   9.874  0.00  0.00    -0.080 HD
BRANCH   6  15
ATOM     12  C   UNL     1       6.780  -6.311  10.155  0.00  0.00    +0.121 A 
ATOM     13  C   UNL     1       5.531  -6.423  10.749  0.00  0.00    +0.046 A 
ATOM     14  C   UNL     1       4.863  -5.289  11.168  0.00  0.00    +0.005 A 
ATOM     15  C   UNL     1       5.437  -4.043  10.995  0.00  0.00    -0.061 A 
ATOM     16  C   UNL     1       6.678  -3.928  10.397  0.00  0.00    +0.005 A 
ATOM     17  C   UNL     1       7.353  -5.059   9.982  0.00  0.00    +0.046 A 
BRANCH  12  18
ATOM     18  O   UNL     1       7.440  -7.425   9.742  0.00  0.00    -0.492 OA
BRANCH  18  20
ATOM     19  C   UNL     1       9.305  -8.591   8.742  0.00  0.00    +0.048 C 
ATOM     20  C   UNL     1       8.720  -7.234   9.138  0.00  0.00    +0.225 C 
ENDBRANCH  18  20
ENDBRANCH  12  18
ENDBRANCH   6  15
ENDBRANCH   5  10
ENDBRANCH   1   5
BRANCH   3  21
ATOM     21  C   UNL     1       3.498   0.368   6.301  0.00  0.00    +0.139 C 
BRANCH  21  22
ATOM     22  C   UNL     1       2.343   0.407   5.333  0.00  0.00    -0.030 A 
ATOM     23  C   UNL     1       1.331   1.333   5.503  0.00  0.00    +0.007 A 
ATOM     24  C   UNL     1       0.271   1.368   4.615  0.00  0.00    +0.029 A 
ATOM     25  C   UNL     1       0.224   0.478   3.559  0.00  0.00    +0.105 A 
ATOM     26  C   UNL     1       1.234  -0.451   3.393  0.00  0.00    +0.029 A 
ATOM     27  C   UNL     1       2.296  -0.483   4.277  0.00  0.00    +0.007 A 
BRANCH  25  28
ATOM     28  S   UNL     1      -1.127   0.522   2.429  0.00  0.00    +0.061 S 
ATOM     29  O   UNL     1      -2.215   1.118   3.120  0.00  0.00    -0.153 OA
ATOM     30  O   UNL     1      -1.210  -0.770   1.845  0.00  0.00    -0.153 OA
BRANCH  28  31
ATOM     31  N   UNL     1      -0.712   1.565   1.211  0.00  0.00    -0.172 NA
ATOM     32  C   UNL     1      -0.013   1.086   0.008  0.00  0.00    +0.137 C 
ATOM     33  C   UNL     1      -0.764   1.599  -1.226  0.00  0.00    +0.177 C 
ATOM     34  O   UNL     1      -0.940   3.013  -1.115  0.00  0.00    -0.377 OA
ATOM     35  C   UNL     1      -1.734   3.419   0.003  0.00  0.00    +0.177 C 
ATOM     36  C   UNL     1      -1.032   2.999   1.299  0.00  0.00    +0.137 C 
ENDBRANCH  28  31
ENDBRANCH  25  28
ENDBRANCH  21  22
ENDBRANCH   3  21
TORSDOF 9
