REMARK  Name = ZINC14254364
REMARK  11 active torsions:
REMARK  status: ('A' for Active; 'I' for Inactive)
REMARK    1  A    between atoms: C_1  and  C_2
REMARK    2  A    between atoms: C_5  and  S_24
REMARK    3  A    between atoms: C_7  and  N_8
REMARK    4  A    between atoms: C_9  and  C_11
REMARK    5  A    between atoms: C_11  and  C_13
REMARK    6  A    between atoms: C_11  and  N_53
REMARK    7  A    between atoms: C_14  and  C_15
REMARK    8  A    between atoms: C_14  and  N_53
REMARK    9  A    between atoms: S_24  and  N_27
REMARK   10  A    between atoms: N_27  and  C_28
REMARK   11  A    between atoms: N_27  and  C_29
REMARK                            x       y       z     vdW  Elec       q    Type
REMARK                         _______ _______ _______ _____ _____    ______ ____
ROOT
ATOM      1  N   UNL     1       7.348  -0.775   6.551  0.00  0.00    -0.287 N 
ATOM      2  C   UNL     1       6.250  -0.649   5.781  0.00  0.00    +0.203 C 
ATOM      3  O   UNL     1       5.147  -0.746   6.276  0.00  0.00    -0.277 OA
ATOM      4  H   UNL     1       8.229  -0.777   6.144  0.00  0.00    +0.155 HD
ENDROOT
BRANCH   1  11
ATOM      5  C   UNL     1       9.444  -2.060   7.985  0.00  0.00    +0.045 C 
ATOM      6  C   UNL     1       8.218  -1.522   8.677  0.00  0.00    -0.029 A 
ATOM      7  C   UNL     1       8.087  -1.646  10.047  0.00  0.00    +0.007 A 
ATOM      8  C   UNL     1       6.963  -1.153  10.682  0.00  0.00    +0.029 A 
ATOM      9  C   UNL     1       5.966  -0.534   9.950  0.00  0.00    +0.107 A 
ATOM     10  C   UNL     1       6.093  -0.402   8.582  0.00  0.00    +0.052 A 
ATOM     11  C   UNL     1       7.219  -0.902   7.939  0.00  0.00    +0.038 A 
BRANCH   9  12
ATOM     12  S   UNL     1       4.536   0.094  10.765  0.00  0.00    +0.060 S 
ATOM     13  O   UNL     1       3.501   0.141   9.792  0.00  0.00    -0.153 OA
ATOM     14  O   UNL     1       4.407  -0.635  11.979  0.00  0.00    -0.153 OA
BRANCH  12  15
ATOM     15  N   UNL     1       4.861   1.662  11.187  0.00  0.00    -0.183 NA
ATOM     16  C   UNL     1       4.543   2.751  10.260  0.00  0.00    +0.131 C 
ATOM     17  C   UNL     1       5.466   1.960  12.488  0.00  0.00    +0.131 C 
ENDBRANCH  12  15
ENDBRANCH   9  12
ENDBRANCH   1  11
BRANCH   2  18
ATOM     18  C   UNL     1       6.392  -0.387   4.303  0.00  0.00    +0.014 C 
ATOM     19  C   UNL     1       7.147   0.926   4.088  0.00  0.00    -0.004 C 
BRANCH  18  20
ATOM     20  N   UNL     1       5.050  -0.289   3.698  0.00  0.00    +0.389 N 
ATOM     21  H   UNL     1       4.700   0.670   3.805  0.00  0.00    -0.084 HD
ATOM     22  H   UNL     1       4.415  -0.940   4.174  0.00  0.00    -0.084 HD
BRANCH  20  23
ATOM     23  C   UNL     1       5.109  -0.628   2.264  0.00  0.00    -0.046 C 
BRANCH  23  24
ATOM     24  C   UNL     1       3.727  -0.519   1.673  0.00  0.00    -0.061 A 
ATOM     25  C   UNL     1       2.891  -1.620   1.666  0.00  0.00    +0.005 A 
ATOM     26  C   UNL     1       1.623  -1.525   1.125  0.00  0.00    +0.050 A 
ATOM     27  C   UNL     1       1.186  -0.325   0.588  0.00  0.00    +0.166 A 
ATOM     28  C   UNL     1       2.028   0.784   0.595  0.00  0.00    +0.166 A 
ATOM     29  C   UNL     1       3.298   0.682   1.139  0.00  0.00    +0.051 A 
ATOM     30  O   UNL     1       1.374   1.832   0.015  0.00  0.00    -0.453 OA
ATOM     31  C   UNL     1      -0.019   1.468   0.023  0.00  0.00    +0.466 C 
ATOM     32  O   UNL     1       0.004   0.028   0.004  0.00  0.00    -0.453 OA
ENDBRANCH  23  24
ENDBRANCH  20  23
ENDBRANCH  18  20
ENDBRANCH   2  18
TORSDOF 7
