REMARK  Name = ZINC09129134
REMARK  9 active torsions:
REMARK  status: ('A' for Active; 'I' for Inactive)
REMARK    1  A    between atoms: C_4  and  O_28
REMARK    2  A    between atoms: C_5  and  N_7
REMARK    3  A    between atoms: C_8  and  C_10
REMARK    4  A    between atoms: C_10  and  O_11
REMARK    5  A    between atoms: O_11  and  C_12
REMARK    6  A    between atoms: C_12  and  C_14
REMARK    7  A    between atoms: C_16  and  N_25
REMARK    8  A    between atoms: C_19  and  N_20
REMARK    9  A    between atoms: O_28  and  C_29
REMARK                            x       y       z     vdW  Elec       q    Type
REMARK                         _______ _______ _______ _____ _____    ______ ____
ROOT
ATOM      1  O   UNL     1      -1.220  -4.776   0.297  0.00  0.00    -0.452 OA
ENDROOT
BRANCH   1   2
ATOM      2  C   UNL     1      -1.368  -6.112   0.399  0.00  0.00    +0.342 C 
ATOM      3  O   UNL     1      -0.390  -6.833   0.398  0.00  0.00    -0.245 OA
BRANCH   2   4
ATOM      4  C   UNL     1      -2.715  -6.697   0.511  0.00  0.00    +0.082 A 
ATOM      5  C   UNL     1      -3.843  -5.871   0.507  0.00  0.00    +0.049 A 
ATOM      6  C   UNL     1      -5.100  -6.425   0.612  0.00  0.00    +0.127 A 
ATOM      7  C   UNL     1      -5.254  -7.798   0.723  0.00  0.00    +0.034 A 
ATOM      8  C   UNL     1      -4.151  -8.626   0.729  0.00  0.00    +0.026 A 
ATOM      9  C   UNL     1      -2.875  -8.088   0.618  0.00  0.00    +0.044 A 
BRANCH   9  10
ATOM     10  N   UNL     1      -1.763  -8.919   0.617  0.00  0.00    -0.329 N 
ATOM     11  C   UNL     1      -1.018  -9.354   1.807  0.00  0.00    +0.105 C 
ATOM     12  C   UNL     1       0.146 -10.243   1.320  0.00  0.00    +0.020 C 
ATOM     13  C   UNL     1       0.327  -9.799  -0.156  0.00  0.00    +0.020 C 
ATOM     14  C   UNL     1      -1.139  -9.518  -0.577  0.00  0.00    +0.105 C 
ENDBRANCH   9  10
BRANCH   6  15
ATOM     15  N   UNL     1      -6.293  -5.548   0.607  0.00  0.00    +0.056 N 
ATOM     16  O   UNL     1      -6.163  -4.350   0.511  0.00  0.00    -0.126 OA
ATOM     17  O   UNL     1      -7.398  -6.031   0.700  0.00  0.00    -0.126 OA
ENDBRANCH   6  15
ENDBRANCH   2   4
ENDBRANCH   1   2
BRANCH   1  18
ATOM     18  C   UNL     1       0.115  -4.277   0.192  0.00  0.00    +0.328 C 
BRANCH  18  20
ATOM     19  N   UNL     1       1.234  -2.082  -0.022  0.00  0.00    -0.280 N 
ATOM     20  C   UNL     1       0.083  -2.774   0.087  0.00  0.00    +0.255 C 
ATOM     21  O   UNL     1      -0.978  -2.188   0.102  0.00  0.00    -0.272 OA
ATOM     22  H   UNL     1       2.077  -2.553  -0.115  0.00  0.00    +0.155 HD
BRANCH  19  27
ATOM     23  C   UNL     1       0.153   1.372   0.637  0.00  0.00    +0.002 A 
ATOM     24  C   UNL     1       1.172   2.088   0.036  0.00  0.00    +0.004 A 
ATOM     25  C   UNL     1       2.214   1.426  -0.585  0.00  0.00    +0.048 A 
ATOM     26  C   UNL     1       2.240   0.041  -0.608  0.00  0.00    +0.148 A 
ATOM     27  C   UNL     1       1.214  -0.681  -0.002  0.00  0.00    +0.076 A 
ATOM     28  C   UNL     1       0.172  -0.009   0.620  0.00  0.00    +0.027 A 
BRANCH  26  29
ATOM     29  O   UNL     1       3.264  -0.612  -1.220  0.00  0.00    -0.432 OA
BRANCH  29  30
ATOM     30  C   UNL     1       4.280   0.194  -1.819  0.00  0.00    +0.541 C 
ATOM     31  F   UNL     1       3.710   1.006  -2.805  0.00  0.00    -0.166 F 
ATOM     32  F   UNL     1       4.877   0.996  -0.841  0.00  0.00    -0.166 F 
ENDBRANCH  29  30
ENDBRANCH  26  29
ENDBRANCH  19  27
ENDBRANCH  18  20
ENDBRANCH   1  18
TORSDOF 9
