REMARK  Name = ZINC59212720
REMARK  5 active torsions:
REMARK  status: ('A' for Active; 'I' for Inactive)
REMARK    1  A    between atoms: C_8  and  S_10
REMARK    2  A    between atoms: S_10  and  C_11
REMARK    3  A    between atoms: C_11  and  C_12
REMARK    4  A    between atoms: C_17  and  C_20
REMARK    5  A    between atoms: C_23  and  N_26
REMARK                            x       y       z     vdW  Elec       q    Type
REMARK                         _______ _______ _______ _____ _____    ______ ____
ROOT
ATOM      1  C   UNL     1       6.412  -4.280  -0.086  0.00  0.00    +0.229 C 
ATOM      2  O   UNL     1       5.928  -5.392  -0.087  0.00  0.00    -0.275 OA
ATOM      3  N   UNL     1       7.751  -4.128  -0.098  0.00  0.00    -0.264 N 
ATOM      4  C   UNL     1       8.577  -5.246  -0.113  0.00  0.00    +0.165 A 
ATOM      5  N   UNL     1       9.895  -5.311  -0.121  0.00  0.00    -0.225 NA
ATOM      6  C   UNL     1      10.527  -6.475  -0.134  0.00  0.00    +0.080 A 
ATOM      7  C   UNL     1       9.799  -7.632  -0.140  0.00  0.00    +0.076 A 
ATOM      8  S   UNL     1       8.135  -6.978  -0.118  0.00  0.00    -0.060 S 
ATOM      9  H   UNL     1       8.139  -3.239  -0.097  0.00  0.00    +0.157 HD
ENDROOT
BRANCH   6  10
ATOM     10  C   UNL     1      12.009  -6.522  -0.144  0.00  0.00    +0.001 A 
ATOM     11  C   UNL     1      12.670  -7.749  -0.164  0.00  0.00    +0.012 A 
ATOM     12  C   UNL     1      14.049  -7.787  -0.173  0.00  0.00    +0.033 A 
ATOM     13  C   UNL     1      14.776  -6.610  -0.161  0.00  0.00    +0.126 A 
ATOM     14  C   UNL     1      14.126  -5.389  -0.141  0.00  0.00    +0.033 A 
ATOM     15  C   UNL     1      12.747  -5.339  -0.139  0.00  0.00    +0.012 A 
BRANCH  13  16
ATOM     16  N   UNL     1      16.256  -6.657  -0.170  0.00  0.00    +0.056 N 
ATOM     17  O   UNL     1      16.826  -7.723  -0.187  0.00  0.00    -0.126 OA
ATOM     18  O   UNL     1      16.893  -5.630  -0.160  0.00  0.00    -0.126 OA
ENDBRANCH  13  16
ENDBRANCH   6  10
BRANCH   1  19
ATOM     19  C   UNL     1       5.517  -3.068  -0.070  0.00  0.00    +0.175 C 
BRANCH  19  20
ATOM     20  S   UNL     1       3.782  -3.598  -0.055  0.00  0.00    -0.058 S 
BRANCH  20  28
ATOM     21  C   UNL     1      -0.017   1.373   0.010  0.00  0.00    +0.002 A 
ATOM     22  C   UNL     1       1.170   2.091   0.002  0.00  0.00    +0.004 A 
ATOM     23  C   UNL     1       2.384   1.435  -0.013  0.00  0.00    +0.048 A 
ATOM     24  C   UNL     1       2.421   0.051  -0.021  0.00  0.00    +0.156 A 
ATOM     25  C   UNL     1       1.223  -0.680  -0.013  0.00  0.00    +0.110 A 
ATOM     26  C   UNL     1       0.002  -0.004   0.002  0.00  0.00    +0.031 A 
ATOM     27  N   UNL     1       1.569  -1.996  -0.024  0.00  0.00    -0.203 NA
ATOM     28  C   UNL     1       2.875  -2.087  -0.038  0.00  0.00    +0.258 A 
ATOM     29  O   UNL     1       3.423  -0.859  -0.036  0.00  0.00    -0.431 OA
ENDBRANCH  20  28
ENDBRANCH  19  20
ENDBRANCH   1  19
TORSDOF 5
