REMARK  Name = ZINC13194778
REMARK  12 active torsions:
REMARK  status: ('A' for Active; 'I' for Inactive)
REMARK    1  A    between atoms: C_1  and  C_2
REMARK    2  A    between atoms: C_2  and  O_3
REMARK    3  A    between atoms: O_3  and  C_4
REMARK    4  A    between atoms: C_7  and  C_10
REMARK    5  A    between atoms: C_13  and  S_18
REMARK    6  A    between atoms: N_14  and  C_15
REMARK    7  A    between atoms: C_15  and  C_16
REMARK    8  A    between atoms: S_18  and  C_19
REMARK    9  A    between atoms: C_19  and  C_20
REMARK   10  A    between atoms: N_22  and  C_23
REMARK   11  A    between atoms: C_28  and  C_33
REMARK   12  A    between atoms: C_30  and  C_32
REMARK                            x       y       z     vdW  Elec       q    Type
REMARK                         _______ _______ _______ _____ _____    ______ ____
ROOT
ATOM      1  C   UNL     1      -0.401   2.679   1.954  0.00  0.00    +0.165 A 
ATOM      2  N   UNL     1      -1.267   2.731   2.939  0.00  0.00    -0.128 NA
ATOM      3  N   UNL     1      -2.065   1.725   2.875  0.00  0.00    -0.122 NA
ATOM      4  C   UNL     1      -1.760   0.972   1.843  0.00  0.00    +0.193 A 
ATOM      5  N   UNL     1      -0.693   1.554   1.218  0.00  0.00    -0.291 N 
ENDROOT
BRANCH   1   9
ATOM      6  C   UNL     1       2.712   5.465   1.179  0.00  0.00    +0.121 A 
ATOM      7  C   UNL     1       2.257   4.635   0.163  0.00  0.00    +0.046 A 
ATOM      8  C   UNL     1       1.247   3.730   0.410  0.00  0.00    +0.015 A 
ATOM      9  C   UNL     1       0.682   3.648   1.684  0.00  0.00    +0.020 A 
ATOM     10  C   UNL     1       1.139   4.488   2.702  0.00  0.00    +0.015 A 
ATOM     11  C   UNL     1       2.152   5.387   2.447  0.00  0.00    +0.046 A 
BRANCH   6  12
ATOM     12  O   UNL     1       3.708   6.356   0.931  0.00  0.00    -0.492 OA
BRANCH  12  14
ATOM     13  C   UNL     1       5.248   8.111   1.554  0.00  0.00    +0.048 C 
ATOM     14  C   UNL     1       4.128   7.179   2.021  0.00  0.00    +0.225 C 
ENDBRANCH  12  14
ENDBRANCH   6  12
ENDBRANCH   1   9
BRANCH   5  15
ATOM     15  C   UNL     1      -0.001   1.076   0.018  0.00  0.00    +0.250 C 
BRANCH  15  16
ATOM     16  C   UNL     1      -0.688   1.620  -1.208  0.00  0.00    +0.375 C 
ATOM     17  O   UNL     1      -1.656   2.333  -1.092  0.00  0.00    -0.244 OA
ATOM     18  O   UNL     1      -0.224   1.312  -2.429  0.00  0.00    -0.244 OA
ENDBRANCH  15  16
ENDBRANCH   5  15
BRANCH   4  19
ATOM     19  S   UNL     1      -2.575  -0.512   1.355  0.00  0.00    -0.077 S 
BRANCH  19  20
ATOM     20  C   UNL     1      -3.842  -0.613   2.644  0.00  0.00    +0.173 C 
BRANCH  20  21
ATOM     21  C   UNL     1      -4.685  -1.842   2.424  0.00  0.00    +0.224 C 
ATOM     22  O   UNL     1      -4.453  -2.578   1.487  0.00  0.00    -0.275 OA
ATOM     23  N   UNL     1      -5.698  -2.125   3.267  0.00  0.00    -0.312 N 
ATOM     24  H   UNL     1      -5.884  -1.537   4.016  0.00  0.00    +0.149 HD
BRANCH  23  25
ATOM     25  C   UNL     1      -6.518  -3.320   3.053  0.00  0.00    +0.076 C 
ATOM     26  C   UNL     1      -7.633  -3.001   2.055  0.00  0.00    +0.022 C 
ATOM     27  C   UNL     1      -8.508  -1.875   2.610  0.00  0.00    +0.002 C 
ATOM     28  C   UNL     1      -9.124  -2.316   3.939  0.00  0.00    +0.003 C 
ATOM     29  C   UNL     1      -8.009  -2.634   4.937  0.00  0.00    -0.009 C 
ATOM     30  C   UNL     1      -7.134  -3.760   4.382  0.00  0.00    +0.009 C 
ATOM     31  C   UNL     1      -6.019  -4.079   5.380  0.00  0.00    +0.009 C 
ATOM     32  C   UNL     1      -8.625  -3.075   6.266  0.00  0.00    +0.008 C 
ENDBRANCH  23  25
ENDBRANCH  20  21
ENDBRANCH  19  20
ENDBRANCH   4  19
TORSDOF 9
