REMARK  Name = ZINC45843290
REMARK  7 active torsions:
REMARK  status: ('A' for Active; 'I' for Inactive)
REMARK    1  A    between atoms: C_2  and  C_3
REMARK    2  A    between atoms: C_3  and  N_4
REMARK    3  A    between atoms: N_7  and  C_8
REMARK    4  A    between atoms: C_11  and  N_14
REMARK    5  A    between atoms: C_15  and  C_17
REMARK    6  A    between atoms: N_22  and  S_24
REMARK    7  A    between atoms: S_24  and  C_27
REMARK                            x       y       z     vdW  Elec       q    Type
REMARK                         _______ _______ _______ _____ _____    ______ ____
ROOT
ATOM      1  N   UNL     1       6.753  -6.782   3.287  0.00  0.00    -0.285 N 
ATOM      2  C   UNL     1       6.644  -7.736   4.233  0.00  0.00    +0.222 C 
ATOM      3  O   UNL     1       5.659  -7.781   4.938  0.00  0.00    -0.275 OA
ATOM      4  H   UNL     1       7.569  -6.704   2.768  0.00  0.00    +0.155 HD
ENDROOT
BRANCH   1   8
ATOM      5  C   UNL     1       3.582  -4.164   2.591  0.00  0.00    +0.035 A 
ATOM      6  C   UNL     1       3.843  -4.612   3.880  0.00  0.00    +0.025 A 
ATOM      7  C   UNL     1       4.893  -5.478   4.110  0.00  0.00    +0.025 A 
ATOM      8  C   UNL     1       5.687  -5.903   3.053  0.00  0.00    +0.034 A 
ATOM      9  C   UNL     1       5.426  -5.456   1.765  0.00  0.00    +0.025 A 
ATOM     10  C   UNL     1       4.373  -4.593   1.534  0.00  0.00    +0.025 A 
BRANCH   5  14
ATOM     11  N   UNL     1       0.722  -2.595   1.034  0.00  0.00    -0.296 N 
ATOM     12  C   UNL     1       1.803  -3.378   1.218  0.00  0.00    +0.304 C 
ATOM     13  O   UNL     1       2.135  -4.169   0.356  0.00  0.00    -0.253 OA
ATOM     14  N   UNL     1       2.517  -3.284   2.357  0.00  0.00    -0.269 N 
ATOM     15  H   UNL     1       0.457  -1.964   1.721  0.00  0.00    +0.151 HD
ATOM     16  H   UNL     1       2.293  -2.608   3.016  0.00  0.00    +0.156 HD
BRANCH  11  17
ATOM     17  C   UNL     1      -0.054  -2.697  -0.205  0.00  0.00    +0.132 C 
BRANCH  17  19
ATOM     18  C   UNL     1      -1.353  -0.844  -1.121  0.00  0.00    +0.005 C 
ATOM     19  C   UNL     1      -1.202  -1.721  -0.160  0.00  0.00    -0.016 C 
ENDBRANCH  17  19
ENDBRANCH  11  17
ENDBRANCH   5  14
ENDBRANCH   1   8
BRANCH   2  20
ATOM     20  C   UNL     1       7.747  -8.746   4.414  0.00  0.00    +0.091 C 
ATOM     21  C   UNL     1       7.936  -9.535   3.115  0.00  0.00    +0.015 C 
ATOM     22  C   UNL     1       9.078 -10.539   3.288  0.00  0.00    +0.018 C 
ATOM     23  C   UNL     1       8.721 -11.525   4.405  0.00  0.00    +0.109 C 
ATOM     24  N   UNL     1       8.397 -10.765   5.620  0.00  0.00    -0.176 NA
ATOM     25  C   UNL     1       7.376  -9.711   5.544  0.00  0.00    +0.122 C 
BRANCH  24  26
ATOM     26  S   UNL     1       9.168 -11.091   7.049  0.00  0.00    +0.061 S 
ATOM     27  O   UNL     1       8.305 -10.646   8.086  0.00  0.00    -0.153 OA
ATOM     28  O   UNL     1       9.630 -12.432   6.965  0.00  0.00    -0.153 OA
BRANCH  26  29
ATOM     29  C   UNL     1      10.601 -10.068   7.113  0.00  0.00    +0.106 A 
ATOM     30  C   UNL     1      11.799 -10.524   6.594  0.00  0.00    +0.031 A 
ATOM     31  C   UNL     1      12.923  -9.722   6.643  0.00  0.00    +0.040 A 
ATOM     32  C   UNL     1      12.850  -8.462   7.213  0.00  0.00    +0.124 A 
ATOM     33  C   UNL     1      11.650  -8.007   7.733  0.00  0.00    +0.040 A 
ATOM     34  C   UNL     1      10.526  -8.808   7.678  0.00  0.00    +0.031 A 
ATOM     35  F   UNL     1      13.949  -7.678   7.262  0.00  0.00    -0.205 F 
ENDBRANCH  26  29
ENDBRANCH  24  26
ENDBRANCH   2  20
TORSDOF 7
