REMARK  Name = ZINC09699931
REMARK  9 active torsions:
REMARK  status: ('A' for Active; 'I' for Inactive)
REMARK    1  A    between atoms: C_1  and  C_2
REMARK    2  A    between atoms: C_3  and  N_11
REMARK    3  A    between atoms: C_7  and  N_8
REMARK    4  A    between atoms: C_12  and  C_14
REMARK    5  A    between atoms: C_14  and  O_15
REMARK    6  A    between atoms: O_15  and  C_16
REMARK    7  A    between atoms: C_19  and  S_22
REMARK    8  A    between atoms: S_22  and  N_25
REMARK    9  A    between atoms: N_25  and  C_26
REMARK                            x       y       z     vdW  Elec       q    Type
REMARK                         _______ _______ _______ _____ _____    ______ ____
ROOT
ATOM      1  C   UNL     1      -0.986  -3.337   1.222  0.00  0.00    +0.121 A 
ATOM      2  C   UNL     1      -1.057  -2.882   2.531  0.00  0.00    +0.047 A 
ATOM      3  C   UNL     1      -1.286  -1.543   2.783  0.00  0.00    +0.032 A 
ATOM      4  C   UNL     1      -1.442  -0.657   1.733  0.00  0.00    +0.105 A 
ATOM      5  C   UNL     1      -1.377  -1.110   0.428  0.00  0.00    +0.032 A 
ATOM      6  C   UNL     1      -1.144  -2.447   0.170  0.00  0.00    +0.047 A 
ENDROOT
BRANCH   4   7
ATOM      7  S   UNL     1      -1.733   1.050   2.058  0.00  0.00    +0.059 S 
ATOM      8  O   UNL     1      -2.388   1.576   0.912  0.00  0.00    -0.153 OA
ATOM      9  O   UNL     1      -2.298   1.125   3.360  0.00  0.00    -0.153 OA
BRANCH   7  10
ATOM     10  N   UNL     1      -0.254   1.791   2.140  0.00  0.00    -0.187 NA
ATOM     11  H   UNL     1       0.047   2.181   2.976  0.00  0.00    +0.148 HD
BRANCH  10  12
ATOM     12  C   UNL     1       0.599   1.858   0.952  0.00  0.00    +0.077 C 
ATOM     13  C   UNL     1       1.590   0.692   0.969  0.00  0.00    +0.020 C 
ATOM     14  C   UNL     1       2.481   0.761  -0.272  0.00  0.00    +0.002 C 
ATOM     15  C   UNL     1       3.250   2.084  -0.275  0.00  0.00    +0.000 C 
ATOM     16  C   UNL     1       2.259   3.250  -0.293  0.00  0.00    +0.002 C 
ATOM     17  C   UNL     1       1.368   3.181   0.949  0.00  0.00    +0.020 C 
ENDBRANCH  10  12
ENDBRANCH   7  10
ENDBRANCH   4   7
BRANCH   1  18
ATOM     18  O   UNL     1      -0.762  -4.654   0.972  0.00  0.00    -0.483 OA
BRANCH  18  19
ATOM     19  C   UNL     1      -0.701  -5.052  -0.400  0.00  0.00    +0.324 C 
BRANCH  19  21
ATOM     20  N   UNL     1      -0.350  -7.138  -1.683  0.00  0.00    -0.282 N 
ATOM     21  C   UNL     1      -0.447  -6.536  -0.481  0.00  0.00    +0.255 C 
ATOM     22  O   UNL     1      -0.331  -7.188   0.535  0.00  0.00    -0.272 OA
ATOM     23  H   UNL     1      -0.517  -6.632  -2.494  0.00  0.00    +0.155 HD
BRANCH  20  26
ATOM     24  C   UNL     1      -0.998  -8.551  -4.067  0.00  0.00    +0.048 C 
ATOM     25  C   UNL     1      -0.307  -9.220  -2.907  0.00  0.00    +0.001 A 
ATOM     26  C   UNL     1      -0.009  -8.492  -1.762  0.00  0.00    +0.039 A 
ATOM     27  C   UNL     1       0.623  -9.114  -0.693  0.00  0.00    +0.024 A 
ATOM     28  C   UNL     1       0.958 -10.451  -0.773  0.00  0.00    +0.004 A 
ATOM     29  C   UNL     1       0.665 -11.171  -1.917  0.00  0.00    +0.033 A 
ATOM     30  C   UNL     1       0.036 -10.555  -2.983  0.00  0.00    +0.131 A 
BRANCH  30  31
ATOM     31  N   UNL     1      -0.275 -11.329  -4.206  0.00  0.00    +0.057 N 
ATOM     32  O   UNL     1      -0.103 -12.535  -4.223  0.00  0.00    -0.126 OA
ATOM     33  O   UNL     1      -0.703 -10.761  -5.194  0.00  0.00    -0.126 OA
ENDBRANCH  30  31
ENDBRANCH  20  26
ENDBRANCH  19  21
ENDBRANCH  18  19
ENDBRANCH   1  18
TORSDOF 8
