REMARK  Name = ZINC13112754
REMARK  8 active torsions:
REMARK  status: ('A' for Active; 'I' for Inactive)
REMARK    1  A    between atoms: C_3  and  C_6
REMARK    2  A    between atoms: C_9  and  S_17
REMARK    3  A    between atoms: N_10  and  C_11
REMARK    4  A    between atoms: S_17  and  C_18
REMARK    5  A    between atoms: C_18  and  C_19
REMARK    6  A    between atoms: N_21  and  C_22
REMARK    7  A    between atoms: C_22  and  C_23
REMARK    8  A    between atoms: N_25  and  C_26
REMARK                            x       y       z     vdW  Elec       q    Type
REMARK                         _______ _______ _______ _____ _____    ______ ____
ROOT
ATOM      1  C   UNL     1       3.680   3.100  -0.060  0.00  0.00    +0.173 C 
ENDROOT
BRANCH   1   2
ATOM      2  C   UNL     1       4.420   4.413  -0.054  0.00  0.00    +0.224 C 
ATOM      3  O   UNL     1       3.803   5.457  -0.049  0.00  0.00    -0.275 OA
ATOM      4  N   UNL     1       5.768   4.427  -0.056  0.00  0.00    -0.306 N 
ATOM      5  H   UNL     1       6.261   3.592  -0.060  0.00  0.00    +0.149 HD
BRANCH   4   6
ATOM      6  C   UNL     1       6.487   5.704  -0.050  0.00  0.00    +0.200 C 
BRANCH   6   7
ATOM      7  C   UNL     1       7.971   5.444  -0.053  0.00  0.00    +0.234 C 
ATOM      8  O   UNL     1       8.387   4.304  -0.059  0.00  0.00    -0.274 OA
ATOM      9  N   UNL     1       8.836   6.477  -0.049  0.00  0.00    -0.282 N 
ATOM     10  H   UNL     1       8.505   7.387  -0.110  0.00  0.00    +0.155 HD
BRANCH   9  11
ATOM     11  C   UNL     1      10.214   6.237   0.043  0.00  0.00    +0.072 A 
ATOM     12  C   UNL     1      10.766   5.114  -0.559  0.00  0.00    +0.029 A 
ATOM     13  C   UNL     1      12.125   4.881  -0.472  0.00  0.00    +0.043 A 
ATOM     14  C   UNL     1      12.937   5.760   0.223  0.00  0.00    +0.161 A 
ATOM     15  C   UNL     1      12.390   6.880   0.830  0.00  0.00    +0.195 A 
ATOM     16  C   UNL     1      11.029   7.120   0.741  0.00  0.00    +0.182 A 
ATOM     17  F   UNL     1      10.495   8.211   1.332  0.00  0.00    -0.200 F 
ATOM     18  F   UNL     1      13.184   7.736   1.509  0.00  0.00    -0.199 F 
ATOM     19  F   UNL     1      14.265   5.526   0.310  0.00  0.00    -0.202 F 
ENDBRANCH   9  11
ENDBRANCH   6   7
ENDBRANCH   4   6
ENDBRANCH   1   2
BRANCH   1  20
ATOM     20  S   UNL     1       1.897   3.413  -0.057  0.00  0.00    -0.077 S 
BRANCH  20  24
ATOM     21  C   UNL     1       0.005  -0.008  -0.072  0.00  0.00    +0.201 A 
ATOM     22  N   UNL     1       1.268  -0.374  -0.076  0.00  0.00    -0.125 NA
ATOM     23  N   UNL     1       2.026   0.663  -0.071  0.00  0.00    -0.122 NA
ATOM     24  C   UNL     1       1.296   1.756  -0.064  0.00  0.00    +0.193 A 
ATOM     25  N   UNL     1      -0.015   1.370  -0.065  0.00  0.00    -0.297 N 
BRANCH  25  26
ATOM     26  C   UNL     1      -1.194   2.239  -0.064  0.00  0.00    +0.091 C 
ATOM     27  C   UNL     1      -1.173   3.129  -1.308  0.00  0.00    +0.025 C 
ATOM     28  C   UNL     1      -2.404   4.037  -1.308  0.00  0.00    +0.002 C 
ATOM     29  C   UNL     1      -2.391   4.913  -0.053  0.00  0.00    +0.000 C 
ATOM     30  C   UNL     1      -2.413   4.023   1.191  0.00  0.00    +0.002 C 
ATOM     31  C   UNL     1      -1.181   3.115   1.190  0.00  0.00    +0.025 C 
ENDBRANCH  25  26
BRANCH  21  34
ATOM     32  C   UNL     1      -2.486  -2.680  -0.250  0.00  0.00    +0.042 A 
ATOM     33  C   UNL     1      -1.157  -2.230  -0.369  0.00  0.00    +0.053 A 
ATOM     34  C   UNL     1      -1.166  -0.899  -0.076  0.00  0.00    +0.172 A 
ATOM     35  O   UNL     1      -2.433  -0.543   0.215  0.00  0.00    -0.460 OA
ATOM     36  C   UNL     1      -3.234  -1.616   0.105  0.00  0.00    +0.196 A 
ENDBRANCH  21  34
ENDBRANCH  20  24
ENDBRANCH   1  20
TORSDOF 8
