REMARK  Name = ZINC38592138
REMARK  10 active torsions:
REMARK  status: ('A' for Active; 'I' for Inactive)
REMARK    1  A    between atoms: C_1  and  C_2
REMARK    2  A    between atoms: C_2  and  O_3
REMARK    3  A    between atoms: O_3  and  C_4
REMARK    4  A    between atoms: C_4  and  C_6
REMARK    5  A    between atoms: N_11  and  C_13
REMARK    6  A    between atoms: C_13  and  C_14
REMARK    7  A    between atoms: N_16  and  C_17
REMARK    8  A    between atoms: C_25  and  C_27
REMARK    9  A    between atoms: C_27  and  O_29
REMARK   10  A    between atoms: O_29  and  C_30
REMARK                            x       y       z     vdW  Elec       q    Type
REMARK                         _______ _______ _______ _____ _____    ______ ____
ROOT
ATOM      1  C   UNL     1       2.886  -6.636  -4.686  0.00  0.00    +0.200 C 
ATOM      2  O   UNL     1       3.163  -5.847  -5.564  0.00  0.00    -0.278 OA
ATOM      3  N   UNL     1       3.244  -7.930  -4.806  0.00  0.00    -0.288 N 
ATOM      4  H   UNL     1       3.071  -8.551  -4.082  0.00  0.00    +0.155 HD
ENDROOT
BRANCH   3   5
ATOM      5  C   UNL     1       3.850  -8.366  -5.946  0.00  0.00    +0.053 C 
ATOM      6  C   UNL     1       4.048  -9.679  -6.338  0.00  0.00    +0.018 A 
ATOM      7  C   UNL     1       3.713 -10.916  -5.736  0.00  0.00    +0.011 A 
ATOM      8  C   UNL     1       4.036 -12.076  -6.359  0.00  0.00    +0.001 A 
ATOM      9  C   UNL     1       4.696 -12.086  -7.591  0.00  0.00    +0.002 A 
ATOM     10  C   UNL     1       5.047 -10.941  -8.225  0.00  0.00    +0.026 A 
ATOM     11  C   UNL     1       4.743  -9.687  -7.636  0.00  0.00    +0.045 A 
ATOM     12  N   UNL     1       4.972  -8.454  -8.043  0.00  0.00    -0.367 N 
ATOM     13  C   UNL     1       4.441  -7.516  -7.049  0.00  0.00    +0.234 C 
ATOM     14  H   UNL     1       5.417  -8.207  -8.868  0.00  0.00    +0.161 HD
BRANCH  13  15
ATOM     15  C   UNL     1       5.554  -6.658  -6.503  0.00  0.00    +0.335 C 
ATOM     16  O   UNL     1       6.705  -6.980  -6.676  0.00  0.00    -0.248 OA
BRANCH  15  17
ATOM     17  O   UNL     1       5.266  -5.536  -5.825  0.00  0.00    -0.466 OA
ATOM     18  C   UNL     1       6.370  -4.772  -5.336  0.00  0.00    +0.280 C 
ENDBRANCH  15  17
ENDBRANCH  13  15
ENDBRANCH   3   5
BRANCH   1  19
ATOM     19  C   UNL     1       2.142  -6.171  -3.461  0.00  0.00    +0.019 C 
BRANCH  19  24
ATOM     20  C   UNL     1       1.051  -2.740  -2.401  0.00  0.00    +0.081 C 
ATOM     21  C   UNL     1       0.126  -2.419  -3.578  0.00  0.00    +0.011 C 
ATOM     22  C   UNL     1       0.735  -2.987  -4.863  0.00  0.00    -0.018 C 
ATOM     23  C   UNL     1       0.958  -4.492  -4.694  0.00  0.00    -0.078 C 
ATOM     24  N   UNL     1       1.871  -4.732  -3.570  0.00  0.00    +0.386 N 
ATOM     25  C   UNL     1       1.262  -4.254  -2.323  0.00  0.00    -0.064 C 
ATOM     26  H   UNL     1       2.736  -4.239  -3.731  0.00  0.00    -0.081 HD
BRANCH  20  27
ATOM     27  C   UNL     1       0.423  -2.253  -1.120  0.00  0.00    +0.308 C 
ATOM     28  O   UNL     1       0.172  -3.036  -0.235  0.00  0.00    -0.251 OA
BRANCH  27  29
ATOM     29  O   UNL     1       0.143  -0.950  -0.964  0.00  0.00    -0.465 OA
BRANCH  29  31
ATOM     30  C   UNL     1      -0.696   0.952   0.269  0.00  0.00    +0.048 C 
ATOM     31  C   UNL     1      -0.452  -0.559   0.276  0.00  0.00    +0.229 C 
ENDBRANCH  29  31
ENDBRANCH  27  29
ENDBRANCH  20  27
ENDBRANCH  19  24
ENDBRANCH   1  19
TORSDOF 8
