REMARK  Name = ZINC40031883
REMARK  8 active torsions:
REMARK  status: ('A' for Active; 'I' for Inactive)
REMARK    1  A    between atoms: C_1  and  C_2
REMARK    2  A    between atoms: C_7  and  C_8
REMARK    3  A    between atoms: C_14  and  C_23
REMARK    4  A    between atoms: N_16  and  C_19
REMARK    5  A    between atoms: C_19  and  C_20
REMARK    6  A    between atoms: C_20  and  C_21
REMARK    7  A    between atoms: C_21  and  O_22
REMARK    8  A    between atoms: C_27  and  N_29
REMARK                            x       y       z     vdW  Elec       q    Type
REMARK                         _______ _______ _______ _____ _____    ______ ____
ROOT
ATOM      1  C   UNL     1      -0.018   1.503   0.010  0.00  0.00    +0.044 C 
ATOM      2  C   UNL     1       0.002  -0.004   0.002  0.00  0.00    -0.047 A 
ATOM      3  C   UNL     1       0.006  -0.685  -1.195  0.00  0.00    +0.019 A 
ATOM      4  C   UNL     1       0.024  -2.080  -1.194  0.00  0.00    +0.065 A 
ATOM      5  C   UNL     1       0.033  -2.793   0.016  0.00  0.00    +0.140 A 
ATOM      6  C   UNL     1       0.033  -2.080   1.214  0.00  0.00    +0.050 A 
ATOM      7  C   UNL     1       0.023  -0.703   1.200  0.00  0.00    -0.044 A 
ATOM      8  C   UNL     1       0.029   0.053   2.503  0.00  0.00    +0.044 C 
ATOM      9  O   UNL     1       0.037  -4.145   0.057  0.00  0.00    -0.450 OA
ATOM     10  C   UNL     1       0.273  -4.846  -1.070  0.00  0.00    +0.199 A 
ATOM     11  C   UNL     1       0.280  -4.269  -2.308  0.00  0.00    +0.072 A 
ATOM     12  C   UNL     1       0.036  -2.832  -2.474  0.00  0.00    +0.199 A 
ATOM     13  O   UNL     1      -0.140  -2.306  -3.559  0.00  0.00    -0.287 OA
ATOM     14  C   UNL     1       0.566  -5.340  -3.308  0.00  0.00    +0.145 C 
ATOM     15  N   UNL     1       0.729  -6.581  -2.533  0.00  0.00    -0.284 N 
ATOM     16  C   UNL     1       0.557  -6.283  -1.228  0.00  0.00    +0.283 C 
ATOM     17  O   UNL     1       0.627  -7.083  -0.317  0.00  0.00    -0.267 OA
ENDROOT
BRANCH  14  18
ATOM     18  C   UNL     1       1.834  -5.025  -4.060  0.00  0.00    -0.020 A 
ATOM     19  C   UNL     1       3.063  -5.271  -3.475  0.00  0.00    +0.006 A 
ATOM     20  C   UNL     1       4.226  -4.982  -4.165  0.00  0.00    +0.003 A 
ATOM     21  C   UNL     1       4.160  -4.448  -5.438  0.00  0.00    +0.033 A 
ATOM     22  C   UNL     1       2.932  -4.203  -6.022  0.00  0.00    +0.127 A 
ATOM     23  C   UNL     1       1.769  -4.496  -5.335  0.00  0.00    +0.038 A 
BRANCH  22  24
ATOM     24  N   UNL     1       2.861  -3.630  -7.385  0.00  0.00    +0.056 N 
ATOM     25  O   UNL     1       3.879  -3.377  -7.988  0.00  0.00    -0.126 OA
ATOM     26  O   UNL     1       1.787  -3.416  -7.896  0.00  0.00    -0.126 OA
ENDBRANCH  22  24
ENDBRANCH  14  18
BRANCH  15  27
ATOM     27  C   UNL     1       1.025  -7.907  -3.081  0.00  0.00    +0.111 C 
BRANCH  27  28
ATOM     28  C   UNL     1       2.541  -8.104  -3.146  0.00  0.00    +0.047 C 
BRANCH  28  29
ATOM     29  C   UNL     1       2.850  -9.489  -3.719  0.00  0.00    +0.157 C 
BRANCH  29  30
ATOM     30  O   UNL     1       4.266  -9.674  -3.780  0.00  0.00    -0.395 OA
ATOM     31  H   UNL     1       4.536 -10.532  -4.134  0.00  0.00    +0.209 HD
ENDBRANCH  29  30
ENDBRANCH  28  29
ENDBRANCH  27  28
ENDBRANCH  15  27
TORSDOF 6
