REMARK  Name = ZINC48482351
REMARK  6 active torsions:
REMARK  status: ('A' for Active; 'I' for Inactive)
REMARK    1  A    between atoms: C_1  and  C_2
REMARK    2  A    between atoms: C_2  and  C_3
REMARK    3  A    between atoms: C_9  and  N_11
REMARK    4  A    between atoms: C_12  and  C_14
REMARK    5  A    between atoms: C_16  and  N_20
REMARK    6  A    between atoms: C_17  and  C_19
REMARK                            x       y       z     vdW  Elec       q    Type
REMARK                         _______ _______ _______ _____ _____    ______ ____
ROOT
ATOM      1  N   UNL     1       1.267  -2.605  -0.145  0.00  0.00    -0.308 N 
ATOM      2  C   UNL     1       0.902  -3.830   0.284  0.00  0.00    +0.251 C 
ATOM      3  O   UNL     1       0.043  -4.452  -0.313  0.00  0.00    -0.270 OA
ATOM      4  H   UNL     1       1.952  -2.110   0.331  0.00  0.00    +0.149 HD
ENDROOT
BRANCH   1  10
ATOM      5  C   UNL     1       0.718  -0.497  -1.257  0.00  0.00    +0.009 C 
ATOM      6  C   UNL     1       2.187  -0.073  -1.207  0.00  0.00    +0.005 C 
ATOM      7  C   UNL     1       2.904  -0.566  -2.466  0.00  0.00    +0.000 C 
ATOM      8  C   UNL     1       2.816  -2.092  -2.538  0.00  0.00    +0.002 C 
ATOM      9  C   UNL     1       1.347  -2.517  -2.587  0.00  0.00    +0.022 C 
ATOM     10  C   UNL     1       0.630  -2.023  -1.329  0.00  0.00    +0.076 C 
BRANCH   5  12
ATOM     11  C   UNL     1      -0.019   1.526   0.010  0.00  0.00    +0.004 C 
ATOM     12  C   UNL     1       0.002  -0.004   0.002  0.00  0.00    +0.002 C 
ENDBRANCH   5  12
ENDBRANCH   1  10
BRANCH   2  13
ATOM     13  C   UNL     1       1.539  -4.412   1.468  0.00  0.00    +0.076 A 
ATOM     14  C   UNL     1       1.315  -5.644   2.064  0.00  0.00    +0.053 A 
ATOM     15  C   UNL     1       2.074  -5.915   3.178  0.00  0.00    +0.137 A 
ATOM     16  C   UNL     1       2.966  -4.989   3.609  0.00  0.00    +0.018 A 
ATOM     17  S   UNL     1       2.808  -3.725   2.514  0.00  0.00    -0.087 S 
ATOM     18  C   UNL     1       3.890  -5.076   4.796  0.00  0.00    +0.054 C 
BRANCH  15  19
ATOM     19  N   UNL     1       1.920  -7.200   3.896  0.00  0.00    +0.057 N 
ATOM     20  O   UNL     1       1.123  -8.020   3.504  0.00  0.00    -0.126 OA
ATOM     21  O   UNL     1       2.592  -7.429   4.875  0.00  0.00    -0.126 OA
ENDBRANCH  15  19
ENDBRANCH   2  13
TORSDOF 4
