REMARK  Name = ZINC64683052
REMARK  5 active torsions:
REMARK  status: ('A' for Active; 'I' for Inactive)
REMARK    1  A    between atoms: C_1  and  C_2
REMARK    2  A    between atoms: C_3  and  C_15
REMARK    3  A    between atoms: N_6  and  C_8
REMARK    4  A    between atoms: N_16  and  N_17
REMARK    5  A    between atoms: C_18  and  C_20
REMARK                            x       y       z     vdW  Elec       q    Type
REMARK                         _______ _______ _______ _____ _____    ______ ____
ROOT
ATOM      1  C   UNL     1      -2.442  -0.325   0.013  0.00  0.00    +0.138 C 
ATOM      2  N   UNL     1      -2.701   0.954   0.021  0.00  0.00    -0.188 NA
ENDROOT
BRANCH   1   5
ATOM      3  C   UNL     1      -0.018   1.503   0.010  0.00  0.00    +0.062 C 
ATOM      4  C   UNL     1       0.002  -0.004   0.002  0.00  0.00    +0.027 C 
ATOM      5  C   UNL     1      -1.099  -0.775   0.003  0.00  0.00    +0.027 C 
ATOM      6  C   UNL     1      -0.633  -2.214  -0.008  0.00  0.00    +0.218 C 
ATOM      7  N   UNL     1       0.837  -2.125  -0.015  0.00  0.00    -0.231 N 
ATOM      8  N   UNL     1       1.144  -0.758  -0.013  0.00  0.00    -0.266 N 
ATOM      9 CL   UNL     1      -1.222  -3.056  -1.490  0.00  0.00    -0.094 Cl
ATOM     10  H   UNL     1       2.043  -0.395  -0.020  0.00  0.00    +0.170 HD
BRANCH   7  11
ATOM     11  C   UNL     1       1.742  -3.188  -0.026  0.00  0.00    +0.050 A 
ATOM     12  C   UNL     1       1.278  -4.497  -0.037  0.00  0.00    +0.025 A 
ATOM     13  C   UNL     1       2.176  -5.546  -0.048  0.00  0.00    +0.002 A 
ATOM     14  C   UNL     1       3.536  -5.295  -0.048  0.00  0.00    +0.000 A 
ATOM     15  C   UNL     1       4.001  -3.993  -0.037  0.00  0.00    +0.002 A 
ATOM     16  C   UNL     1       3.109  -2.939  -0.031  0.00  0.00    +0.025 A 
ENDBRANCH   7  11
ENDBRANCH   1   5
BRANCH   2  17
ATOM     17  N   UNL     1      -4.030   1.399   0.030  0.00  0.00    -0.203 N 
ATOM     18  C   UNL     1      -4.298   2.720   0.039  0.00  0.00    +0.262 C 
ATOM     19  O   UNL     1      -3.385   3.526   0.039  0.00  0.00    -0.269 OA
ATOM     20  H   UNL     1      -4.756   0.756   0.031  0.00  0.00    +0.178 HD
BRANCH  18  21
ATOM     21  C   UNL     1      -5.686   3.185   0.049  0.00  0.00    +0.044 C 
ATOM     22  C   UNL     1      -6.127   4.493   0.053  0.00  0.00    +0.008 A 
ATOM     23  C   UNL     1      -5.449   5.737   0.050  0.00  0.00    +0.010 A 
ATOM     24  C   UNL     1      -6.149   6.893   0.056  0.00  0.00    +0.001 A 
ATOM     25  C   UNL     1      -7.551   6.924   0.067  0.00  0.00    +0.002 A 
ATOM     26  C   UNL     1      -8.292   5.793   0.070  0.00  0.00    +0.026 A 
ATOM     27  C   UNL     1      -7.609   4.491   0.063  0.00  0.00    +0.043 A 
ATOM     28  N   UNL     1      -8.064   3.268   0.066  0.00  0.00    -0.380 N 
ATOM     29  C   UNL     1      -6.935   2.332   0.050  0.00  0.00    +0.154 C 
ATOM     30  H   UNL     1      -9.002   3.017   0.072  0.00  0.00    +0.160 HD
ENDBRANCH  18  21
ENDBRANCH   2  17
TORSDOF 4
