REMARK  Name = ZINC58938397
REMARK  7 active torsions:
REMARK  status: ('A' for Active; 'I' for Inactive)
REMARK    1  A    between atoms: C_1  and  N_2
REMARK    2  A    between atoms: C_5  and  C_21
REMARK    3  A    between atoms: N_7  and  C_10
REMARK    4  A    between atoms: C_10  and  C_11
REMARK    5  A    between atoms: C_11  and  C_12
REMARK    6  A    between atoms: C_21  and  C_22
REMARK    7  A    between atoms: N_24  and  C_25
REMARK                            x       y       z     vdW  Elec       q    Type
REMARK                         _______ _______ _______ _____ _____    ______ ____
ROOT
ATOM      1  C   UNL     1       0.398   1.419   0.236  0.00  0.00    +0.140 C 
ATOM      2  N   UNL     1       0.248  -0.035   0.137  0.00  0.00    -0.255 N 
ATOM      3  C   UNL     1      -0.938  -0.676   0.149  0.00  0.00    +0.242 C 
ATOM      4  O   UNL     1      -2.039  -0.177   0.242  0.00  0.00    -0.273 OA
ATOM      5  C   UNL     1      -0.608  -2.150   0.022  0.00  0.00    +0.170 C 
ATOM      6  N   UNL     1       0.864  -2.170  -0.054  0.00  0.00    -0.300 N 
ATOM      7  C   UNL     1       1.270  -0.889   0.015  0.00  0.00    +0.142 C 
ATOM      8  S   UNL     1       2.912  -0.408  -0.040  0.00  0.00    -0.018 S 
ENDROOT
BRANCH   6   9
ATOM      9  C   UNL     1       1.717  -3.353  -0.185  0.00  0.00    +0.112 C 
BRANCH   9  10
ATOM     10  C   UNL     1       2.041  -3.587  -1.662  0.00  0.00    +0.054 C 
BRANCH  10  11
ATOM     11  C   UNL     1       2.919  -4.805  -1.797  0.00  0.00    -0.042 A 
ATOM     12  C   UNL     1       4.294  -4.672  -1.749  0.00  0.00    +0.007 A 
ATOM     13  C   UNL     1       5.104  -5.785  -1.872  0.00  0.00    +0.050 A 
ATOM     14  C   UNL     1       4.538  -7.038  -2.044  0.00  0.00    +0.166 A 
ATOM     15  C   UNL     1       3.153  -7.172  -2.092  0.00  0.00    +0.166 A 
ATOM     16  C   UNL     1       2.347  -6.052  -1.963  0.00  0.00    +0.053 A 
ATOM     17  O   UNL     1       2.848  -8.491  -2.267  0.00  0.00    -0.453 OA
ATOM     18  C   UNL     1       4.062  -9.108  -2.734  0.00  0.00    +0.466 C 
ATOM     19  O   UNL     1       5.101  -8.274  -2.188  0.00  0.00    -0.453 OA
ENDBRANCH  10  11
ENDBRANCH   9  10
ENDBRANCH   6   9
BRANCH   5  20
ATOM     20  C   UNL     1      -1.096  -2.918   1.252  0.00  0.00    +0.128 C 
BRANCH  20  21
ATOM     21  C   UNL     1      -2.603  -2.900   1.290  0.00  0.00    +0.219 C 
ATOM     22  O   UNL     1      -3.227  -2.438   0.358  0.00  0.00    -0.275 OA
ATOM     23  N   UNL     1      -3.256  -3.396   2.359  0.00  0.00    -0.285 N 
ATOM     24  H   UNL     1      -2.761  -3.826   3.073  0.00  0.00    +0.155 HD
BRANCH  23  25
ATOM     25  C   UNL     1      -4.650  -3.291   2.438  0.00  0.00    +0.033 A 
ATOM     26  C   UNL     1      -5.262  -3.083   3.667  0.00  0.00    +0.025 A 
ATOM     27  C   UNL     1      -6.638  -2.979   3.742  0.00  0.00    +0.022 A 
ATOM     28  C   UNL     1      -7.405  -3.083   2.595  0.00  0.00    +0.041 A 
ATOM     29  C   UNL     1      -6.796  -3.290   1.370  0.00  0.00    +0.022 A 
ATOM     30  C   UNL     1      -5.421  -3.389   1.288  0.00  0.00    +0.025 A 
ATOM     31 CL   UNL     1      -9.133  -2.953   2.694  0.00  0.00    -0.084 Cl
ENDBRANCH  23  25
ENDBRANCH  20  21
ENDBRANCH   5  20
TORSDOF 6
