REMARK  Name = ZINC14653644
REMARK  10 active torsions:
REMARK  status: ('A' for Active; 'I' for Inactive)
REMARK    1  A    between atoms: C_1  and  C_2
REMARK    2  A    between atoms: C_2  and  C_3
REMARK    3  A    between atoms: C_3  and  C_4
REMARK    4  A    between atoms: C_4  and  N_5
REMARK    5  A    between atoms: C_6  and  N_32
REMARK    6  A    between atoms: C_7  and  N_14
REMARK    7  A    between atoms: N_14  and  C_15
REMARK    8  A    between atoms: C_15  and  C_16
REMARK    9  A    between atoms: C_21  and  C_23
REMARK   10  A    between atoms: C_24  and  C_25
REMARK                            x       y       z     vdW  Elec       q    Type
REMARK                         _______ _______ _______ _____ _____    ______ ____
ROOT
ATOM      1  N   UNL     1       0.004  -2.946  -2.389  0.00  0.00    -0.253 N 
ATOM      2  C   UNL     1       0.086  -2.336  -3.588  0.00  0.00    +0.244 C 
ATOM      3  O   UNL     1       0.103  -1.120  -3.653  0.00  0.00    -0.270 OA
ENDROOT
BRANCH   1   6
ATOM      4  N   UNL     1       0.615  -1.376   0.876  0.00  0.00    -0.280 N 
ATOM      5  C   UNL     1       0.818  -2.128  -0.258  0.00  0.00    +0.127 A 
ATOM      6  C   UNL     1      -0.172  -2.179  -1.219  0.00  0.00    +0.140 A 
ATOM      7  C   UNL     1      -1.357  -1.449  -1.013  0.00  0.00    +0.277 A 
ATOM      8  O   UNL     1      -2.246  -1.473  -1.847  0.00  0.00    -0.266 OA
ATOM      9  N   UNL     1      -1.504  -0.724   0.113  0.00  0.00    -0.273 N 
ATOM     10  H   UNL     1      -2.345  -0.204   0.261  0.00  0.00    +0.173 HD
ATOM     11  C   UNL     1      -0.531  -0.690   1.041  0.00  0.00    +0.331 A 
ATOM     12  O   UNL     1      -0.689  -0.027   2.048  0.00  0.00    -0.246 OA
BRANCH   5  13
ATOM     13  N   UNL     1       1.990  -2.825  -0.429  0.00  0.00    -0.343 N 
ATOM     14  H   UNL     1       2.692  -2.764   0.237  0.00  0.00    +0.144 HD
ATOM     15  H   UNL     1       2.115  -3.378  -1.216  0.00  0.00    +0.144 HD
ENDBRANCH   5  13
BRANCH   4  16
ATOM     16  C   UNL     1       1.654  -1.316   1.906  0.00  0.00    +0.128 C 
BRANCH  16  17
ATOM     17  C   UNL     1       1.428  -2.436   2.924  0.00  0.00    +0.021 C 
BRANCH  17  19
ATOM     18  C   UNL     1       2.287  -3.494   5.018  0.00  0.00    +0.004 C 
ATOM     19  C   UNL     1       2.514  -2.374   4.000  0.00  0.00    -0.002 C 
ENDBRANCH  17  19
ENDBRANCH  16  17
ENDBRANCH   4  16
ENDBRANCH   1   6
BRANCH   2  20
ATOM     20  C   UNL     1       0.153  -3.135  -4.813  0.00  0.00    +0.068 C 
ATOM     21  C   UNL     1       0.234  -2.525  -6.013  0.00  0.00    +0.013 C 
BRANCH  21  22
ATOM     22  C   UNL     1       0.301  -3.329  -7.244  0.00  0.00    -0.024 A 
ATOM     23  C   UNL     1       0.287  -4.726  -7.173  0.00  0.00    +0.008 A 
ATOM     24  C   UNL     1       0.346  -5.472  -8.331  0.00  0.00    +0.002 A 
ATOM     25  C   UNL     1       0.429  -4.843  -9.561  0.00  0.00    +0.015 A 
ATOM     26  C   UNL     1       0.449  -3.461  -9.639  0.00  0.00    +0.018 A 
ATOM     27  C   UNL     1       0.385  -2.700  -8.490  0.00  0.00    +0.023 A 
ATOM     28 BR   UNL     1       0.563  -2.613 -11.326  0.00  0.00    -0.050 Br
ENDBRANCH  21  22
ENDBRANCH   2  20
BRANCH   1  29
ATOM     29  C   UNL     1       0.099  -4.405  -2.302  0.00  0.00    +0.188 C 
BRANCH  29  30
ATOM     30  C   UNL     1      -1.284  -5.002  -2.336  0.00  0.00    +0.122 A 
ATOM     31  C   UNL     1      -1.953  -5.375  -3.442  0.00  0.00    +0.046 A 
ATOM     32  C   UNL     1      -3.203  -5.878  -3.015  0.00  0.00    +0.041 A 
ATOM     33  C   UNL     1      -3.224  -5.782  -1.673  0.00  0.00    +0.195 A 
ATOM     34  O   UNL     1      -2.057  -5.256  -1.267  0.00  0.00    -0.466 OA
ENDBRANCH  29  30
ENDBRANCH   1  29
TORSDOF 9
