REMARK  Name = CHEMBL217117
REMARK  9 active torsions:
REMARK  status: ('A' for Active; 'I' for Inactive)
REMARK    1  A    between atoms: CB_1  and  CA_2
REMARK    2  A    between atoms: CA_2  and  C_3
REMARK    3  A    between atoms: CA_2  and  N_5
REMARK    4  A    between atoms: C_3  and  O_4
REMARK    5  A    between atoms: C_6  and  C_7
REMARK    6  A    between atoms: C_11  and  N_12
REMARK    7  A    between atoms: N_12  and  C_13
REMARK    8  A    between atoms: C_16  and  S_19
REMARK    9  A    between atoms: S_19  and  C_22
REMARK                            x       y       z     vdW  Elec       q    Type
REMARK                         _______ _______ _______ _____ _____    ______ ____
ROOT
ATOM      1  C   UNK A   0       2.745  -2.056   2.254  0.00  0.00    +0.106 A 
ATOM      2  C   UNK A   0       1.885  -2.028   3.350  0.00  0.00    +0.268 A 
ATOM      3  N   UNK A   0       2.288  -1.300   4.409  0.00  0.00    -0.291 N 
ATOM      4  S   UNK A   0       3.769  -0.671   3.956  0.00  0.00    +0.005 S 
ATOM      5  C   UNK A   0       3.921  -1.318   2.417  0.00  0.00    +0.102 A 
ATOM      6  O   UNK A   0       0.824  -2.630   3.351  0.00  0.00    -0.267 OA
ATOM      7  H   UNK A   0       1.821  -1.169   5.249  0.00  0.00    +0.177 HD
ENDROOT
BRANCH   1   9
ATOM      8  N   ALA A   1       1.384  -3.572   0.972  0.00  0.00    -0.368 N 
ATOM      9  C   UNK A   0       2.443  -2.807   1.026  0.00  0.00    +0.105 C 
ATOM     10  N   UNK A   0       3.276  -2.704  -0.069  0.00  0.00    -0.344 N 
ATOM     11  H   UNK A   0       3.033  -3.131  -0.905  0.00  0.00    +0.144 HD
ATOM     12  H   UNK A   0       4.105  -2.206  -0.002  0.00  0.00    +0.144 HD
ATOM     13  H   ALA A   1       0.798  -3.644   1.742  0.00  0.00    +0.161 HD
BRANCH   8  15
ATOM     14  CB  ALA A   1       0.304  -3.426  -1.217  0.00  0.00    +0.032 C 
ATOM     15  CA  ALA A   1       1.082  -4.321  -0.251  0.00  0.00    +0.103 C 
BRANCH  15  16
ATOM     16  C   ALA A   1       0.239  -5.549   0.098  0.00  0.00    +0.180 C 
BRANCH  16  17
ATOM     17  O   ALA A   1      -1.028  -5.128   0.606  0.00  0.00    -0.393 OA
ATOM     18  H   ALA A   1      -1.616  -5.856   0.848  0.00  0.00    +0.209 HD
ENDBRANCH  16  17
ENDBRANCH  15  16
ENDBRANCH   8  15
ENDBRANCH   1   9
BRANCH   5  19
ATOM     19  N   UNK A   0       4.956  -1.158   1.525  0.00  0.00    -0.307 N 
ATOM     20  H   UNK A   0       4.786  -0.782   0.647  0.00  0.00    +0.153 HD
BRANCH  19  21
ATOM     21  C   UNK A   0       6.253  -1.536   1.884  0.00  0.00    +0.032 A 
ATOM     22  C   UNK A   0       6.512  -2.006   3.165  0.00  0.00    +0.025 A 
ATOM     23  C   UNK A   0       7.794  -2.379   3.516  0.00  0.00    +0.029 A 
ATOM     24  C   UNK A   0       8.820  -2.286   2.594  0.00  0.00    +0.094 A 
ATOM     25  C   UNK A   0       8.566  -1.819   1.317  0.00  0.00    +0.029 A 
ATOM     26  C   UNK A   0       7.285  -1.449   0.958  0.00  0.00    +0.025 A 
BRANCH  24  27
ATOM     27  S   UNK A   0      10.455  -2.763   3.046  0.00  0.00    +0.025 S 
ATOM     28  O   UNK A   0      11.336  -2.067   2.176  0.00  0.00    -0.164 OA
ATOM     29  O   UNK A   0      10.534  -2.649   4.461  0.00  0.00    -0.164 OA
BRANCH  27  30
ATOM     30  C   UNK A   0      10.621  -4.476   2.669  0.00  0.00    +0.094 A 
ATOM     31  C   UNK A   0      10.296  -5.427   3.617  0.00  0.00    +0.027 A 
ATOM     32  C   UNK A   0      10.427  -6.771   3.321  0.00  0.00    +0.002 A 
ATOM     33  C   UNK A   0      10.882  -7.163   2.076  0.00  0.00    +0.000 A 
ATOM     34  C   UNK A   0      11.207  -6.212   1.128  0.00  0.00    +0.002 A 
ATOM     35  C   UNK A   0      11.072  -4.868   1.422  0.00  0.00    +0.027 A 
ENDBRANCH  27  30
ENDBRANCH  24  27
ENDBRANCH  19  21
ENDBRANCH   5  19
TORSDOF 8
