REMARK  Name = CHEMBL30763
REMARK  9 active torsions:
REMARK  status: ('A' for Active; 'I' for Inactive)
REMARK    1  A    between atoms: C_1  and  O_2
REMARK    2  A    between atoms: O_2  and  C_3
REMARK    3  A    between atoms: C_8  and  O_9
REMARK    4  A    between atoms: O_9  and  C_10
REMARK    5  A    between atoms: C_13  and  C_29
REMARK    6  A    between atoms: C_14  and  N_15
REMARK    7  A    between atoms: N_15  and  C_16
REMARK    8  A    between atoms: C_20  and  O_22
REMARK    9  A    between atoms: O_22  and  C_23
REMARK                            x       y       z     vdW  Elec       q    Type
REMARK                         _______ _______ _______ _____ _____    ______ ____
ROOT
ATOM      1  C   UNL     1       2.951  -0.785  -1.673  0.00  0.00    +0.162 A 
ATOM      2  C   UNL     1       2.529   0.127  -2.597  0.00  0.00    +0.061 A 
ATOM      3  C   UNL     1       1.863  -0.308  -3.753  0.00  0.00    +0.026 A 
ATOM      4  C   UNL     1       1.631  -1.690  -3.956  0.00  0.00    +0.077 A 
ATOM      5  C   UNL     1       2.074  -2.607  -2.991  0.00  0.00    +0.077 A 
ATOM      6  C   UNL     1       2.730  -2.155  -1.869  0.00  0.00    +0.164 A 
ATOM      7  N   UNL     1       0.996  -2.113  -5.059  0.00  0.00    -0.253 NA
ATOM      8  C   UNL     1       0.572  -1.282  -5.977  0.00  0.00    +0.132 A 
ATOM      9  C   UNL     1       0.760   0.105  -5.858  0.00  0.00    +0.091 A 
ATOM     10  C   UNL     1       1.416   0.614  -4.727  0.00  0.00    +0.060 A 
ENDROOT
BRANCH   1  12
ATOM     11  C   UNL     1       3.790   1.048  -0.412  0.00  0.00    +0.277 C 
ATOM     12  O   UNL     1       3.596  -0.360  -0.554  0.00  0.00    -0.491 OA
ENDBRANCH   1  12
BRANCH   6  13
ATOM     13  O   UNL     1       3.163  -3.046  -0.939  0.00  0.00    -0.491 OA
ATOM     14  C   UNL     1       2.908  -4.428  -1.196  0.00  0.00    +0.277 C 
ENDBRANCH   6  13
BRANCH  10  15
ATOM     15  N   UNL     1       1.620   1.970  -4.572  0.00  0.00    -0.313 N 
ATOM     16  H   UNL     1       0.955   2.512  -4.118  0.00  0.00    +0.152 HD
BRANCH  15  17
ATOM     17  C   UNL     1       2.784   2.564  -5.068  0.00  0.00    +0.035 A 
ATOM     18  C   UNL     1       3.787   1.774  -5.619  0.00  0.00    +0.023 A 
ATOM     19  C   UNL     1       4.937   2.361  -6.110  0.00  0.00    +0.005 A 
ATOM     20  C   UNL     1       5.095   3.733  -6.053  0.00  0.00    +0.046 A 
ATOM     21  C   UNL     1       4.097   4.526  -5.504  0.00  0.00    +0.130 A 
ATOM     22  C   UNL     1       2.938   3.942  -5.016  0.00  0.00    +0.069 A 
BRANCH  21  23
ATOM     23  O   UNL     1       4.253   5.875  -5.449  0.00  0.00    -0.456 OA
BRANCH  23  24
ATOM     24  C   UNL     1       4.840   6.405  -4.344  0.00  0.00    +0.128 A 
ATOM     25  C   UNL     1       5.277   5.573  -3.323  0.00  0.00    +0.046 A 
ATOM     26  C   UNL     1       5.873   6.114  -2.201  0.00  0.00    +0.004 A 
ATOM     27  C   UNL     1       6.034   7.484  -2.094  0.00  0.00    +0.000 A 
ATOM     28  C   UNL     1       5.599   8.314  -3.110  0.00  0.00    +0.004 A 
ATOM     29  C   UNL     1       5.008   7.778  -4.237  0.00  0.00    +0.046 A 
ENDBRANCH  23  24
ENDBRANCH  21  23
ENDBRANCH  15  17
ENDBRANCH  10  15
BRANCH   9  30
ATOM     30  C   UNL     1       0.285   0.989  -6.879  0.00  0.00    +0.103 C 
ATOM     31  N   UNL     1      -0.091   1.691  -7.689  0.00  0.00    -0.191 NA
ENDBRANCH   9  30
TORSDOF 7
