REMARK  Name = CHEMBL199006
REMARK  6 active torsions:
REMARK  status: ('A' for Active; 'I' for Inactive)
REMARK    1  A    between atoms: C_1  and  C_2
REMARK    2  A    between atoms: C_6  and  O_20
REMARK    3  A    between atoms: C_12  and  C_13
REMARK    4  A    between atoms: C_13  and  C_14
REMARK    5  A    between atoms: O_20  and  C_21
REMARK    6  A    between atoms: C_21  and  C_23
REMARK                            x       y       z     vdW  Elec       q    Type
REMARK                         _______ _______ _______ _____ _____    ______ ____
ROOT
ATOM      1  C   UNL     1      -0.104   1.473   0.171  0.00  0.00    +0.045 C 
ATOM      2  C   UNL     1       0.127  -0.016   0.201  0.00  0.00    -0.030 A 
ATOM      3  C   UNL     1       0.203  -0.790  -1.040  0.00  0.00    +0.021 A 
ATOM      4  C   UNL     1       0.064  -0.169  -2.287  0.00  0.00    +0.015 A 
ATOM      5  C   UNL     1       0.139  -0.914  -3.428  0.00  0.00    +0.047 A 
ATOM      6  C   UNL     1       0.353  -2.289  -3.360  0.00  0.00    +0.135 A 
ATOM      7  C   UNL     1       0.493  -2.920  -2.135  0.00  0.00    +0.093 A 
ATOM      8  C   UNL     1       0.420  -2.178  -0.966  0.00  0.00    +0.143 A 
ATOM      9  O   UNL     1       0.555  -2.773   0.239  0.00  0.00    -0.422 OA
ATOM     10  C   UNL     1       0.486  -2.070   1.380  0.00  0.00    +0.341 A 
ATOM     11  O   UNL     1       0.614  -2.650   2.443  0.00  0.00    -0.245 OA
ATOM     12  C   UNL     1       0.277  -0.675   1.379  0.00  0.00    +0.045 A 
ENDROOT
BRANCH  12  13
ATOM     13  C   UNL     1       0.213   0.080   2.681  0.00  0.00    +0.077 C 
BRANCH  13  14
ATOM     14  C   UNL     1       1.608   0.436   3.124  0.00  0.00    -0.043 A 
ATOM     15  C   UNL     1       2.296  -0.404   3.980  0.00  0.00    +0.004 A 
ATOM     16  C   UNL     1       3.577  -0.077   4.387  0.00  0.00    +0.000 A 
ATOM     17  C   UNL     1       4.169   1.088   3.938  0.00  0.00    +0.000 A 
ATOM     18  C   UNL     1       3.481   1.927   3.081  0.00  0.00    +0.000 A 
ATOM     19  C   UNL     1       2.203   1.599   2.671  0.00  0.00    +0.004 A 
ENDBRANCH  13  14
ENDBRANCH  12  13
BRANCH   6  20
ATOM     20  O   UNL     1       0.424  -3.017  -4.505  0.00  0.00    -0.426 OA
BRANCH  20  21
ATOM     21  C   UNL     1      -0.637  -3.767  -4.842  0.00  0.00    +0.315 C 
ATOM     22  O   UNL     1      -1.651  -3.708  -4.188  0.00  0.00    -0.250 OA
BRANCH  21  23
ATOM     23  C   UNL     1      -0.563  -4.684  -6.036  0.00  0.00    +0.098 C 
ATOM     24  C   UNL     1      -1.417  -4.327  -7.254  0.00  0.00    +0.015 C 
ATOM     25  C   UNL     1      -1.805  -5.513  -6.368  0.00  0.00    +0.015 C 
ENDBRANCH  21  23
ENDBRANCH  20  21
ENDBRANCH   6  20
TORSDOF 5
