REMARK  Name = CHEMBL1170805
REMARK  12 active torsions:
REMARK  status: ('A' for Active; 'I' for Inactive)
REMARK    1  A    between atoms: C_1  and  C_2
REMARK    2  A    between atoms: C_2  and  C_4
REMARK    3  A    between atoms: C_6  and  C_19
REMARK    4  A    between atoms: C_7  and  N_10
REMARK    5  A    between atoms: N_8  and  C_9
REMARK    6  A    between atoms: N_10  and  C_11
REMARK    7  A    between atoms: N_21  and  O_22
REMARK    8  A    between atoms: O_22  and  C_23
REMARK    9  A    between atoms: C_23  and  C_24
REMARK   10  A    between atoms: C_24  and  C_26
REMARK   11  A    between atoms: C_24  and  O_28
REMARK   12  A    between atoms: C_26  and  O_27
REMARK                            x       y       z     vdW  Elec       q    Type
REMARK                         _______ _______ _______ _____ _____    ______ ____
ROOT
ATOM      1  C   UNL     1      -0.381  -0.442  -1.597  0.00  0.00    +0.086 A 
ATOM      2  C   UNL     1      -1.074  -0.368  -2.788  0.00  0.00    +0.045 A 
ATOM      3  C   UNL     1      -0.823  -1.563  -3.490  0.00  0.00    +0.079 A 
ATOM      4  C   UNL     1       0.026  -2.339  -2.695  0.00  0.00    +0.116 A 
ATOM      5  N   UNL     1       0.292  -1.655  -1.562  0.00  0.00    -0.329 N 
ATOM      6  C   UNL     1       1.149  -2.120  -0.469  0.00  0.00    +0.150 C 
ENDROOT
BRANCH   3   7
ATOM      7  C   UNL     1      -1.354  -1.927  -4.810  0.00  0.00    +0.270 C 
ATOM      8  O   UNL     1      -1.060  -2.996  -5.310  0.00  0.00    -0.268 OA
ATOM      9  N   UNL     1      -2.168  -1.076  -5.466  0.00  0.00    -0.190 N 
ATOM     10  H   UNL     1      -2.402  -0.224  -5.067  0.00  0.00    +0.183 HD
BRANCH   9  11
ATOM     11  O   UNL     1      -2.680  -1.427  -6.739  0.00  0.00    -0.277 OA
BRANCH  11  12
ATOM     12  C   UNL     1      -3.527  -0.433  -7.319  0.00  0.00    +0.223 C 
BRANCH  12  13
ATOM     13  C   UNL     1      -4.020  -0.916  -8.684  0.00  0.00    +0.168 C 
BRANCH  13  14
ATOM     14  O   UNL     1      -4.850  -2.066  -8.511  0.00  0.00    -0.387 OA
ATOM     15  H   UNL     1      -5.632  -1.908  -7.965  0.00  0.00    +0.210 HD
ENDBRANCH  13  14
BRANCH  13  16
ATOM     16  C   UNL     1      -4.824   0.197  -9.359  0.00  0.00    +0.189 C 
BRANCH  16  17
ATOM     17  O   UNL     1      -5.186  -0.210 -10.680  0.00  0.00    -0.392 OA
ATOM     18  H   UNL     1      -5.699   0.448 -11.168  0.00  0.00    +0.210 HD
ENDBRANCH  16  17
ENDBRANCH  13  16
ENDBRANCH  12  13
ENDBRANCH  11  12
ENDBRANCH   9  11
ENDBRANCH   3   7
BRANCH   1  20
ATOM     19  C   UNL     1      -1.141   1.820  -0.770  0.00  0.00    +0.093 C 
ATOM     20  C   UNL     1      -0.356   0.546  -0.593  0.00  0.00    +0.176 C 
ATOM     21  O   UNL     1       0.298   0.370   0.416  0.00  0.00    -0.291 OA
ENDBRANCH   1  20
BRANCH   4  22
ATOM     22  N   UNL     1       0.513  -3.582  -3.015  0.00  0.00    -0.298 N 
ATOM     23  H   UNL     1       1.144  -3.683  -3.744  0.00  0.00    +0.154 HD
BRANCH  22  24
ATOM     24  C   UNL     1       0.097  -4.704  -2.289  0.00  0.00    +0.068 A 
ATOM     25  C   UNL     1      -0.711  -4.549  -1.171  0.00  0.00    +0.027 A 
ATOM     26  C   UNL     1      -1.120  -5.658  -0.456  0.00  0.00    +0.016 A 
ATOM     27  C   UNL     1      -0.726  -6.924  -0.853  0.00  0.00    +0.016 A 
ATOM     28  C   UNL     1       0.079  -7.083  -1.967  0.00  0.00    +0.054 A 
ATOM     29  C   UNL     1       0.488  -5.977  -2.690  0.00  0.00    +0.145 A 
ATOM     30  F   UNL     1       1.270  -6.133  -3.780  0.00  0.00    -0.204 F 
ATOM     31  I   UNL     1      -1.348  -8.602   0.235  0.00  0.00    -0.044 I 
ENDBRANCH  22  24
ENDBRANCH   4  22
TORSDOF 10
