REMARK  Name = CHEMBL217310
REMARK  9 active torsions:
REMARK  status: ('A' for Active; 'I' for Inactive)
REMARK    1  A    between atoms: CB_1  and  CA_2
REMARK    2  A    between atoms: CA_2  and  C_3
REMARK    3  A    between atoms: CA_2  and  N_5
REMARK    4  A    between atoms: C_3  and  O_4
REMARK    5  A    between atoms: C_6  and  C_7
REMARK    6  A    between atoms: C_11  and  N_12
REMARK    7  A    between atoms: N_12  and  C_13
REMARK    8  A    between atoms: C_16  and  C_19
REMARK    9  A    between atoms: C_19  and  C_20
REMARK                            x       y       z     vdW  Elec       q    Type
REMARK                         _______ _______ _______ _____ _____    ______ ____
ROOT
ATOM      1  C   UNK A   0       2.944  -0.305  -2.972  0.00  0.00    +0.106 A 
ATOM      2  C   UNK A   0       2.047  -0.894  -3.862  0.00  0.00    +0.268 A 
ATOM      3  N   UNK A   0       2.304  -2.167  -4.216  0.00  0.00    -0.291 N 
ATOM      4  S   UNK A   0       3.700  -2.567  -3.387  0.00  0.00    +0.005 S 
ATOM      5  C   UNK A   0       3.999  -1.132  -2.574  0.00  0.00    +0.102 A 
ATOM      6  O   UNK A   0       1.081  -0.288  -4.297  0.00  0.00    -0.267 OA
ATOM      7  H   UNK A   0       1.792  -2.729  -4.819  0.00  0.00    +0.177 HD
ENDROOT
BRANCH   1   9
ATOM      8  N   ALA A   1       1.856   1.843  -2.987  0.00  0.00    -0.368 N 
ATOM      9  C   UNK A   0       2.796   1.079  -2.495  0.00  0.00    +0.105 C 
ATOM     10  N   UNK A   0       3.649   1.570  -1.528  0.00  0.00    -0.344 N 
ATOM     11  H   UNK A   0       3.503   2.454  -1.156  0.00  0.00    +0.144 HD
ATOM     12  H   UNK A   0       4.394   1.031  -1.220  0.00  0.00    +0.144 HD
ATOM     13  H   ALA A   1       1.256   1.498  -3.667  0.00  0.00    +0.161 HD
BRANCH   8  15
ATOM     14  CB  ALA A   1       2.656   4.134  -3.292  0.00  0.00    +0.032 C 
ATOM     15  CA  ALA A   1       1.708   3.221  -2.512  0.00  0.00    +0.103 C 
BRANCH  15  16
ATOM     16  C   ALA A   1       0.265   3.682  -2.725  0.00  0.00    +0.180 C 
BRANCH  16  17
ATOM     17  O   ALA A   1      -0.017   3.733  -4.125  0.00  0.00    -0.393 OA
ATOM     18  H   ALA A   1      -0.917   4.018  -4.335  0.00  0.00    +0.209 HD
ENDBRANCH  16  17
ENDBRANCH  15  16
ENDBRANCH   8  15
ENDBRANCH   1   9
BRANCH   5  19
ATOM     19  N   UNK A   0       5.034  -0.838  -1.718  0.00  0.00    -0.307 N 
ATOM     20  H   UNK A   0       4.846  -0.562  -0.808  0.00  0.00    +0.153 HD
BRANCH  19  21
ATOM     21  C   UNK A   0       6.356  -0.938  -2.160  0.00  0.00    +0.032 A 
ATOM     22  C   UNK A   0       6.629  -1.406  -3.440  0.00  0.00    +0.023 A 
ATOM     23  C   UNK A   0       7.937  -1.503  -3.873  0.00  0.00    +0.006 A 
ATOM     24  C   UNK A   0       8.974  -1.136  -3.036  0.00  0.00    -0.043 A 
ATOM     25  C   UNK A   0       8.706  -0.670  -1.762  0.00  0.00    +0.006 A 
ATOM     26  C   UNK A   0       7.400  -0.565  -1.323  0.00  0.00    +0.023 A 
BRANCH  24  27
ATOM     27  C   UNK A   0      10.399  -1.244  -3.512  0.00  0.00    +0.070 C 
BRANCH  27  28
ATOM     28  C   UNK A   0      10.808   0.048  -4.171  0.00  0.00    -0.043 A 
ATOM     29  C   UNK A   0      10.607   0.227  -5.527  0.00  0.00    +0.004 A 
ATOM     30  C   UNK A   0      10.982   1.412  -6.131  0.00  0.00    +0.000 A 
ATOM     31  C   UNK A   0      11.558   2.419  -5.380  0.00  0.00    +0.000 A 
ATOM     32  C   UNK A   0      11.759   2.241  -4.024  0.00  0.00    +0.000 A 
ATOM     33  C   UNK A   0      11.380   1.057  -3.418  0.00  0.00    +0.004 A 
ENDBRANCH  27  28
ENDBRANCH  24  27
ENDBRANCH  19  21
ENDBRANCH   5  19
TORSDOF 8
