REMARK  Name = CHEMBL201833
REMARK  10 active torsions:
REMARK  status: ('A' for Active; 'I' for Inactive)
REMARK    1  A    between atoms: C_1  and  C_2
REMARK    2  A    between atoms: C_3  and  C_27
REMARK    3  A    between atoms: C_7  and  N_13
REMARK    4  A    between atoms: C_8  and  C_11
REMARK    5  A    between atoms: N_13  and  C_14
REMARK    6  A    between atoms: C_17  and  O_20
REMARK    7  A    between atoms: O_20  and  C_21
REMARK    8  A    between atoms: N_29  and  C_30
REMARK    9  A    between atoms: C_30  and  C_31
REMARK   10  A    between atoms: C_31  and  N_32
REMARK                            x       y       z     vdW  Elec       q    Type
REMARK                         _______ _______ _______ _____ _____    ______ ____
ROOT
ATOM      1  C   UNL     1      -0.885   1.704  -0.173  0.00  0.00    +0.047 C 
ATOM      2  C   UNL     1      -0.811   0.201  -0.243  0.00  0.00    -0.010 A 
ATOM      3  C   UNL     1      -1.074  -0.602  -1.371  0.00  0.00    +0.060 A 
ATOM      4  C   UNL     1      -0.886  -1.920  -0.989  0.00  0.00    +0.126 A 
ATOM      5  N   UNL     1      -0.525  -1.950   0.307  0.00  0.00    -0.237 N 
ATOM      6  C   UNL     1      -0.467  -0.655   0.784  0.00  0.00    +0.091 A 
ATOM      7  C   UNL     1      -0.099  -0.425   2.131  0.00  0.00    +0.076 A 
ATOM      8  C   UNL     1       0.199  -1.527   2.942  0.00  0.00    +0.095 A 
ATOM      9  C   UNL     1       0.126  -2.830   2.396  0.00  0.00    +0.154 A 
ATOM     10  N   UNL     1      -0.222  -3.022   1.157  0.00  0.00    -0.173 NA
ENDROOT
BRANCH   3  11
ATOM     11  C   UNL     1      -1.475  -0.127  -2.708  0.00  0.00    +0.246 C 
ATOM     12  O   UNL     1      -1.606   1.063  -2.916  0.00  0.00    -0.270 OA
ATOM     13  N   UNL     1      -1.695  -1.013  -3.700  0.00  0.00    -0.313 N 
ATOM     14  H   UNL     1      -1.589  -1.963  -3.534  0.00  0.00    +0.149 HD
BRANCH  13  15
ATOM     15  C   UNL     1      -2.092  -0.542  -5.028  0.00  0.00    +0.086 C 
BRANCH  15  16
ATOM     16  C   UNL     1      -2.277  -1.740  -5.961  0.00  0.00    -0.060 C 
BRANCH  16  17
ATOM     17  N   UNL     1      -2.676  -1.267  -7.293  0.00  0.00    +0.384 N 
ATOM     18  C   UNL     1      -3.998  -0.632  -7.212  0.00  0.00    -0.050 C 
ATOM     19  C   UNL     1      -4.412  -0.140  -8.601  0.00  0.00    +0.141 C 
ATOM     20  O   UNL     1      -4.414  -1.244  -9.511  0.00  0.00    -0.383 OA
ATOM     21  C   UNL     1      -3.152  -1.911  -9.607  0.00  0.00    +0.141 C 
ATOM     22  C   UNL     1      -2.736  -2.406  -8.220  0.00  0.00    -0.050 C 
ATOM     23  H   UNL     1      -2.000  -0.597  -7.629  0.00  0.00    -0.082 HD
ENDBRANCH  16  17
ENDBRANCH  15  16
ENDBRANCH  13  15
ENDBRANCH   3  11
BRANCH   8  24
ATOM     24  C   UNL     1       0.575  -1.337   4.310  0.00  0.00    +0.103 C 
ATOM     25  N   UNL     1       0.874  -1.186   5.396  0.00  0.00    -0.191 NA
ENDBRANCH   8  24
BRANCH   7  26
ATOM     26  N   UNL     1      -0.036   0.857   2.635  0.00  0.00    -0.312 N 
ATOM     27  H   UNL     1      -0.645   1.133   3.338  0.00  0.00    +0.152 HD
BRANCH  26  28
ATOM     28  C   UNL     1       0.906   1.761   2.132  0.00  0.00    +0.032 A 
ATOM     29  C   UNL     1       1.866   1.331   1.225  0.00  0.00    +0.027 A 
ATOM     30  C   UNL     1       2.796   2.223   0.729  0.00  0.00    +0.048 A 
ATOM     31  C   UNL     1       2.772   3.549   1.137  0.00  0.00    +0.129 A 
ATOM     32  C   UNL     1       1.814   3.979   2.044  0.00  0.00    +0.048 A 
ATOM     33  C   UNL     1       0.880   3.090   2.536  0.00  0.00    +0.027 A 
BRANCH  31  34
ATOM     34  O   UNL     1       3.688   4.426   0.649  0.00  0.00    -0.456 OA
BRANCH  34  35
ATOM     35  C   UNL     1       3.686   5.692   1.144  0.00  0.00    +0.128 A 
ATOM     36  C   UNL     1       4.301   5.965   2.357  0.00  0.00    +0.046 A 
ATOM     37  C   UNL     1       4.298   7.252   2.858  0.00  0.00    +0.004 A 
ATOM     38  C   UNL     1       3.682   8.269   2.151  0.00  0.00    +0.000 A 
ATOM     39  C   UNL     1       3.068   7.999   0.942  0.00  0.00    +0.004 A 
ATOM     40  C   UNL     1       3.074   6.715   0.434  0.00  0.00    +0.046 A 
ENDBRANCH  34  35
ENDBRANCH  31  34
ENDBRANCH  26  28
ENDBRANCH   7  26
TORSDOF 9
