REMARK  Name = CHEMBL485615
REMARK  16 active torsions:
REMARK  status: ('A' for Active; 'I' for Inactive)
REMARK    1  A    between atoms: C_1  and  C_2
REMARK    2  A    between atoms: C_2  and  N_3
REMARK    3  A    between atoms: N_3  and  C_4
REMARK    4  A    between atoms: N_3  and  C_6
REMARK    5  A    between atoms: C_4  and  C_5
REMARK    6  A    between atoms: C_6  and  C_7
REMARK    7  A    between atoms: C_7  and  C_8
REMARK    8  A    between atoms: C_9  and  C_10
REMARK    9  A    between atoms: C_15  and  O_16
REMARK   10  A    between atoms: O_16  and  C_17
REMARK   11  A    between atoms: C_18  and  N_24
REMARK   12  A    between atoms: C_19  and  C_22
REMARK   13  A    between atoms: N_24  and  C_25
REMARK   14  A    between atoms: C_28  and  S_32
REMARK   15  A    between atoms: S_32  and  C_33
REMARK   16  A    between atoms: N_37  and  C_38
REMARK                            x       y       z     vdW  Elec       q    Type
REMARK                         _______ _______ _______ _____ _____    ______ ____
ROOT
ATOM      1  C   UNL     1       1.486  -8.583  -0.304  0.00  0.00    +0.018 A 
ATOM      2  C   UNL     1       0.423  -8.286   0.534  0.00  0.00    +0.040 A 
ATOM      3  C   UNL     1       0.513  -8.584   1.901  0.00  0.00    +0.074 A 
ATOM      4  C   UNL     1       1.693  -9.186   2.401  0.00  0.00    +0.026 A 
ATOM      5  C   UNL     1       2.756  -9.478   1.535  0.00  0.00    +0.058 A 
ATOM      6  C   UNL     1       2.652  -9.186   0.205  0.00  0.00    +0.128 A 
ATOM      7  C   UNL     1       1.778  -9.484   3.782  0.00  0.00    +0.060 A 
ATOM      8  C   UNL     1       0.677  -9.165   4.590  0.00  0.00    +0.091 A 
ATOM      9  C   UNL     1      -0.454  -8.569   4.007  0.00  0.00    +0.132 A 
ATOM     10  N   UNL     1      -0.506  -8.304   2.727  0.00  0.00    -0.254 NA
ENDROOT
BRANCH   1  12
ATOM     11  C   UNL     1       0.296  -7.701  -2.230  0.00  0.00    -0.028 C 
ATOM     12  C   UNL     1       1.392  -8.270  -1.745  0.00  0.00    +0.007 C 
BRANCH  11  13
ATOM     13  C   UNL     1       0.201  -7.381  -3.700  0.00  0.00    +0.008 C 
BRANCH  13  14
ATOM     14  C   UNL     1      -1.055  -8.033  -4.283  0.00  0.00    -0.075 C 
BRANCH  14  15
ATOM     15  N   UNL     1      -1.147  -7.721  -5.716  0.00  0.00    +0.380 N 
ATOM     16  H   UNL     1      -1.116  -6.721  -5.845  0.00  0.00    -0.082 HD
BRANCH  15  18
ATOM     17  C   UNL     1      -0.042  -7.909  -7.893  0.00  0.00    -0.017 C 
ATOM     18  C   UNL     1      -0.022  -8.343  -6.426  0.00  0.00    -0.082 C 
ENDBRANCH  15  18
BRANCH  15  19
ATOM     19  C   UNL     1      -2.412  -8.245  -6.250  0.00  0.00    -0.082 C 
ATOM     20  C   UNL     1      -3.584  -7.491  -5.617  0.00  0.00    -0.017 C 
ENDBRANCH  15  19
ENDBRANCH  14  15
ENDBRANCH  13  14
ENDBRANCH  11  13
ENDBRANCH   1  12
BRANCH   6  21
ATOM     21  O   UNL     1       3.682  -9.476  -0.631  0.00  0.00    -0.495 OA
ATOM     22  C   UNL     1       4.836 -10.088  -0.052  0.00  0.00    +0.277 C 
ENDBRANCH   6  21
BRANCH   8  23
ATOM     23  C   UNL     1       0.704  -9.444   5.994  0.00  0.00    +0.103 C 
ATOM     24  N   UNL     1       0.726  -9.665   7.108  0.00  0.00    -0.191 NA
ENDBRANCH   8  23
BRANCH   7  25
ATOM     25  N   UNL     1       2.907 -10.071   4.316  0.00  0.00    -0.313 N 
ATOM     26  H   UNL     1       3.598  -9.520   4.715  0.00  0.00    +0.152 HD
BRANCH  25  27
ATOM     27  C   UNL     1       3.055 -11.462   4.282  0.00  0.00    +0.033 A 
ATOM     28  C   UNL     1       2.068 -12.252   3.705  0.00  0.00    +0.024 A 
ATOM     29  C   UNL     1       2.214 -13.624   3.672  0.00  0.00    +0.018 A 
ATOM     30  C   UNL     1       3.348 -14.216   4.214  0.00  0.00    +0.034 A 
ATOM     31  C   UNL     1       4.335 -13.427   4.791  0.00  0.00    +0.057 A 
ATOM     32  C   UNL     1       4.192 -12.053   4.820  0.00  0.00    +0.044 A 
ATOM     33 CL   UNL     1       5.752 -14.166   5.470  0.00  0.00    -0.082 Cl
BRANCH  30  34
ATOM     34  S   UNL     1       3.533 -15.968   4.172  0.00  0.00    -0.050 S 
BRANCH  34  35
ATOM     35  C   UNL     1       4.696 -16.243   2.877  0.00  0.00    +0.173 A 
ATOM     36  N   UNL     1       5.326 -15.311   2.201  0.00  0.00    -0.230 NA
ATOM     37  C   UNL     1       6.132 -15.888   1.294  0.00  0.00    +0.131 A 
ATOM     38  C   UNL     1       6.004 -17.222   1.404  0.00  0.00    +0.107 A 
ATOM     39  N   UNL     1       5.097 -17.457   2.412  0.00  0.00    -0.328 N 
ATOM     40  C   UNL     1       4.647 -18.766   2.891  0.00  0.00    +0.151 C 
ENDBRANCH  34  35
ENDBRANCH  30  34
ENDBRANCH  25  27
ENDBRANCH   7  25
TORSDOF 12
