REMARK  Name = CHEMBL337728
REMARK  9 active torsions:
REMARK  status: ('A' for Active; 'I' for Inactive)
REMARK    1  A    between atoms: C_1  and  O_2
REMARK    2  A    between atoms: O_2  and  C_3
REMARK    3  A    between atoms: C_12  and  O_13
REMARK    4  A    between atoms: O_13  and  C_14
REMARK    5  A    between atoms: C_17  and  C_33
REMARK    6  A    between atoms: C_18  and  N_19
REMARK    7  A    between atoms: N_19  and  C_20
REMARK    8  A    between atoms: C_23  and  O_26
REMARK    9  A    between atoms: O_26  and  C_27
REMARK                            x       y       z     vdW  Elec       q    Type
REMARK                         _______ _______ _______ _____ _____    ______ ____
ROOT
ATOM      1  C   UNL     1       7.299  -0.778   5.591  0.00  0.00    +0.162 A 
ATOM      2  C   UNL     1       6.281   0.068   5.909  0.00  0.00    +0.058 A 
ATOM      3  C   UNL     1       5.063  -0.457   6.388  0.00  0.00    -0.013 A 
ATOM      4  C   UNL     1       3.999   0.382   6.722  0.00  0.00    +0.020 A 
ATOM      5  C   UNL     1       2.812  -0.170   7.191  0.00  0.00    +0.023 A 
ATOM      6  C   UNL     1       2.670  -1.621   7.336  0.00  0.00    +0.073 A 
ATOM      7  C   UNL     1       3.730  -2.458   7.003  0.00  0.00    +0.037 A 
ATOM      8  C   UNL     1       4.925  -1.910   6.532  0.00  0.00    -0.012 A 
ATOM      9  C   UNL     1       6.015  -2.733   6.186  0.00  0.00    +0.058 A 
ATOM     10  C   UNL     1       7.165  -2.169   5.724  0.00  0.00    +0.162 A 
ATOM     11  N   UNL     1       1.511  -2.132   7.791  0.00  0.00    -0.254 NA
ATOM     12  C   UNL     1       0.499  -1.371   8.111  0.00  0.00    +0.132 A 
ATOM     13  C   UNL     1       0.546   0.029   8.004  0.00  0.00    +0.091 A 
ATOM     14  C   UNL     1       1.710   0.656   7.539  0.00  0.00    +0.060 A 
ENDROOT
BRANCH   1  16
ATOM     15  C   UNL     1       8.553   1.158   5.014  0.00  0.00    +0.277 C 
ATOM     16  O   UNL     1       8.470  -0.264   5.130  0.00  0.00    -0.491 OA
ENDBRANCH   1  16
BRANCH  10  17
ATOM     17  O   UNL     1       8.210  -2.971   5.388  0.00  0.00    -0.491 OA
ATOM     18  C   UNL     1       8.022  -4.379   5.542  0.00  0.00    +0.277 C 
ENDBRANCH  10  17
BRANCH  14  19
ATOM     19  N   UNL     1       1.783   2.027   7.425  0.00  0.00    -0.313 N 
ATOM     20  H   UNL     1       2.061   2.564   8.184  0.00  0.00    +0.152 HD
BRANCH  19  21
ATOM     21  C   UNL     1       1.456   2.646   6.213  0.00  0.00    +0.032 A 
ATOM     22  C   UNL     1       0.956   1.892   5.160  0.00  0.00    +0.027 A 
ATOM     23  C   UNL     1       0.633   2.503   3.965  0.00  0.00    +0.048 A 
ATOM     24  C   UNL     1       0.809   3.872   3.816  0.00  0.00    +0.129 A 
ATOM     25  C   UNL     1       1.309   4.626   4.867  0.00  0.00    +0.048 A 
ATOM     26  C   UNL     1       1.626   4.017   6.065  0.00  0.00    +0.027 A 
BRANCH  24  27
ATOM     27  O   UNL     1       0.492   4.473   2.638  0.00  0.00    -0.456 OA
BRANCH  27  28
ATOM     28  C   UNL     1       0.659   5.818   2.544  0.00  0.00    +0.128 A 
ATOM     29  C   UNL     1       1.859   6.338   2.078  0.00  0.00    +0.046 A 
ATOM     30  C   UNL     1       2.026   7.706   1.983  0.00  0.00    +0.004 A 
ATOM     31  C   UNL     1       1.001   8.557   2.351  0.00  0.00    +0.000 A 
ATOM     32  C   UNL     1      -0.195   8.041   2.816  0.00  0.00    +0.004 A 
ATOM     33  C   UNL     1      -0.370   6.674   2.908  0.00  0.00    +0.046 A 
ENDBRANCH  27  28
ENDBRANCH  24  27
ENDBRANCH  19  21
ENDBRANCH  14  19
BRANCH  13  34
ATOM     34  C   UNL     1      -0.594   0.814   8.369  0.00  0.00    +0.103 C 
ATOM     35  N   UNL     1      -1.498   1.437   8.659  0.00  0.00    -0.191 NA
ENDBRANCH  13  34
TORSDOF 7
