REMARK  Name = CHEMBL422940
REMARK  8 active torsions:
REMARK  status: ('A' for Active; 'I' for Inactive)
REMARK    1  A    between atoms: C_4  and  C_7
REMARK    2  A    between atoms: C_7  and  C_9
REMARK    3  A    between atoms: C_13  and  C_15
REMARK    4  A    between atoms: C_15  and  C_26
REMARK    5  A    between atoms: C_16  and  N_17
REMARK    6  A    between atoms: C_16  and  S_18
REMARK    7  A    between atoms: S_18  and  C_19
REMARK    8  A    between atoms: C_24  and  N_25
REMARK                            x       y       z     vdW  Elec       q    Type
REMARK                         _______ _______ _______ _____ _____    ______ ____
ROOT
ATOM      1  C   UNL     1       6.313  -4.931   0.381  0.00  0.00    +0.086 C 
ATOM      2  C   UNL     1       6.805  -5.659  -0.693  0.00  0.00    +0.082 C 
ENDROOT
BRANCH   1   7
ATOM      3  C   UNL     1       3.455  -2.478   0.282  0.00  0.00    +0.023 A 
ATOM      4  C   UNL     1       2.361  -3.347   0.239  0.00  0.00    +0.012 A 
ATOM      5  C   UNL     1       2.560  -4.713   0.242  0.00  0.00    +0.001 A 
ATOM      6  C   UNL     1       3.840  -5.230   0.288  0.00  0.00    +0.009 A 
ATOM      7  C   UNL     1       4.942  -4.374   0.331  0.00  0.00    -0.005 A 
ATOM      8  C   UNL     1       4.749  -2.994   0.323  0.00  0.00    +0.021 A 
BRANCH   3   9
ATOM      9  C   UNL     1       3.240  -1.016   0.279  0.00  0.00    +0.193 C 
ATOM     10  O   UNL     1       4.112  -0.275  -0.130  0.00  0.00    -0.287 OA
BRANCH   9  14
ATOM     11  C   UNL     1      -0.424   0.595   1.697  0.00  0.00    +0.000 A 
ATOM     12  C   UNL     1       0.384   1.351   0.866  0.00  0.00    +0.001 A 
ATOM     13  C   UNL     1       1.575   0.834   0.402  0.00  0.00    +0.012 A 
ATOM     14  C   UNL     1       1.966  -0.455   0.773  0.00  0.00    +0.022 A 
ATOM     15  C   UNL     1       1.145  -1.212   1.613  0.00  0.00    +0.012 A 
ATOM     16  C   UNL     1      -0.044  -0.682   2.069  0.00  0.00    +0.001 A 
ENDBRANCH   9  14
ENDBRANCH   3   9
ENDBRANCH   1   7
BRANCH   2  17
ATOM     17  N   UNL     1       8.075  -6.176  -0.647  0.00  0.00    -0.352 N 
ATOM     18  H   UNL     1       8.601  -6.100   0.165  0.00  0.00    +0.143 HD
ATOM     19  H   UNL     1       8.448  -6.617  -1.427  0.00  0.00    +0.143 HD
ENDBRANCH   2  17
BRANCH   1  20
ATOM     20  C   UNL     1       7.131  -4.718   1.536  0.00  0.00    +0.102 C 
ATOM     21  N   UNL     1       7.780  -4.549   2.453  0.00  0.00    -0.191 NA
ENDBRANCH   1  20
BRANCH   2  22
ATOM     22  S   UNL     1       5.798  -5.921  -2.115  0.00  0.00    -0.072 S 
BRANCH  22  23
ATOM     23  C   UNL     1       5.508  -7.659  -2.117  0.00  0.00    +0.035 A 
ATOM     24  C   UNL     1       5.987  -8.446  -1.080  0.00  0.00    +0.017 A 
ATOM     25  C   UNL     1       5.758  -9.809  -1.084  0.00  0.00    +0.001 A 
ATOM     26  C   UNL     1       5.052 -10.393  -2.120  0.00  0.00    +0.002 A 
ATOM     27  C   UNL     1       4.572  -9.617  -3.159  0.00  0.00    +0.024 A 
ATOM     28  C   UNL     1       4.790  -8.247  -3.159  0.00  0.00    +0.039 A 
BRANCH  28  29
ATOM     29  N   UNL     1       4.300  -7.459  -4.206  0.00  0.00    -0.357 N 
ATOM     30  H   UNL     1       4.457  -6.502  -4.207  0.00  0.00    +0.142 HD
ATOM     31  H   UNL     1       3.801  -7.870  -4.930  0.00  0.00    +0.142 HD
ENDBRANCH  28  29
ENDBRANCH  22  23
ENDBRANCH   2  22
TORSDOF 8
