REMARK  Name = CHEMBL37504
REMARK  8 active torsions:
REMARK  status: ('A' for Active; 'I' for Inactive)
REMARK    1  A    between atoms: C_4  and  O_7
REMARK    2  A    between atoms: O_7  and  C_8
REMARK    3  A    between atoms: C_12  and  C_14
REMARK    4  A    between atoms: C_14  and  C_25
REMARK    5  A    between atoms: C_15  and  N_16
REMARK    6  A    between atoms: C_15  and  S_17
REMARK    7  A    between atoms: S_17  and  C_18
REMARK    8  A    between atoms: C_23  and  N_24
REMARK                            x       y       z     vdW  Elec       q    Type
REMARK                         _______ _______ _______ _____ _____    ______ ____
ROOT
ATOM      1  C   UNL     1       6.241  -4.656   0.045  0.00  0.00    +0.086 C 
ATOM      2  C   UNL     1       6.696  -5.509  -0.950  0.00  0.00    +0.082 C 
ENDROOT
BRANCH   1   7
ATOM      3  C   UNL     1       3.544  -2.059  -0.315  0.00  0.00    +0.129 A 
ATOM      4  C   UNL     1       2.404  -2.852  -0.293  0.00  0.00    +0.046 A 
ATOM      5  C   UNL     1       2.513  -4.224  -0.161  0.00  0.00    +0.004 A 
ATOM      6  C   UNL     1       3.756  -4.814  -0.051  0.00  0.00    +0.009 A 
ATOM      7  C   UNL     1       4.907  -4.026  -0.073  0.00  0.00    -0.002 A 
ATOM      8  C   UNL     1       4.796  -2.642  -0.211  0.00  0.00    +0.055 A 
BRANCH   3   9
ATOM      9  O   UNL     1       3.432  -0.711  -0.445  0.00  0.00    -0.456 OA
BRANCH   9  13
ATOM     10  C   UNL     1       2.354   1.472   2.885  0.00  0.00    +0.000 A 
ATOM     11  C   UNL     1       2.399   0.092   2.949  0.00  0.00    +0.004 A 
ATOM     12  C   UNL     1       2.759  -0.642   1.836  0.00  0.00    +0.046 A 
ATOM     13  C   UNL     1       3.076   0.008   0.651  0.00  0.00    +0.128 A 
ATOM     14  C   UNL     1       3.031   1.393   0.589  0.00  0.00    +0.046 A 
ATOM     15  C   UNL     1       2.670   2.122   1.706  0.00  0.00    +0.004 A 
ENDBRANCH   9  13
ENDBRANCH   3   9
ENDBRANCH   1   7
BRANCH   2  16
ATOM     16  N   UNL     1       5.909  -5.769  -2.044  0.00  0.00    -0.352 N 
ATOM     17  H   UNL     1       5.070  -5.296  -2.161  0.00  0.00    +0.143 HD
ATOM     18  H   UNL     1       6.191  -6.425  -2.700  0.00  0.00    +0.143 HD
ENDBRANCH   2  16
BRANCH   1  19
ATOM     19  C   UNL     1       7.062  -4.384   1.186  0.00  0.00    +0.102 C 
ATOM     20  N   UNL     1       7.714  -4.169   2.091  0.00  0.00    -0.191 NA
ENDBRANCH   1  19
BRANCH   2  21
ATOM     21  S   UNL     1       8.284  -6.259  -0.810  0.00  0.00    -0.072 S 
BRANCH  21  22
ATOM     22  C   UNL     1       9.190  -5.595  -2.167  0.00  0.00    +0.035 A 
ATOM     23  C   UNL     1       8.636  -4.594  -2.951  0.00  0.00    +0.017 A 
ATOM     24  C   UNL     1       9.349  -4.075  -4.016  0.00  0.00    +0.001 A 
ATOM     25  C   UNL     1      10.614  -4.552  -4.304  0.00  0.00    +0.002 A 
ATOM     26  C   UNL     1      11.175  -5.550  -3.529  0.00  0.00    +0.024 A 
ATOM     27  C   UNL     1      10.470  -6.072  -2.454  0.00  0.00    +0.039 A 
BRANCH  27  28
ATOM     28  N   UNL     1      11.037  -7.078  -1.665  0.00  0.00    -0.357 N 
ATOM     29  H   UNL     1      10.541  -7.445  -0.917  0.00  0.00    +0.142 HD
ATOM     30  H   UNL     1      11.927  -7.409  -1.866  0.00  0.00    +0.142 HD
ENDBRANCH  27  28
ENDBRANCH  21  22
ENDBRANCH   2  21
TORSDOF 8
