REMARK  Name = CHEMBL287959
REMARK  9 active torsions:
REMARK  status: ('A' for Active; 'I' for Inactive)
REMARK    1  A    between atoms: C_6  and  C_11
REMARK    2  A    between atoms: C_11  and  C_12
REMARK    3  A    between atoms: C_11  and  O_31
REMARK    4  A    between atoms: C_16  and  C_18
REMARK    5  A    between atoms: C_18  and  C_29
REMARK    6  A    between atoms: C_19  and  N_20
REMARK    7  A    between atoms: C_19  and  S_21
REMARK    8  A    between atoms: S_21  and  C_22
REMARK    9  A    between atoms: C_27  and  N_28
REMARK                            x       y       z     vdW  Elec       q    Type
REMARK                         _______ _______ _______ _____ _____    ______ ____
ROOT
ATOM      1  C   UNL     1       5.364  -2.765  -1.368  0.00  0.00    -0.014 A 
ATOM      2  C   UNL     1       4.776  -3.892  -1.915  0.00  0.00    +0.006 A 
ATOM      3  C   UNL     1       5.102  -4.297  -3.196  0.00  0.00    +0.001 A 
ATOM      4  C   UNL     1       6.018  -3.578  -3.938  0.00  0.00    +0.009 A 
ATOM      5  C   UNL     1       6.614  -2.441  -3.393  0.00  0.00    -0.005 A 
ATOM      6  C   UNL     1       6.276  -2.034  -2.101  0.00  0.00    +0.015 A 
ENDROOT
BRANCH   5   7
ATOM      7  C   UNL     1       7.596  -1.665  -4.183  0.00  0.00    +0.086 C 
ATOM      8  C   UNL     1       7.196  -1.012  -5.340  0.00  0.00    +0.082 C 
BRANCH   8   9
ATOM      9  N   UNL     1       8.107  -0.293  -6.072  0.00  0.00    -0.352 N 
ATOM     10  H   UNL     1       9.012  -0.180  -5.744  0.00  0.00    +0.143 HD
ATOM     11  H   UNL     1       7.845   0.102  -6.919  0.00  0.00    +0.143 HD
ENDBRANCH   8   9
BRANCH   7  12
ATOM     12  C   UNL     1       8.960  -1.589  -3.754  0.00  0.00    +0.102 C 
ATOM     13  N   UNL     1      10.042  -1.529  -3.413  0.00  0.00    -0.191 NA
ENDBRANCH   7  12
BRANCH   8  14
ATOM     14  S   UNL     1       5.517  -1.106  -5.868  0.00  0.00    -0.072 S 
BRANCH  14  15
ATOM     15  C   UNL     1       5.596  -2.008  -7.380  0.00  0.00    +0.035 A 
ATOM     16  C   UNL     1       6.800  -2.551  -7.804  0.00  0.00    +0.017 A 
ATOM     17  C   UNL     1       6.859  -3.259  -8.990  0.00  0.00    +0.001 A 
ATOM     18  C   UNL     1       5.721  -3.427  -9.757  0.00  0.00    +0.002 A 
ATOM     19  C   UNL     1       4.517  -2.888  -9.343  0.00  0.00    +0.024 A 
ATOM     20  C   UNL     1       4.447  -2.182  -8.152  0.00  0.00    +0.039 A 
BRANCH  20  21
ATOM     21  N   UNL     1       3.228  -1.641  -7.727  0.00  0.00    -0.357 N 
ATOM     22  H   UNL     1       3.182  -1.144  -6.895  0.00  0.00    +0.142 HD
ATOM     23  H   UNL     1       2.430  -1.763  -8.265  0.00  0.00    +0.142 HD
ENDBRANCH  20  21
ENDBRANCH  14  15
ENDBRANCH   8  14
ENDBRANCH   5   7
BRANCH   1  24
ATOM     24  C   UNL     1       5.003  -2.331   0.029  0.00  0.00    +0.175 C 
BRANCH  24  30
ATOM     25  C   UNL     1       0.019   1.772  -0.149  0.00  0.00    +0.001 A 
ATOM     26  C   UNL     1       1.211   2.493  -0.202  0.00  0.00    +0.001 A 
ATOM     27  C   UNL     1       2.414   1.858  -0.180  0.00  0.00    +0.008 A 
ATOM     28  C   UNL     1       2.460   0.456  -0.101  0.00  0.00    -0.018 A 
ATOM     29  C   UNL     1       3.683  -0.235  -0.075  0.00  0.00    +0.015 A 
ATOM     30  C   UNL     1       3.689  -1.594   0.002  0.00  0.00    -0.014 A 
ATOM     31  C   UNL     1       2.497  -2.314   0.057  0.00  0.00    +0.007 A 
ATOM     32  C   UNL     1       1.293  -1.679   0.034  0.00  0.00    +0.009 A 
ATOM     33  C   UNL     1       1.248  -0.277  -0.046  0.00  0.00    -0.018 A 
ATOM     34  C   UNL     1       0.024   0.414  -0.072  0.00  0.00    +0.008 A 
ENDBRANCH  24  30
BRANCH  24  35
ATOM     35  O   UNL     1       4.887  -3.480   0.870  0.00  0.00    -0.383 OA
ATOM     36  H   UNL     1       4.212  -4.111   0.584  0.00  0.00    +0.211 HD
ENDBRANCH  24  35
ENDBRANCH   1  24
TORSDOF 9
