REMARK  Name = CHEMBL33906
REMARK  9 active torsions:
REMARK  status: ('A' for Active; 'I' for Inactive)
REMARK    1  A    between atoms: C_10  and  C_11
REMARK    2  A    between atoms: C_11  and  C_12
REMARK    3  A    between atoms: C_11  and  O_31
REMARK    4  A    between atoms: C_16  and  C_18
REMARK    5  A    between atoms: C_18  and  C_29
REMARK    6  A    between atoms: C_19  and  N_20
REMARK    7  A    between atoms: C_19  and  S_21
REMARK    8  A    between atoms: S_21  and  C_22
REMARK    9  A    between atoms: C_27  and  N_28
REMARK                            x       y       z     vdW  Elec       q    Type
REMARK                         _______ _______ _______ _____ _____    ______ ____
ROOT
ATOM      1  C   UNL     1       5.080   0.642  -1.309  0.00  0.00    -0.014 A 
ATOM      2  C   UNL     1       5.695  -0.329  -2.079  0.00  0.00    +0.006 A 
ATOM      3  C   UNL     1       6.093  -0.045  -3.373  0.00  0.00    +0.001 A 
ATOM      4  C   UNL     1       5.878   1.210  -3.904  0.00  0.00    +0.009 A 
ATOM      5  C   UNL     1       5.259   2.194  -3.133  0.00  0.00    -0.005 A 
ATOM      6  C   UNL     1       4.855   1.899  -1.830  0.00  0.00    +0.015 A 
ENDROOT
BRANCH   5   7
ATOM      7  C   UNL     1       5.026   3.543  -3.697  0.00  0.00    +0.086 C 
ATOM      8  C   UNL     1       4.159   3.707  -4.768  0.00  0.00    +0.082 C 
BRANCH   8   9
ATOM      9  N   UNL     1       3.943   4.957  -5.290  0.00  0.00    -0.352 N 
ATOM     10  H   UNL     1       4.338   5.735  -4.866  0.00  0.00    +0.143 HD
ATOM     11  H   UNL     1       3.395   5.064  -6.083  0.00  0.00    +0.143 HD
ENDBRANCH   8   9
BRANCH   7  12
ATOM     12  C   UNL     1       5.695   4.678  -3.136  0.00  0.00    +0.102 C 
ATOM     13  N   UNL     1       6.226   5.579  -2.692  0.00  0.00    -0.191 NA
ENDBRANCH   7  12
BRANCH   8  14
ATOM     14  S   UNL     1       3.335   2.310  -5.457  0.00  0.00    -0.072 S 
BRANCH  14  15
ATOM     15  C   UNL     1       4.011   2.174  -7.078  0.00  0.00    +0.035 A 
ATOM     16  C   UNL     1       5.053   3.003  -7.470  0.00  0.00    +0.017 A 
ATOM     17  C   UNL     1       5.582   2.894  -8.742  0.00  0.00    +0.001 A 
ATOM     18  C   UNL     1       5.076   1.960  -9.628  0.00  0.00    +0.002 A 
ATOM     19  C   UNL     1       4.038   1.130  -9.247  0.00  0.00    +0.024 A 
ATOM     20  C   UNL     1       3.505   1.228  -7.970  0.00  0.00    +0.039 A 
BRANCH  20  21
ATOM     21  N   UNL     1       2.459   0.385  -7.580  0.00  0.00    -0.357 N 
ATOM     22  H   UNL     1       2.084   0.458  -6.688  0.00  0.00    +0.142 HD
ATOM     23  H   UNL     1       2.107  -0.272  -8.201  0.00  0.00    +0.142 HD
ENDBRANCH  20  21
ENDBRANCH  14  15
ENDBRANCH   8  14
ENDBRANCH   5   7
BRANCH   1  24
ATOM     24  C   UNL     1       4.649   0.324   0.100  0.00  0.00    +0.175 C 
BRANCH  24  34
ATOM     25  C   UNL     1      -0.304   1.593  -0.139  0.00  0.00    +0.001 A 
ATOM     26  C   UNL     1       0.892   2.309  -0.110  0.00  0.00    +0.001 A 
ATOM     27  C   UNL     1       2.091   1.669  -0.043  0.00  0.00    +0.009 A 
ATOM     28  C   UNL     1       2.128   0.265  -0.001  0.00  0.00    -0.012 A 
ATOM     29  C   UNL     1       0.912  -0.464  -0.030  0.00  0.00    -0.018 A 
ATOM     30  C   UNL     1      -0.307   0.233  -0.100  0.00  0.00    +0.008 A 
ATOM     31  C   UNL     1       0.949  -1.868   0.012  0.00  0.00    +0.008 A 
ATOM     32  C   UNL     1       2.148  -2.508   0.079  0.00  0.00    +0.001 A 
ATOM     33  C   UNL     1       3.343  -1.792   0.108  0.00  0.00    +0.007 A 
ATOM     34  C   UNL     1       3.346  -0.431   0.069  0.00  0.00    -0.007 A 
ENDBRANCH  24  34
BRANCH  24  35
ATOM     35  O   UNL     1       5.649  -0.476   0.734  0.00  0.00    -0.383 OA
ATOM     36  H   UNL     1       5.818  -1.318   0.291  0.00  0.00    +0.211 HD
ENDBRANCH  24  35
ENDBRANCH   1  24
TORSDOF 9
