REMARK  Name = CHEMBL316510
REMARK  4 active torsions:
REMARK  status: ('A' for Active; 'I' for Inactive)
REMARK    1  A    between atoms: C_9  and  C_10
REMARK    2  A    between atoms: C_9  and  C_22
REMARK    3  A    between atoms: C_10  and  C_11
REMARK    4  A    between atoms: C_10  and  C_20
REMARK                            x       y       z     vdW  Elec       q    Type
REMARK                         _______ _______ _______ _____ _____    ______ ____
ROOT
ATOM      1  C   UNL     1      -0.017   1.383   0.010  0.00  0.00    +0.002 A 
ATOM      2  C   UNL     1       1.146   2.115   0.003  0.00  0.00    +0.024 A 
ATOM      3  C   UNL     1       2.394   1.473  -0.013  0.00  0.00    +0.046 A 
ATOM      4  C   UNL     1       2.386   0.063  -0.021  0.00  0.00    +0.035 A 
ATOM      5  C   UNL     1       1.213  -0.667  -0.013  0.00  0.00    +0.017 A 
ATOM      6  C   UNL     1       0.002  -0.004   0.002  0.00  0.00    +0.001 A 
ATOM      7  S   UNL     1       4.112  -0.348  -0.040  0.00  0.00    -0.071 S 
ATOM      8  C   UNL     1       4.747   1.208  -0.038  0.00  0.00    +0.086 C 
ATOM      9  C   UNL     1       6.160   1.603  -0.051  0.00  0.00    +0.086 C 
ATOM     10  N   UNL     1       3.653   2.020  -0.023  0.00  0.00    -0.307 N 
ATOM     11  H   UNL     1       3.763   2.983  -0.019  0.00  0.00    +0.153 HD
ENDROOT
BRANCH   9  12
ATOM     12  C   UNL     1       6.516   2.990  -0.047  0.00  0.00    +0.099 C 
ATOM     13  N   UNL     1       6.798   4.091  -0.044  0.00  0.00    -0.191 NA
ENDBRANCH   9  12
BRANCH   9  14
ATOM     14  C   UNL     1       7.154   0.630  -0.066  0.00  0.00    +0.171 C 
BRANCH  14  15
ATOM     15  C   UNL     1       8.571   1.026  -0.079  0.00  0.00    +0.107 A 
ATOM     16  S   UNL     1       9.277   2.669  -0.070  0.00  0.00    -0.070 S 
ATOM     17  C   UNL     1      10.983   2.174  -0.095  0.00  0.00    +0.039 A 
ATOM     18  C   UNL     1      10.886   0.759  -0.109  0.00  0.00    +0.079 A 
ATOM     19  C   UNL     1      12.113   0.050  -0.132  0.00  0.00    +0.029 A 
ATOM     20  C   UNL     1      13.300   0.712  -0.139  0.00  0.00    +0.002 A 
ATOM     21  C   UNL     1      13.362   2.100  -0.125  0.00  0.00    +0.001 A 
ATOM     22  C   UNL     1      12.189   2.831  -0.103  0.00  0.00    +0.017 A 
ATOM     23  N   UNL     1       9.644   0.261  -0.094  0.00  0.00    -0.242 NA
ENDBRANCH  14  15
BRANCH  14  24
ATOM     24  C   UNL     1       6.799  -0.757  -0.069  0.00  0.00    +0.084 C 
ATOM     25  N   UNL     1       6.517  -1.857  -0.072  0.00  0.00    -0.195 NA
ENDBRANCH  14  24
ENDBRANCH   9  14
TORSDOF 4
