REMARK  Name = CHEMBL288349
REMARK  10 active torsions:
REMARK  status: ('A' for Active; 'I' for Inactive)
REMARK    1  A    between atoms: C_4  and  S_8
REMARK    2  A    between atoms: C_5  and  N_7
REMARK    3  A    between atoms: S_8  and  C_9
REMARK    4  A    between atoms: C_9  and  N_29
REMARK    5  A    between atoms: C_10  and  C_11
REMARK    6  A    between atoms: C_10  and  C_13
REMARK    7  A    between atoms: C_17  and  C_19
REMARK    8  A    between atoms: C_19  and  C_20
REMARK    9  A    between atoms: C_19  and  O_28
REMARK   10  A    between atoms: C_23  and  C_26
REMARK                            x       y       z     vdW  Elec       q    Type
REMARK                         _______ _______ _______ _____ _____    ______ ____
ROOT
ATOM      1  C   UNL     1       5.245   0.379  -0.110  0.00  0.00    +0.082 C 
ATOM      2  C   UNL     1       6.529  -0.033  -0.439  0.00  0.00    +0.086 C 
ENDROOT
BRANCH   2   3
ATOM      3  C   UNL     1       7.578   0.973  -0.722  0.00  0.00    -0.005 A 
ATOM      4  C   UNL     1       7.461   1.816  -1.827  0.00  0.00    +0.009 A 
ATOM      5  C   UNL     1       8.443   2.750  -2.085  0.00  0.00    +0.001 A 
ATOM      6  C   UNL     1       9.542   2.852  -1.250  0.00  0.00    +0.006 A 
ATOM      7  C   UNL     1       9.664   2.019  -0.153  0.00  0.00    -0.014 A 
ATOM      8  C   UNL     1       8.685   1.085   0.120  0.00  0.00    +0.015 A 
BRANCH   7   9
ATOM      9  C   UNL     1      10.864   2.137   0.751  0.00  0.00    +0.175 C 
BRANCH   9  10
ATOM     10  C   UNL     1      10.617   3.213   1.776  0.00  0.00    -0.015 A 
ATOM     11  C   UNL     1      10.781   4.543   1.431  0.00  0.00    +0.008 A 
ATOM     12  C   UNL     1      10.557   5.534   2.365  0.00  0.00    +0.019 A 
ATOM     13  C   UNL     1      10.163   5.192   3.660  0.00  0.00    +0.052 A 
ATOM     14  C   UNL     1       9.999   3.848   4.001  0.00  0.00    +0.019 A 
ATOM     15  C   UNL     1      10.222   2.868   3.056  0.00  0.00    +0.008 A 
BRANCH  13  16
ATOM     16  C   UNL     1       9.929   6.215   4.635  0.00  0.00    +0.099 C 
ATOM     17  N   UNL     1       9.743   7.026   5.407  0.00  0.00    -0.191 NA
ENDBRANCH  13  16
ENDBRANCH   9  10
BRANCH   9  18
ATOM     18  O   UNL     1      12.014   2.474  -0.026  0.00  0.00    -0.383 OA
ATOM     19  H   UNL     1      11.934   3.311  -0.505  0.00  0.00    +0.211 HD
ENDBRANCH   9  18
ENDBRANCH   7   9
ENDBRANCH   2   3
BRANCH   1  20
ATOM     20  N   UNL     1       4.948   1.717  -0.047  0.00  0.00    -0.352 N 
ATOM     21  H   UNL     1       4.035   2.004   0.108  0.00  0.00    +0.143 HD
ATOM     22  H   UNL     1       5.652   2.376  -0.158  0.00  0.00    +0.143 HD
ENDBRANCH   1  20
BRANCH   2  23
ATOM     23  C   UNL     1       6.838  -1.429  -0.505  0.00  0.00    +0.102 C 
ATOM     24  N   UNL     1       7.084  -2.537  -0.557  0.00  0.00    -0.191 NA
ENDBRANCH   2  23
BRANCH   1  25
ATOM     25  S   UNL     1       3.996  -0.818   0.226  0.00  0.00    -0.072 S 
BRANCH  25  29
ATOM     26  C   UNL     1       1.040  -0.300  -3.172  0.00  0.00    +0.002 A 
ATOM     27  C   UNL     1       2.234   0.397  -3.180  0.00  0.00    +0.001 A 
ATOM     28  C   UNL     1       3.137   0.241  -2.145  0.00  0.00    +0.017 A 
ATOM     29  C   UNL     1       2.846  -0.616  -1.094  0.00  0.00    +0.035 A 
ATOM     30  C   UNL     1       1.641  -1.319  -1.086  0.00  0.00    +0.039 A 
ATOM     31  C   UNL     1       0.741  -1.157  -2.129  0.00  0.00    +0.024 A 
BRANCH  30  32
ATOM     32  N   UNL     1       1.341  -2.185  -0.029  0.00  0.00    -0.357 N 
ATOM     33  H   UNL     1       1.972  -2.298   0.700  0.00  0.00    +0.142 HD
ATOM     34  H   UNL     1       0.503  -2.673  -0.025  0.00  0.00    +0.142 HD
ENDBRANCH  30  32
ENDBRANCH  25  29
ENDBRANCH   1  25
TORSDOF 10
