REMARK  Name = CHEMBL31497
REMARK  12 active torsions:
REMARK  status: ('A' for Active; 'I' for Inactive)
REMARK    1  A    between atoms: C_1  and  O_2
REMARK    2  A    between atoms: O_2  and  C_3
REMARK    3  A    between atoms: C_8  and  O_9
REMARK    4  A    between atoms: O_9  and  C_10
REMARK    5  A    between atoms: C_10  and  C_11
REMARK    6  A    between atoms: C_11  and  C_12
REMARK    7  A    between atoms: C_12  and  N_13
REMARK    8  A    between atoms: C_21  and  C_37
REMARK    9  A    between atoms: C_22  and  N_23
REMARK   10  A    between atoms: N_23  and  C_24
REMARK   11  A    between atoms: C_27  and  O_30
REMARK   12  A    between atoms: O_30  and  C_31
REMARK                            x       y       z     vdW  Elec       q    Type
REMARK                         _______ _______ _______ _____ _____    ______ ____
ROOT
ATOM      1  C   UNL     1      -2.982   0.134  -3.249  0.00  0.00    +0.162 A 
ATOM      2  C   UNL     1      -3.515   0.740  -2.149  0.00  0.00    +0.061 A 
ATOM      3  C   UNL     1      -3.937  -0.036  -1.060  0.00  0.00    +0.026 A 
ATOM      4  C   UNL     1      -3.809  -1.446  -1.105  0.00  0.00    +0.077 A 
ATOM      5  C   UNL     1      -3.257  -2.046  -2.247  0.00  0.00    +0.077 A 
ATOM      6  C   UNL     1      -2.857  -1.261  -3.305  0.00  0.00    +0.164 A 
ATOM      7  N   UNL     1      -4.211  -2.194  -0.067  0.00  0.00    -0.253 NA
ATOM      8  C   UNL     1      -4.729  -1.664   1.011  0.00  0.00    +0.132 A 
ATOM      9  C   UNL     1      -4.894  -0.276   1.142  0.00  0.00    +0.091 A 
ATOM     10  C   UNL     1      -4.493   0.566   0.093  0.00  0.00    +0.060 A 
ENDROOT
BRANCH   1  12
ATOM     11  C   UNL     1      -2.728   2.305  -4.186  0.00  0.00    +0.277 C 
ATOM     12  O   UNL     1      -2.573   0.889  -4.304  0.00  0.00    -0.491 OA
ENDBRANCH   1  12
BRANCH  10  13
ATOM     13  N   UNL     1      -4.637   1.936   0.183  0.00  0.00    -0.313 N 
ATOM     14  H   UNL     1      -3.921   2.475   0.552  0.00  0.00    +0.152 HD
BRANCH  13  15
ATOM     15  C   UNL     1      -5.816   2.545  -0.259  0.00  0.00    +0.032 A 
ATOM     16  C   UNL     1      -6.795   1.789  -0.891  0.00  0.00    +0.027 A 
ATOM     17  C   UNL     1      -7.958   2.392  -1.327  0.00  0.00    +0.048 A 
ATOM     18  C   UNL     1      -8.150   3.752  -1.134  0.00  0.00    +0.129 A 
ATOM     19  C   UNL     1      -7.172   4.509  -0.504  0.00  0.00    +0.048 A 
ATOM     20  C   UNL     1      -6.011   3.906  -0.062  0.00  0.00    +0.027 A 
BRANCH  18  21
ATOM     21  O   UNL     1      -9.295   4.345  -1.564  0.00  0.00    -0.456 OA
BRANCH  21  22
ATOM     22  C   UNL     1      -9.321   4.841  -2.828  0.00  0.00    +0.131 A 
ATOM     23  C   UNL     1     -10.461   5.466  -3.326  0.00  0.00    +0.066 A 
ATOM     24  C   UNL     1     -10.447   5.958  -4.616  0.00  0.00    +0.114 A 
ATOM     25  N   UNL     1      -9.372   5.840  -5.372  0.00  0.00    -0.263 NA
ATOM     26  C   UNL     1      -8.273   5.254  -4.936  0.00  0.00    +0.114 A 
ATOM     27  C   UNL     1      -8.205   4.742  -3.656  0.00  0.00    +0.066 A 
ENDBRANCH  21  22
ENDBRANCH  18  21
ENDBRANCH  13  15
ENDBRANCH  10  13
BRANCH   9  28
ATOM     28  C   UNL     1      -5.465   0.276   2.334  0.00  0.00    +0.103 C 
ATOM     29  N   UNL     1      -5.917   0.714   3.280  0.00  0.00    -0.191 NA
ENDBRANCH   9  28
BRANCH   6  30
ATOM     30  O   UNL     1      -2.329  -1.845  -4.412  0.00  0.00    -0.488 OA
BRANCH  30  31
ATOM     31  C   UNL     1      -2.228  -3.270  -4.409  0.00  0.00    +0.230 C 
BRANCH  31  32
ATOM     32  C   UNL     1      -1.615  -3.742  -5.729  0.00  0.00    +0.056 C 
BRANCH  32  33
ATOM     33  C   UNL     1      -1.506  -5.268  -5.725  0.00  0.00    +0.088 C 
BRANCH  33  34
ATOM     34  N   UNL     1      -0.918  -5.720  -6.992  0.00  0.00    -0.298 NA
ATOM     35  C   UNL     1      -1.819  -5.443  -8.120  0.00  0.00    +0.112 C 
ATOM     36  C   UNL     1      -1.143  -5.875  -9.425  0.00  0.00    +0.175 C 
ATOM     37  O   UNL     1      -0.793  -7.259  -9.339  0.00  0.00    -0.377 OA
ATOM     38  C   UNL     1       0.084  -7.564  -8.252  0.00  0.00    +0.175 C 
ATOM     39  C   UNL     1      -0.579  -7.150  -6.936  0.00  0.00    +0.112 C 
ENDBRANCH  33  34
ENDBRANCH  32  33
ENDBRANCH  31  32
ENDBRANCH  30  31
ENDBRANCH   6  30
TORSDOF 11
