REMARK  Name = CHEMBL100473
REMARK  11 active torsions:
REMARK  status: ('A' for Active; 'I' for Inactive)
REMARK    1  A    between atoms: C_4  and  S_8
REMARK    2  A    between atoms: C_5  and  N_7
REMARK    3  A    between atoms: S_8  and  C_9
REMARK    4  A    between atoms: C_9  and  N_26
REMARK    5  A    between atoms: C_10  and  C_11
REMARK    6  A    between atoms: C_10  and  C_13
REMARK    7  A    between atoms: C_13  and  C_24
REMARK    8  A    between atoms: C_14  and  N_15
REMARK    9  A    between atoms: C_14  and  S_16
REMARK   10  A    between atoms: S_16  and  C_17
REMARK   11  A    between atoms: C_22  and  N_23
REMARK                            x       y       z     vdW  Elec       q    Type
REMARK                         _______ _______ _______ _____ _____    ______ ____
ROOT
ATOM      1  C   UNL     1       5.741   0.602  -0.237  0.00  0.00    +0.082 C 
ATOM      2  C   UNL     1       7.123   0.559  -0.267  0.00  0.00    +0.099 C 
ENDROOT
BRANCH   1   3
ATOM      3  N   UNL     1       5.091   1.815  -0.209  0.00  0.00    -0.352 N 
ATOM      4  H   UNL     1       4.213   1.886   0.198  0.00  0.00    +0.143 HD
ATOM      5  H   UNL     1       5.510   2.599  -0.597  0.00  0.00    +0.143 HD
ENDBRANCH   1   3
BRANCH   2   6
ATOM      6  C   UNL     1       7.796  -0.685  -0.490  0.00  0.00    +0.103 C 
ATOM      7  N   UNL     1       8.330  -1.673  -0.667  0.00  0.00    -0.191 NA
ENDBRANCH   2   6
BRANCH   2   8
ATOM      8  C   UNL     1       7.910   1.803  -0.066  0.00  0.00    +0.099 C 
ATOM      9  C   UNL     1       9.284   1.786  -0.226  0.00  0.00    +0.082 C 
BRANCH   9  10
ATOM     10  N   UNL     1      10.013   2.939  -0.040  0.00  0.00    -0.352 N 
ATOM     11  H   UNL     1       9.574   3.745   0.273  0.00  0.00    +0.143 HD
ATOM     12  H   UNL     1      10.966   2.945  -0.222  0.00  0.00    +0.143 HD
ENDBRANCH   9  10
BRANCH   8  13
ATOM     13  C   UNL     1       7.246   3.020   0.291  0.00  0.00    +0.103 C 
ATOM     14  N   UNL     1       6.719   3.986   0.575  0.00  0.00    -0.191 NA
ENDBRANCH   8  13
BRANCH   9  15
ATOM     15  S   UNL     1      10.101   0.288  -0.666  0.00  0.00    -0.072 S 
BRANCH  15  16
ATOM     16  C   UNL     1      11.031  -0.129   0.772  0.00  0.00    +0.035 A 
ATOM     17  C   UNL     1      10.899   0.626   1.929  0.00  0.00    +0.017 A 
ATOM     18  C   UNL     1      11.629   0.297   3.056  0.00  0.00    +0.001 A 
ATOM     19  C   UNL     1      12.492  -0.783   3.034  0.00  0.00    +0.002 A 
ATOM     20  C   UNL     1      12.630  -1.541   1.886  0.00  0.00    +0.024 A 
ATOM     21  C   UNL     1      11.898  -1.222   0.752  0.00  0.00    +0.039 A 
BRANCH  21  22
ATOM     22  N   UNL     1      12.032  -1.990  -0.409  0.00  0.00    -0.357 N 
ATOM     23  H   UNL     1      11.522  -1.763  -1.202  0.00  0.00    +0.142 HD
ATOM     24  H   UNL     1      12.635  -2.750  -0.421  0.00  0.00    +0.142 HD
ENDBRANCH  21  22
ENDBRANCH  15  16
ENDBRANCH   9  15
ENDBRANCH   2   8
BRANCH   1  25
ATOM     25  S   UNL     1       4.813  -0.895  -0.235  0.00  0.00    -0.072 S 
BRANCH  25  29
ATOM     26  C   UNL     1       2.779  -0.928  -4.287  0.00  0.00    +0.002 A 
ATOM     27  C   UNL     1       3.524   0.169  -3.894  0.00  0.00    +0.001 A 
ATOM     28  C   UNL     1       4.145   0.181  -2.659  0.00  0.00    +0.017 A 
ATOM     29  C   UNL     1       4.022  -0.908  -1.810  0.00  0.00    +0.035 A 
ATOM     30  C   UNL     1       3.270  -2.015  -2.206  0.00  0.00    +0.039 A 
ATOM     31  C   UNL     1       2.650  -2.019  -3.447  0.00  0.00    +0.024 A 
BRANCH  30  32
ATOM     32  N   UNL     1       3.141  -3.117  -1.354  0.00  0.00    -0.357 N 
ATOM     33  H   UNL     1       3.575  -3.113  -0.486  0.00  0.00    +0.142 HD
ATOM     34  H   UNL     1       2.618  -3.886  -1.631  0.00  0.00    +0.142 HD
ENDBRANCH  30  32
ENDBRANCH  25  29
ENDBRANCH   1  25
TORSDOF 11
