REMARK  Name = CHEMBL287959
REMARK  9 active torsions:
REMARK  status: ('A' for Active; 'I' for Inactive)
REMARK    1  A    between atoms: C_6  and  C_11
REMARK    2  A    between atoms: C_11  and  C_12
REMARK    3  A    between atoms: C_11  and  O_31
REMARK    4  A    between atoms: C_16  and  C_18
REMARK    5  A    between atoms: C_18  and  C_29
REMARK    6  A    between atoms: C_19  and  N_20
REMARK    7  A    between atoms: C_19  and  S_21
REMARK    8  A    between atoms: S_21  and  C_22
REMARK    9  A    between atoms: C_27  and  N_28
REMARK                            x       y       z     vdW  Elec       q    Type
REMARK                         _______ _______ _______ _____ _____    ______ ____
ROOT
ATOM      1  C   UNL     1       5.385  -3.132  -1.550  0.00  0.00    -0.014 A 
ATOM      2  C   UNL     1       4.728  -4.160  -2.204  0.00  0.00    +0.006 A 
ATOM      3  C   UNL     1       4.997  -4.424  -3.535  0.00  0.00    +0.001 A 
ATOM      4  C   UNL     1       5.923  -3.663  -4.219  0.00  0.00    +0.009 A 
ATOM      5  C   UNL     1       6.589  -2.626  -3.565  0.00  0.00    -0.005 A 
ATOM      6  C   UNL     1       6.309  -2.361  -2.224  0.00  0.00    +0.015 A 
ENDROOT
BRANCH   5   7
ATOM      7  C   UNL     1       7.583  -1.806  -4.293  0.00  0.00    +0.086 C 
ATOM      8  C   UNL     1       7.180  -1.003  -5.351  0.00  0.00    +0.082 C 
BRANCH   8   9
ATOM      9  N   UNL     1       5.860  -0.970  -5.723  0.00  0.00    -0.352 N 
ATOM     10  H   UNL     1       5.220  -1.558  -5.292  0.00  0.00    +0.143 HD
ATOM     11  H   UNL     1       5.566  -0.358  -6.416  0.00  0.00    +0.143 HD
ENDBRANCH   8   9
BRANCH   7  12
ATOM     12  C   UNL     1       8.961  -1.840  -3.905  0.00  0.00    +0.102 C 
ATOM     13  N   UNL     1      10.055  -1.868  -3.597  0.00  0.00    -0.191 NA
ENDBRANCH   7  12
BRANCH   8  14
ATOM     14  S   UNL     1       8.364  -0.027  -6.217  0.00  0.00    -0.072 S 
BRANCH  14  15
ATOM     15  C   UNL     1       7.903   1.632  -5.845  0.00  0.00    +0.035 A 
ATOM     16  C   UNL     1       6.887   1.884  -4.935  0.00  0.00    +0.017 A 
ATOM     17  C   UNL     1       6.527   3.187  -4.644  0.00  0.00    +0.001 A 
ATOM     18  C   UNL     1       7.177   4.242  -5.258  0.00  0.00    +0.002 A 
ATOM     19  C   UNL     1       8.191   4.000  -6.166  0.00  0.00    +0.024 A 
ATOM     20  C   UNL     1       8.563   2.696  -6.460  0.00  0.00    +0.039 A 
BRANCH  20  21
ATOM     21  N   UNL     1       9.593   2.449  -7.374  0.00  0.00    -0.357 N 
ATOM     22  H   UNL     1       9.849   1.537  -7.582  0.00  0.00    +0.142 HD
ATOM     23  H   UNL     1      10.050   3.190  -7.801  0.00  0.00    +0.142 HD
ENDBRANCH  20  21
ENDBRANCH  14  15
ENDBRANCH   8  14
ENDBRANCH   5   7
BRANCH   1  24
ATOM     24  C   UNL     1       5.086  -2.851  -0.100  0.00  0.00    +0.175 C 
BRANCH  24  30
ATOM     25  C   UNL     1       0.298   1.458   0.376  0.00  0.00    +0.001 A 
ATOM     26  C   UNL     1       1.521   2.127   0.365  0.00  0.00    +0.001 A 
ATOM     27  C   UNL     1       2.694   1.442   0.272  0.00  0.00    +0.008 A 
ATOM     28  C   UNL     1       2.675   0.039   0.185  0.00  0.00    -0.018 A 
ATOM     29  C   UNL     1       3.865  -0.702   0.087  0.00  0.00    +0.015 A 
ATOM     30  C   UNL     1       3.808  -2.059   0.005  0.00  0.00    -0.014 A 
ATOM     31  C   UNL     1       2.585  -2.728   0.016  0.00  0.00    +0.007 A 
ATOM     32  C   UNL     1       1.412  -2.043   0.109  0.00  0.00    +0.009 A 
ATOM     33  C   UNL     1       1.431  -0.641   0.196  0.00  0.00    -0.018 A 
ATOM     34  C   UNL     1       0.241   0.101   0.293  0.00  0.00    +0.008 A 
ENDBRANCH  24  30
BRANCH  24  35
ATOM     35  O   UNL     1       4.940  -4.086   0.605  0.00  0.00    -0.383 OA
ATOM     36  H   UNL     1       4.228  -4.648   0.270  0.00  0.00    +0.211 HD
ENDBRANCH  24  35
ENDBRANCH   1  24
TORSDOF 9
