REMARK  Name = CHEMBL31497
REMARK  12 active torsions:
REMARK  status: ('A' for Active; 'I' for Inactive)
REMARK    1  A    between atoms: C_1  and  O_2
REMARK    2  A    between atoms: O_2  and  C_3
REMARK    3  A    between atoms: C_8  and  O_9
REMARK    4  A    between atoms: O_9  and  C_10
REMARK    5  A    between atoms: C_10  and  C_11
REMARK    6  A    between atoms: C_11  and  C_12
REMARK    7  A    between atoms: C_12  and  N_13
REMARK    8  A    between atoms: C_21  and  C_37
REMARK    9  A    between atoms: C_22  and  N_23
REMARK   10  A    between atoms: N_23  and  C_24
REMARK   11  A    between atoms: C_27  and  O_30
REMARK   12  A    between atoms: O_30  and  C_31
REMARK                            x       y       z     vdW  Elec       q    Type
REMARK                         _______ _______ _______ _____ _____    ______ ____
ROOT
ATOM      1  C   UNL     1       4.307   0.220  -0.953  0.00  0.00    +0.162 A 
ATOM      2  C   UNL     1       3.611   0.836  -1.953  0.00  0.00    +0.061 A 
ATOM      3  C   UNL     1       2.890   0.066  -2.878  0.00  0.00    +0.026 A 
ATOM      4  C   UNL     1       2.888  -1.346  -2.773  0.00  0.00    +0.077 A 
ATOM      5  C   UNL     1       3.611  -1.955  -1.736  0.00  0.00    +0.077 A 
ATOM      6  C   UNL     1       4.314  -1.178  -0.845  0.00  0.00    +0.164 A 
ATOM      7  N   UNL     1       2.202  -2.087  -3.655  0.00  0.00    -0.253 NA
ATOM      8  C   UNL     1       1.519  -1.548  -4.632  0.00  0.00    +0.132 A 
ATOM      9  C   UNL     1       1.466  -0.157  -4.812  0.00  0.00    +0.091 A 
ATOM     10  C   UNL     1       2.161   0.678  -3.924  0.00  0.00    +0.060 A 
ENDROOT
BRANCH   1  12
ATOM     11  C   UNL     1       4.957   2.387  -0.222  0.00  0.00    +0.277 C 
ATOM     12  O   UNL     1       5.004   0.969  -0.057  0.00  0.00    -0.491 OA
ENDBRANCH   1  12
BRANCH  10  13
ATOM     13  N   UNL     1       2.134   2.051  -4.066  0.00  0.00    -0.313 N 
ATOM     14  H   UNL     1       1.447   2.571  -3.620  0.00  0.00    +0.152 HD
BRANCH  13  15
ATOM     15  C   UNL     1       3.096   2.692  -4.854  0.00  0.00    +0.032 A 
ATOM     16  C   UNL     1       4.144   1.962  -5.401  0.00  0.00    +0.027 A 
ATOM     17  C   UNL     1       5.094   2.595  -6.178  0.00  0.00    +0.048 A 
ATOM     18  C   UNL     1       5.001   3.960  -6.413  0.00  0.00    +0.129 A 
ATOM     19  C   UNL     1       3.955   4.689  -5.867  0.00  0.00    +0.048 A 
ATOM     20  C   UNL     1       3.001   4.056  -5.094  0.00  0.00    +0.027 A 
BRANCH  18  21
ATOM     21  O   UNL     1       5.937   4.582  -7.178  0.00  0.00    -0.456 OA
BRANCH  21  22
ATOM     22  C   UNL     1       7.036   5.083  -6.558  0.00  0.00    +0.131 A 
ATOM     23  C   UNL     1       8.028   5.739  -7.284  0.00  0.00    +0.064 A 
ATOM     24  C   UNL     1       9.130   6.234  -6.617  0.00  0.00    +0.086 A 
ATOM     25  N   UNL     1       9.250   6.092  -5.311  0.00  0.00    -0.367 N 
ATOM     26  C   UNL     1       8.332   5.478  -4.589  0.00  0.00    +0.086 A 
ATOM     27  C   UNL     1       7.198   4.960  -5.180  0.00  0.00    +0.064 A 
ATOM     28  H   UNL     1      10.035   6.450  -4.868  0.00  0.00    +0.165 HD
ENDBRANCH  21  22
ENDBRANCH  18  21
ENDBRANCH  13  15
ENDBRANCH  10  13
BRANCH   9  29
ATOM     29  C   UNL     1       0.710   0.405  -5.891  0.00  0.00    +0.103 C 
ATOM     30  N   UNL     1       0.111   0.851  -6.747  0.00  0.00    -0.191 NA
ENDBRANCH   9  29
BRANCH   6  31
ATOM     31  O   UNL     1       5.019  -1.770   0.154  0.00  0.00    -0.488 OA
BRANCH  31  32
ATOM     32  C   UNL     1       4.987  -3.198   0.211  0.00  0.00    +0.230 C 
BRANCH  32  33
ATOM     33  C   UNL     1       5.832  -3.680   1.393  0.00  0.00    +0.056 C 
BRANCH  33  34
ATOM     34  C   UNL     1       5.798  -5.208   1.454  0.00  0.00    +0.088 C 
BRANCH  34  35
ATOM     35  N   UNL     1       6.608  -5.671   2.588  0.00  0.00    -0.298 NA
ATOM     36  C   UNL     1       8.031  -5.367   2.377  0.00  0.00    +0.112 C 
ATOM     37  C   UNL     1       8.830  -5.811   3.606  0.00  0.00    +0.175 C 
ATOM     38  O   UNL     1       8.602  -7.204   3.838  0.00  0.00    -0.377 OA
ATOM     39  C   UNL     1       7.227  -7.535   4.049  0.00  0.00    +0.175 C 
ATOM     40  C   UNL     1       6.412  -7.109   2.825  0.00  0.00    +0.112 C 
ENDBRANCH  34  35
ENDBRANCH  33  34
ENDBRANCH  32  33
ENDBRANCH  31  32
ENDBRANCH   6  31
TORSDOF 11
