REMARK  Name = CHEMBL35988
REMARK  9 active torsions:
REMARK  status: ('A' for Active; 'I' for Inactive)
REMARK    1  A    between atoms: C_1  and  C_2
REMARK    2  A    between atoms: C_2  and  C_3
REMARK    3  A    between atoms: C_2  and  O_22
REMARK    4  A    between atoms: C_7  and  C_9
REMARK    5  A    between atoms: C_9  and  C_20
REMARK    6  A    between atoms: C_10  and  N_11
REMARK    7  A    between atoms: C_10  and  S_12
REMARK    8  A    between atoms: S_12  and  C_13
REMARK    9  A    between atoms: C_18  and  N_19
REMARK                            x       y       z     vdW  Elec       q    Type
REMARK                         _______ _______ _______ _____ _____    ______ ____
ROOT
ATOM      1  C   UNL     1       4.123  -1.754  -2.172  0.00  0.00    +0.086 C 
ATOM      2  C   UNL     1       5.086  -1.085  -2.913  0.00  0.00    +0.082 C 
ENDROOT
BRANCH   1   7
ATOM      3  C   UNL     1       0.840  -0.345  -1.010  0.00  0.00    -0.019 A 
ATOM      4  C   UNL     1       0.102  -0.381  -2.180  0.00  0.00    +0.006 A 
ATOM      5  C   UNL     1       0.667  -0.862  -3.347  0.00  0.00    +0.001 A 
ATOM      6  C   UNL     1       1.973  -1.310  -3.351  0.00  0.00    +0.009 A 
ATOM      7  C   UNL     1       2.722  -1.276  -2.175  0.00  0.00    -0.005 A 
ATOM      8  C   UNL     1       2.147  -0.784  -1.002  0.00  0.00    +0.015 A 
BRANCH   3  10
ATOM      9  C   UNL     1       0.232   1.710   0.237  0.00  0.00    +0.043 C 
ATOM     10  C   UNL     1       0.215   0.181   0.257  0.00  0.00    +0.141 C 
BRANCH  10  11
ATOM     11  O   UNL     1      -1.134  -0.280   0.350  0.00  0.00    -0.387 OA
ATOM     12  H   UNL     1      -1.599   0.021   1.143  0.00  0.00    +0.210 HD
ENDBRANCH  10  11
ENDBRANCH   3  10
ENDBRANCH   1   7
BRANCH   2  13
ATOM     13  N   UNL     1       6.385  -1.529  -2.910  0.00  0.00    -0.352 N 
ATOM     14  H   UNL     1       6.645  -2.265  -2.334  0.00  0.00    +0.143 HD
ATOM     15  H   UNL     1       7.043  -1.106  -3.484  0.00  0.00    +0.143 HD
ENDBRANCH   2  13
BRANCH   1  16
ATOM     16  C   UNL     1       4.484  -2.909  -1.404  0.00  0.00    +0.102 C 
ATOM     17  N   UNL     1       4.770  -3.824  -0.796  0.00  0.00    -0.191 NA
ENDBRANCH   1  16
BRANCH   2  18
ATOM     18  S   UNL     1       4.643   0.335  -3.857  0.00  0.00    -0.072 S 
BRANCH  18  19
ATOM     19  C   UNL     1       4.881  -0.172  -5.527  0.00  0.00    +0.035 A 
ATOM     20  C   UNL     1       5.215  -1.488  -5.814  0.00  0.00    +0.017 A 
ATOM     21  C   UNL     1       5.401  -1.883  -7.125  0.00  0.00    +0.001 A 
ATOM     22  C   UNL     1       5.257  -0.971  -8.154  0.00  0.00    +0.002 A 
ATOM     23  C   UNL     1       4.925   0.342  -7.878  0.00  0.00    +0.024 A 
ATOM     24  C   UNL     1       4.730   0.747  -6.566  0.00  0.00    +0.039 A 
BRANCH  24  25
ATOM     25  N   UNL     1       4.388   2.074  -6.284  0.00  0.00    -0.357 N 
ATOM     26  H   UNL     1       4.256   2.356  -5.365  0.00  0.00    +0.142 HD
ATOM     27  H   UNL     1       4.283   2.712  -7.007  0.00  0.00    +0.142 HD
ENDBRANCH  24  25
ENDBRANCH  18  19
ENDBRANCH   2  18
TORSDOF 8
