REMARK  Name = CHEMBL34436
REMARK  10 active torsions:
REMARK  status: ('A' for Active; 'I' for Inactive)
REMARK    1  A    between atoms: C_4  and  C_7
REMARK    2  A    between atoms: C_7  and  C_8
REMARK    3  A    between atoms: C_8  and  C_9
REMARK    4  A    between atoms: C_8  and  O_28
REMARK    5  A    between atoms: C_13  and  C_15
REMARK    6  A    between atoms: C_15  and  C_26
REMARK    7  A    between atoms: C_16  and  N_17
REMARK    8  A    between atoms: C_16  and  S_18
REMARK    9  A    between atoms: S_18  and  C_19
REMARK   10  A    between atoms: C_24  and  N_25
REMARK                            x       y       z     vdW  Elec       q    Type
REMARK                         _______ _______ _______ _____ _____    ______ ____
ROOT
ATOM      1  C   UNL     1       6.493  -5.425   1.631  0.00  0.00    +0.086 C 
ATOM      2  C   UNL     1       6.941  -6.064   2.778  0.00  0.00    +0.082 C 
ENDROOT
BRANCH   1   7
ATOM      3  C   UNL     1       5.525  -1.806   1.340  0.00  0.00    -0.018 A 
ATOM      4  C   UNL     1       6.767  -1.197   1.309  0.00  0.00    +0.006 A 
ATOM      5  C   UNL     1       7.920  -1.958   1.383  0.00  0.00    +0.001 A 
ATOM      6  C   UNL     1       7.838  -3.332   1.487  0.00  0.00    +0.009 A 
ATOM      7  C   UNL     1       6.588  -3.952   1.519  0.00  0.00    -0.005 A 
ATOM      8  C   UNL     1       5.429  -3.178   1.450  0.00  0.00    +0.015 A 
BRANCH   3   9
ATOM      9  C   UNL     1       4.275  -0.969   1.259  0.00  0.00    +0.149 C 
BRANCH   9  10
ATOM     10  O   UNL     1       4.488   0.271   1.937  0.00  0.00    -0.387 OA
ATOM     11  H   UNL     1       5.210   0.801   1.571  0.00  0.00    +0.210 HD
ENDBRANCH   9  10
BRANCH   9  12
ATOM     12  C   UNL     1       3.937  -0.697  -0.208  0.00  0.00    +0.071 C 
BRANCH  12  16
ATOM     13  C   UNL     1       0.210   1.376  -0.452  0.00  0.00    +0.000 A 
ATOM     14  C   UNL     1       1.391   2.087  -0.351  0.00  0.00    +0.000 A 
ATOM     15  C   UNL     1       2.597   1.416  -0.272  0.00  0.00    +0.004 A 
ATOM     16  C   UNL     1       2.622   0.034  -0.293  0.00  0.00    -0.045 A 
ATOM     17  C   UNL     1       1.441  -0.677  -0.393  0.00  0.00    +0.004 A 
ATOM     18  C   UNL     1       0.235  -0.006  -0.474  0.00  0.00    +0.000 A 
ENDBRANCH  12  16
ENDBRANCH   9  12
ENDBRANCH   3   9
ENDBRANCH   1   7
BRANCH   2  19
ATOM     19  N   UNL     1       7.473  -5.331   3.808  0.00  0.00    -0.352 N 
ATOM     20  H   UNL     1       7.599  -4.375   3.708  0.00  0.00    +0.143 HD
ATOM     21  H   UNL     1       7.722  -5.769   4.637  0.00  0.00    +0.143 HD
ENDBRANCH   2  19
BRANCH   1  22
ATOM     22  C   UNL     1       5.937  -6.190   0.555  0.00  0.00    +0.102 C 
ATOM     23  N   UNL     1       5.497  -6.797  -0.298  0.00  0.00    -0.191 NA
ENDBRANCH   1  22
BRANCH   2  24
ATOM     24  S   UNL     1       6.827  -7.818   2.911  0.00  0.00    -0.072 S 
BRANCH  24  25
ATOM     25  C   UNL     1       5.658  -8.072   4.205  0.00  0.00    +0.035 A 
ATOM     26  C   UNL     1       4.991  -6.991   4.762  0.00  0.00    +0.017 A 
ATOM     27  C   UNL     1       4.075  -7.193   5.777  0.00  0.00    +0.001 A 
ATOM     28  C   UNL     1       3.820  -8.470   6.240  0.00  0.00    +0.002 A 
ATOM     29  C   UNL     1       4.480  -9.554   5.691  0.00  0.00    +0.024 A 
ATOM     30  C   UNL     1       5.397  -9.361   4.668  0.00  0.00    +0.039 A 
BRANCH  30  31
ATOM     31  N   UNL     1       6.062 -10.457   4.107  0.00  0.00    -0.357 N 
ATOM     32  H   UNL     1       6.706 -10.320   3.394  0.00  0.00    +0.142 HD
ATOM     33  H   UNL     1       5.879 -11.353   4.430  0.00  0.00    +0.142 HD
ENDBRANCH  30  31
ENDBRANCH  24  25
ENDBRANCH   2  24
TORSDOF 10
