REMARK  Name = CHEMBL30516
REMARK  12 active torsions:
REMARK  status: ('A' for Active; 'I' for Inactive)
REMARK    1  A    between atoms: C_1  and  O_2
REMARK    2  A    between atoms: O_2  and  C_3
REMARK    3  A    between atoms: C_6  and  N_9
REMARK    4  A    between atoms: N_9  and  C_10
REMARK    5  A    between atoms: C_13  and  O_32
REMARK    6  A    between atoms: C_14  and  O_22
REMARK    7  A    between atoms: C_19  and  C_20
REMARK    8  A    between atoms: O_22  and  C_23
REMARK    9  A    between atoms: C_23  and  C_24
REMARK   10  A    between atoms: C_24  and  C_25
REMARK   11  A    between atoms: C_25  and  N_26
REMARK   12  A    between atoms: O_32  and  C_33
REMARK                            x       y       z     vdW  Elec       q    Type
REMARK                         _______ _______ _______ _____ _____    ______ ____
ROOT
ATOM      1  C   UNL     1      -4.945  -3.956  -0.070  0.00  0.00    +0.060 A 
ATOM      2  C   UNL     1      -6.129  -4.608  -0.485  0.00  0.00    +0.026 A 
ATOM      3  C   UNL     1      -7.284  -3.878  -0.804  0.00  0.00    +0.061 A 
ATOM      4  C   UNL     1      -8.413  -4.533  -1.203  0.00  0.00    +0.162 A 
ATOM      5  C   UNL     1      -8.431  -5.932  -1.297  0.00  0.00    +0.164 A 
ATOM      6  C   UNL     1      -7.312  -6.671  -0.990  0.00  0.00    +0.077 A 
ATOM      7  C   UNL     1      -6.138  -6.021  -0.578  0.00  0.00    +0.077 A 
ATOM      8  N   UNL     1      -5.038  -6.725  -0.276  0.00  0.00    -0.253 NA
ATOM      9  C   UNL     1      -3.929  -6.147   0.110  0.00  0.00    +0.132 A 
ATOM     10  C   UNL     1      -3.828  -4.752   0.226  0.00  0.00    +0.091 A 
ENDROOT
BRANCH   1  11
ATOM     11  N   UNL     1      -4.889  -2.580   0.035  0.00  0.00    -0.313 N 
ATOM     12  H   UNL     1      -5.122  -2.148   0.872  0.00  0.00    +0.152 HD
BRANCH  11  16
ATOM     13  C   UNL     1      -3.716  -0.286  -3.241  0.00  0.00    +0.120 A 
ATOM     14  C   UNL     1      -3.932   0.320  -2.012  0.00  0.00    +0.047 A 
ATOM     15  C   UNL     1      -4.321  -0.439  -0.926  0.00  0.00    +0.027 A 
ATOM     16  C   UNL     1      -4.495  -1.810  -1.065  0.00  0.00    +0.032 A 
ATOM     17  C   UNL     1      -4.279  -2.416  -2.296  0.00  0.00    +0.027 A 
ATOM     18  C   UNL     1      -3.896  -1.654  -3.382  0.00  0.00    +0.047 A 
BRANCH  13  20
ATOM     19  C   UNL     1      -3.167   1.866  -4.093  0.00  0.00    +0.277 C 
ATOM     20  O   UNL     1      -3.333   0.463  -4.309  0.00  0.00    -0.495 OA
ENDBRANCH  13  20
ENDBRANCH  11  16
ENDBRANCH   1  11
BRANCH  10  21
ATOM     21  C   UNL     1      -2.600  -4.147   0.646  0.00  0.00    +0.103 C 
ATOM     22  N   UNL     1      -1.625  -3.668   0.979  0.00  0.00    -0.191 NA
ENDBRANCH  10  21
BRANCH   4  23
ATOM     23  O   UNL     1      -9.530  -3.822  -1.511  0.00  0.00    -0.491 OA
ATOM     24  C   UNL     1      -9.448  -2.400  -1.395  0.00  0.00    +0.277 C 
ENDBRANCH   4  23
BRANCH   5  25
ATOM     25  O   UNL     1      -9.566  -6.564  -1.695  0.00  0.00    -0.488 OA
BRANCH  25  26
ATOM     26  C   UNL     1      -9.522  -7.990  -1.771  0.00  0.00    +0.227 C 
BRANCH  26  27
ATOM     27  C   UNL     1     -10.881  -8.518  -2.233  0.00  0.00    +0.022 C 
BRANCH  27  28
ATOM     28  C   UNL     1     -10.834 -10.046  -2.315  0.00  0.00    -0.075 C 
BRANCH  28  29
ATOM     29  N   UNL     1     -12.139 -10.553  -2.759  0.00  0.00    +0.383 N 
ATOM     30  C   UNL     1     -13.154 -10.250  -1.741  0.00  0.00    -0.050 C 
ATOM     31  C   UNL     1     -14.513 -10.780  -2.206  0.00  0.00    +0.141 C 
ATOM     32  O   UNL     1     -14.414 -12.186  -2.447  0.00  0.00    -0.383 OA
ATOM     33  C   UNL     1     -13.420 -12.534  -3.415  0.00  0.00    +0.141 C 
ATOM     34  C   UNL     1     -12.059 -12.007  -2.952  0.00  0.00    -0.050 C 
ATOM     35  H   UNL     1     -12.393 -10.111  -3.630  0.00  0.00    -0.082 HD
ENDBRANCH  28  29
ENDBRANCH  27  28
ENDBRANCH  26  27
ENDBRANCH  25  26
ENDBRANCH   5  25
TORSDOF 10
