REMARK  Name = CHEMBL521320
REMARK  11 active torsions:
REMARK  status: ('A' for Active; 'I' for Inactive)
REMARK    1  A    between atoms: C_1  and  C_2
REMARK    2  A    between atoms: C_2  and  N_3
REMARK    3  A    between atoms: N_6  and  C_9
REMARK    4  A    between atoms: C_9  and  C_10
REMARK    5  A    between atoms: C_11  and  C_12
REMARK    6  A    between atoms: C_20  and  C_37
REMARK    7  A    between atoms: C_21  and  N_22
REMARK    8  A    between atoms: N_22  and  C_23
REMARK    9  A    between atoms: C_26  and  S_30
REMARK   10  A    between atoms: S_30  and  C_31
REMARK   11  A    between atoms: N_35  and  C_36
REMARK                            x       y       z     vdW  Elec       q    Type
REMARK                         _______ _______ _______ _____ _____    ______ ____
ROOT
ATOM      1  C   UNL     1       4.457  -8.642  -8.585  0.00  0.00    -0.023 A 
ATOM      2  C   UNL     1       4.976  -9.333  -7.477  0.00  0.00    +0.009 A 
ATOM      3  C   UNL     1       4.145  -9.883  -6.552  0.00  0.00    +0.012 A 
ATOM      4  C   UNL     1       2.754  -9.762  -6.699  0.00  0.00    +0.023 A 
ATOM      5  C   UNL     1       2.216  -9.068  -7.810  0.00  0.00    +0.073 A 
ATOM      6  C   UNL     1       3.088  -8.504  -8.751  0.00  0.00    +0.036 A 
ATOM      7  N   UNL     1       0.888  -8.949  -7.954  0.00  0.00    -0.254 NA
ATOM      8  C   UNL     1       0.048  -9.460  -7.090  0.00  0.00    +0.132 A 
ATOM      9  C   UNL     1       0.492 -10.163  -5.959  0.00  0.00    +0.091 A 
ATOM     10  C   UNL     1       1.871 -10.325  -5.748  0.00  0.00    +0.060 A 
ENDROOT
BRANCH   1  12
ATOM     11  C   UNL     1       6.690  -8.182  -9.424  0.00  0.00    -0.045 C 
ATOM     12  C   UNL     1       5.379  -8.053  -9.578  0.00  0.00    +0.002 C 
BRANCH  11  13
ATOM     13  C   UNL     1       7.630  -7.581 -10.437  0.00  0.00    -0.051 C 
BRANCH  13  17
ATOM     14  N   UNL     1      11.237  -5.854  -9.121  0.00  0.00    -0.306 NA
ATOM     15  C   UNL     1      10.398  -5.077 -10.045  0.00  0.00    +0.066 C 
ATOM     16  C   UNL     1       9.420  -6.016 -10.753  0.00  0.00    -0.063 C 
ATOM     17  N   UNL     1       8.582  -6.693  -9.755  0.00  0.00    +0.384 N 
ATOM     18  C   UNL     1       9.431  -7.485  -8.856  0.00  0.00    -0.063 C 
ATOM     19  C   UNL     1      10.410  -6.558  -8.131  0.00  0.00    +0.066 C 
ATOM     20  H   UNL     1       8.074  -6.005  -9.220  0.00  0.00    -0.081 HD
BRANCH  14  22
ATOM     21  C   UNL     1      13.226  -4.476  -9.502  0.00  0.00    +0.020 C 
ATOM     22  C   UNL     1      12.230  -4.995  -8.462  0.00  0.00    +0.081 C 
ENDBRANCH  14  22
ENDBRANCH  13  17
ENDBRANCH  11  13
ENDBRANCH   1  12
BRANCH  10  23
ATOM     23  N   UNL     1       2.348 -11.010  -4.650  0.00  0.00    -0.313 N 
ATOM     24  H   UNL     1       2.482 -10.545  -3.809  0.00  0.00    +0.152 HD
BRANCH  23  25
ATOM     25  C   UNL     1       2.639 -12.375  -4.749  0.00  0.00    +0.033 A 
ATOM     26  C   UNL     1       2.582 -13.009  -5.984  0.00  0.00    +0.024 A 
ATOM     27  C   UNL     1       2.869 -14.356  -6.082  0.00  0.00    +0.018 A 
ATOM     28  C   UNL     1       3.215 -15.077  -4.947  0.00  0.00    +0.034 A 
ATOM     29  C   UNL     1       3.273 -14.443  -3.711  0.00  0.00    +0.057 A 
ATOM     30  C   UNL     1       2.991 -13.094  -3.614  0.00  0.00    +0.044 A 
ATOM     31 CL   UNL     1       3.705 -15.344  -2.292  0.00  0.00    -0.082 Cl
BRANCH  28  32
ATOM     32  S   UNL     1       3.580 -16.797  -5.072  0.00  0.00    -0.050 S 
BRANCH  32  33
ATOM     33  C   UNL     1       5.334 -16.872  -4.928  0.00  0.00    +0.173 A 
ATOM     34  N   UNL     1       6.144 -15.841  -4.854  0.00  0.00    -0.230 NA
ATOM     35  C   UNL     1       7.410 -16.276  -4.752  0.00  0.00    +0.131 A 
ATOM     36  C   UNL     1       7.397 -17.621  -4.761  0.00  0.00    +0.107 A 
ATOM     37  N   UNL     1       6.081 -18.009  -4.867  0.00  0.00    -0.328 N 
ATOM     38  C   UNL     1       5.578 -19.384  -4.911  0.00  0.00    +0.151 C 
ENDBRANCH  32  33
ENDBRANCH  28  32
ENDBRANCH  23  25
ENDBRANCH  10  23
BRANCH   9  39
ATOM     39  C   UNL     1      -0.451 -10.710  -5.030  0.00  0.00    +0.103 C 
ATOM     40  N   UNL     1      -1.198 -11.143  -4.293  0.00  0.00    -0.191 NA
ENDBRANCH   9  39
TORSDOF 9
