REMARK  Name = CHEMBL375609
REMARK  7 active torsions:
REMARK  status: ('A' for Active; 'I' for Inactive)
REMARK    1  A    between atoms: CB_1  and  CA_2
REMARK    2  A    between atoms: CA_2  and  C_3
REMARK    3  A    between atoms: CA_2  and  N_5
REMARK    4  A    between atoms: C_3  and  O_4
REMARK    5  A    between atoms: C_6  and  C_7
REMARK    6  A    between atoms: C_11  and  N_12
REMARK    7  A    between atoms: N_12  and  C_13
REMARK                            x       y       z     vdW  Elec       q    Type
REMARK                         _______ _______ _______ _____ _____    ______ ____
ROOT
ATOM      1  C   UNK A   0      -3.312  -1.236  -1.022  0.00  0.00    +0.106 A 
ATOM      2  C   UNK A   0      -3.905  -1.721   0.142  0.00  0.00    +0.268 A 
ATOM      3  N   UNK A   0      -5.171  -2.164   0.029  0.00  0.00    -0.291 N 
ATOM      4  S   UNK A   0      -5.559  -1.941  -1.582  0.00  0.00    +0.005 S 
ATOM      5  C   UNK A   0      -4.130  -1.275  -2.154  0.00  0.00    +0.102 A 
ATOM      6  O   UNK A   0      -3.310  -1.743   1.207  0.00  0.00    -0.267 OA
ATOM      7  H   UNK A   0      -5.734  -2.532   0.727  0.00  0.00    +0.177 HD
ENDROOT
BRANCH   1   9
ATOM      8  N   ALA A   1      -1.255  -0.599   0.055  0.00  0.00    -0.368 N 
ATOM      9  C   UNK A   0      -1.935  -0.718  -1.055  0.00  0.00    +0.105 C 
ATOM     10  N   UNK A   0      -1.362  -0.358  -2.257  0.00  0.00    -0.344 N 
ATOM     11  H   UNK A   0      -0.430  -0.092  -2.290  0.00  0.00    +0.144 HD
ATOM     12  H   UNK A   0      -1.892  -0.371  -3.070  0.00  0.00    +0.144 HD
ATOM     13  H   ALA A   1      -1.657  -0.853   0.901  0.00  0.00    +0.161 HD
BRANCH   8  15
ATOM     14  CB  ALA A   1       0.087   1.446   0.049  0.00  0.00    +0.032 C 
ATOM     15  CA  ALA A   1       0.116  -0.084   0.022  0.00  0.00    +0.103 C 
BRANCH  15  16
ATOM     16  C   ALA A   1       0.885  -0.600   1.241  0.00  0.00    +0.180 C 
BRANCH  16  17
ATOM     17  O   ALA A   1       0.307  -0.062   2.432  0.00  0.00    -0.393 OA
ATOM     18  H   ALA A   1       0.745  -0.348   3.245  0.00  0.00    +0.209 HD
ENDBRANCH  16  17
ENDBRANCH  15  16
ENDBRANCH   8  15
ENDBRANCH   1   9
BRANCH   5  19
ATOM     19  N   UNK A   0      -3.834  -0.867  -3.433  0.00  0.00    -0.306 N 
ATOM     20  H   UNK A   0      -3.084  -1.260  -3.906  0.00  0.00    +0.153 HD
BRANCH  19  21
ATOM     21  C   UNK A   0      -4.615   0.114  -4.053  0.00  0.00    +0.052 A 
ATOM     22  C   UNK A   0      -5.734   0.623  -3.407  0.00  0.00    +0.025 A 
ATOM     23  C   UNK A   0      -6.503   1.592  -4.021  0.00  0.00    +0.003 A 
ATOM     24  C   UNK A   0      -6.161   2.056  -5.278  0.00  0.00    +0.021 A 
ATOM     25  C   UNK A   0      -5.047   1.552  -5.926  0.00  0.00    +0.061 A 
ATOM     26  C   UNK A   0      -4.269   0.586  -5.313  0.00  0.00    +0.080 A 
ATOM     27 CL   UNK A   0      -2.866  -0.042  -6.122  0.00  0.00    -0.080 Cl
ATOM     28 CL   UNK A   0      -4.622   2.136  -7.504  0.00  0.00    -0.082 Cl
ENDBRANCH  19  21
ENDBRANCH   5  19
TORSDOF 6
