REMARK  Name = CHEMBL253116
REMARK  8 active torsions:
REMARK  status: ('A' for Active; 'I' for Inactive)
REMARK    1  A    between atoms: CB_1  and  CA_2
REMARK    2  A    between atoms: CA_2  and  C_3
REMARK    3  A    between atoms: CA_2  and  N_5
REMARK    4  A    between atoms: C_3  and  O_4
REMARK    5  A    between atoms: C_6  and  C_8
REMARK    6  A    between atoms: N_13  and  C_14
REMARK    7  A    between atoms: C_17  and  N_20
REMARK    8  A    between atoms: N_20  and  C_21
REMARK                            x       y       z     vdW  Elec       q    Type
REMARK                         _______ _______ _______ _____ _____    ______ ____
ROOT
ATOM      1  C   UNK A   0       0.953  -1.226  -3.813  0.00  0.00    +0.193 C 
ATOM      2  C   UNK A   0       1.594  -0.092  -4.543  0.00  0.00    +0.239 C 
ATOM      3  N   UNK A   0       1.183   0.162  -5.786  0.00  0.00    -0.254 N 
ATOM      4  S   UNK A   0      -0.007  -0.941  -6.175  0.00  0.00    -0.006 S 
ATOM      5  C   UNK A   0      -0.097  -1.900  -4.677  0.00  0.00    +0.112 C 
ATOM      6  N   UNK A   0      -0.865  -2.917  -4.397  0.00  0.00    -0.243 NA
ATOM      7  O   UNK A   0       2.462   0.577  -4.021  0.00  0.00    -0.274 OA
ATOM      8  H   UNK A   0       1.517   0.867  -6.363  0.00  0.00    +0.163 HD
ENDROOT
BRANCH   1  10
ATOM      9  N   ALA A   1       1.031  -0.580  -1.407  0.00  0.00    -0.329 N 
ATOM     10  C   UNK A   0       0.300  -0.703  -2.559  0.00  0.00    +0.084 C 
ATOM     11  N   UNK A   0      -0.949  -0.369  -2.571  0.00  0.00    -0.390 N 
ATOM     12  H   ALA A   1       1.969  -0.830  -1.398  0.00  0.00    +0.147 HD
ATOM     13  H   UNK A   0      -1.467  -0.456  -3.386  0.00  0.00    +0.157 HD
ATOM     14  H   UNK A   0      -1.369  -0.033  -1.764  0.00  0.00    +0.157 HD
BRANCH   9  16
ATOM     15  CB  ALA A   1       0.429   1.459  -0.197  0.00  0.00    +0.030 C 
ATOM     16  CA  ALA A   1       0.398  -0.071  -0.188  0.00  0.00    +0.094 C 
BRANCH  16  17
ATOM     17  C   ALA A   1       1.156  -0.589   1.036  0.00  0.00    +0.177 C 
BRANCH  17  18
ATOM     18  O   ALA A   1       2.478  -0.046   1.042  0.00  0.00    -0.393 OA
ATOM     19  H   ALA A   1       3.017  -0.333   1.792  0.00  0.00    +0.209 HD
ENDBRANCH  17  18
ENDBRANCH  16  17
ENDBRANCH   9  16
ENDBRANCH   1  10
BRANCH   6  20
ATOM     20  C   UNK A   0      -1.758  -3.379  -5.329  0.00  0.00    +0.065 A 
ATOM     21  C   UNK A   0      -2.546  -2.479  -6.049  0.00  0.00    +0.029 A 
ATOM     22  C   UNK A   0      -3.443  -2.947  -6.986  0.00  0.00    +0.025 A 
ATOM     23  C   UNK A   0      -3.565  -4.313  -7.212  0.00  0.00    +0.031 A 
ATOM     24  C   UNK A   0      -2.783  -5.212  -6.496  0.00  0.00    +0.025 A 
ATOM     25  C   UNK A   0      -1.879  -4.750  -5.562  0.00  0.00    +0.029 A 
BRANCH  23  26
ATOM     26  N   UNK A   0      -4.477  -4.784  -8.162  0.00  0.00    -0.314 N 
ATOM     27  H   UNK A   0      -4.837  -5.682  -8.085  0.00  0.00    +0.152 HD
BRANCH  26  28
ATOM     28  C   UNK A   0      -4.869  -3.963  -9.222  0.00  0.00    +0.031 A 
ATOM     29  C   UNK A   0      -3.976  -3.042  -9.756  0.00  0.00    +0.023 A 
ATOM     30  C   UNK A   0      -4.366  -2.232 -10.803  0.00  0.00    +0.002 A 
ATOM     31  C   UNK A   0      -5.645  -2.335 -11.321  0.00  0.00    +0.000 A 
ATOM     32  C   UNK A   0      -6.536  -3.251 -10.791  0.00  0.00    +0.002 A 
ATOM     33  C   UNK A   0      -6.150  -4.069  -9.748  0.00  0.00    +0.023 A 
ENDBRANCH  26  28
ENDBRANCH  23  26
ENDBRANCH   6  20
TORSDOF 7
