REMARK  Name = CHEMBL285905
REMARK  8 active torsions:
REMARK  status: ('A' for Active; 'I' for Inactive)
REMARK    1  A    between atoms: C_4  and  O_7
REMARK    2  A    between atoms: O_7  and  C_8
REMARK    3  A    between atoms: C_13  and  C_14
REMARK    4  A    between atoms: C_14  and  C_25
REMARK    5  A    between atoms: C_15  and  N_16
REMARK    6  A    between atoms: C_15  and  S_17
REMARK    7  A    between atoms: S_17  and  C_18
REMARK    8  A    between atoms: C_23  and  N_24
REMARK                            x       y       z     vdW  Elec       q    Type
REMARK                         _______ _______ _______ _____ _____    ______ ____
ROOT
ATOM      1  C   UNL     1       5.978  -1.914   0.074  0.00  0.00    +0.090 C 
ATOM      2  C   UNL     1       6.857  -2.032  -0.992  0.00  0.00    +0.082 C 
ENDROOT
BRANCH   1   8
ATOM      3  C   UNL     1       3.496  -1.981  -0.193  0.00  0.00    +0.137 A 
ATOM      4  C   UNL     1       2.303  -2.683  -0.208  0.00  0.00    +0.047 A 
ATOM      5  C   UNL     1       2.297  -4.045   0.034  0.00  0.00    +0.004 A 
ATOM      6  C   UNL     1       3.481  -4.714   0.291  0.00  0.00    +0.001 A 
ATOM      7  C   UNL     1       4.678  -4.027   0.309  0.00  0.00    +0.013 A 
ATOM      8  C   UNL     1       4.696  -2.655   0.061  0.00  0.00    +0.037 A 
BRANCH   3   9
ATOM      9  O   UNL     1       3.503  -0.642  -0.429  0.00  0.00    -0.455 OA
BRANCH   9  13
ATOM     10  C   UNL     1      -0.126   1.256  -0.924  0.00  0.00    +0.000 A 
ATOM     11  C   UNL     1       0.293   0.887   0.341  0.00  0.00    +0.004 A 
ATOM     12  C   UNL     1       1.508   0.251   0.509  0.00  0.00    +0.046 A 
ATOM     13  C   UNL     1       2.308  -0.017  -0.592  0.00  0.00    +0.128 A 
ATOM     14  C   UNL     1       1.885   0.354  -1.861  0.00  0.00    +0.046 A 
ATOM     15  C   UNL     1       0.669   0.990  -2.023  0.00  0.00    +0.004 A 
ENDBRANCH   9  13
ENDBRANCH   3   9
ENDBRANCH   1   8
BRANCH   2  16
ATOM     16  N   UNL     1       6.540  -2.836  -2.059  0.00  0.00    -0.352 N 
ATOM     17  H   UNL     1       5.667  -3.257  -2.106  0.00  0.00    +0.143 HD
ATOM     18  H   UNL     1       7.188  -2.983  -2.765  0.00  0.00    +0.143 HD
ENDBRANCH   2  16
BRANCH   1  19
ATOM     19  C   UNL     1       6.309  -1.075   1.186  0.00  0.00    +0.102 C 
ATOM     20  N   UNL     1       6.572  -0.410   2.068  0.00  0.00    -0.191 NA
ENDBRANCH   1  19
BRANCH   2  21
ATOM     21  S   UNL     1       8.383  -1.150  -0.978  0.00  0.00    -0.072 S 
BRANCH  21  22
ATOM     22  C   UNL     1       8.207   0.026  -2.278  0.00  0.00    +0.035 A 
ATOM     23  C   UNL     1       6.998   0.149  -2.946  0.00  0.00    +0.017 A 
ATOM     24  C   UNL     1       6.863   1.073  -3.966  0.00  0.00    +0.001 A 
ATOM     25  C   UNL     1       7.930   1.876  -4.323  0.00  0.00    +0.002 A 
ATOM     26  C   UNL     1       9.139   1.760  -3.663  0.00  0.00    +0.024 A 
ATOM     27  C   UNL     1       9.283   0.841  -2.634  0.00  0.00    +0.039 A 
BRANCH  27  28
ATOM     28  N   UNL     1      10.503   0.726  -1.960  0.00  0.00    -0.357 N 
ATOM     29  H   UNL     1      10.603   0.080  -1.244  0.00  0.00    +0.142 HD
ATOM     30  H   UNL     1      11.250   1.293  -2.210  0.00  0.00    +0.142 HD
ENDBRANCH  27  28
ENDBRANCH  21  22
ENDBRANCH   2  21
TORSDOF 8
