REMARK  Name = CHEMBL106489
REMARK  14 active torsions:
REMARK  status: ('A' for Active; 'I' for Inactive)
REMARK    1  A    between atoms: C_1  and  C_2
REMARK    2  A    between atoms: C_5  and  S_8
REMARK    3  A    between atoms: N_6  and  C_7
REMARK    4  A    between atoms: S_8  and  C_9
REMARK    5  A    between atoms: C_12  and  N_16
REMARK    6  A    between atoms: N_16  and  C_17
REMARK    7  A    between atoms: C_20  and  O_39
REMARK    8  A    between atoms: C_21  and  O_29
REMARK    9  A    between atoms: C_26  and  C_27
REMARK   10  A    between atoms: O_29  and  C_30
REMARK   11  A    between atoms: C_30  and  C_31
REMARK   12  A    between atoms: C_31  and  C_32
REMARK   13  A    between atoms: C_32  and  N_33
REMARK   14  A    between atoms: O_39  and  C_40
REMARK                            x       y       z     vdW  Elec       q    Type
REMARK                         _______ _______ _______ _____ _____    ______ ____
ROOT
ATOM      1  C   UNL     1       0.090  -9.566  -1.406  0.00  0.00    +0.060 A 
ATOM      2  C   UNL     1       0.342 -10.717  -2.188  0.00  0.00    +0.026 A 
ATOM      3  C   UNL     1       0.756 -10.607  -3.524  0.00  0.00    +0.061 A 
ATOM      4  C   UNL     1       0.993 -11.734  -4.257  0.00  0.00    +0.162 A 
ATOM      5  C   UNL     1       0.825 -13.004  -3.687  0.00  0.00    +0.164 A 
ATOM      6  C   UNL     1       0.419 -13.139  -2.379  0.00  0.00    +0.077 A 
ATOM      7  C   UNL     1       0.170 -11.996  -1.605  0.00  0.00    +0.077 A 
ATOM      8  N   UNL     1      -0.227 -12.108  -0.329  0.00  0.00    -0.253 NA
ATOM      9  C   UNL     1      -0.467 -11.061   0.418  0.00  0.00    +0.132 A 
ATOM     10  C   UNL     1      -0.316  -9.755  -0.076  0.00  0.00    +0.091 A 
ENDROOT
BRANCH   1  11
ATOM     11  N   UNL     1       0.244  -8.299  -1.931  0.00  0.00    -0.313 N 
ATOM     12  H   UNL     1      -0.517  -7.840  -2.320  0.00  0.00    +0.152 HD
BRANCH  11  16
ATOM     13  C   UNL     1       3.978  -6.447  -1.849  0.00  0.00    +0.034 A 
ATOM     14  C   UNL     1       2.861  -5.740  -2.277  0.00  0.00    +0.018 A 
ATOM     15  C   UNL     1       1.625  -6.354  -2.305  0.00  0.00    +0.024 A 
ATOM     16  C   UNL     1       1.498  -7.678  -1.904  0.00  0.00    +0.033 A 
ATOM     17  C   UNL     1       2.614  -8.385  -1.476  0.00  0.00    +0.044 A 
ATOM     18  C   UNL     1       3.852  -7.773  -1.454  0.00  0.00    +0.057 A 
ATOM     19 CL   UNL     1       5.249  -8.659  -0.925  0.00  0.00    -0.082 Cl
BRANCH  13  20
ATOM     20  S   UNL     1       5.556  -5.663  -1.815  0.00  0.00    -0.050 S 
BRANCH  20  25
ATOM     21  C   UNL     1       7.710  -4.131   2.805  0.00  0.00    +0.065 C 
ATOM     22  C   UNL     1       6.778  -4.748   1.793  0.00  0.00    +0.036 A 
ATOM     23  C   UNL     1       5.647  -5.425   2.056  0.00  0.00    +0.134 A 
ATOM     24  N   UNL     1       5.105  -5.811   0.889  0.00  0.00    -0.230 NA
ATOM     25  C   UNL     1       5.862  -5.396  -0.100  0.00  0.00    +0.174 A 
ATOM     26  N   UNL     1       6.920  -4.719   0.424  0.00  0.00    -0.326 N 
ATOM     27  C   UNL     1       8.006  -4.084  -0.326  0.00  0.00    +0.151 C 
ENDBRANCH  20  25
ENDBRANCH  13  20
ENDBRANCH  11  16
ENDBRANCH   1  11
BRANCH  10  28
ATOM     28  C   UNL     1      -0.580  -8.628   0.767  0.00  0.00    +0.103 C 
ATOM     29  N   UNL     1      -0.789  -7.733   1.436  0.00  0.00    -0.191 NA
ENDBRANCH  10  28
BRANCH   4  30
ATOM     30  O   UNL     1       1.394 -11.624  -5.551  0.00  0.00    -0.491 OA
ATOM     31  C   UNL     1       1.546 -10.302  -6.073  0.00  0.00    +0.277 C 
ENDBRANCH   4  30
BRANCH   5  32
ATOM     32  O   UNL     1       1.066 -14.113  -4.434  0.00  0.00    -0.488 OA
BRANCH  32  33
ATOM     33  C   UNL     1       0.877 -15.378  -3.797  0.00  0.00    +0.227 C 
BRANCH  33  34
ATOM     34  C   UNL     1       1.194 -16.500  -4.788  0.00  0.00    +0.022 C 
BRANCH  34  35
ATOM     35  C   UNL     1       0.991 -17.855  -4.106  0.00  0.00    -0.075 C 
BRANCH  35  36
ATOM     36  N   UNL     1       1.295 -18.932  -5.058  0.00  0.00    +0.383 N 
ATOM     37  C   UNL     1       0.322 -18.903  -6.158  0.00  0.00    -0.050 C 
ATOM     38  C   UNL     1       0.641 -20.026  -7.148  0.00  0.00    +0.141 C 
ATOM     39  O   UNL     1       0.620 -21.280  -6.461  0.00  0.00    -0.383 OA
ATOM     40  C   UNL     1       1.535 -21.349  -5.364  0.00  0.00    +0.141 C 
ATOM     41  C   UNL     1       1.218 -20.228  -4.371  0.00  0.00    -0.050 C 
ATOM     42  H   UNL     1       2.225 -18.802  -5.427  0.00  0.00    -0.082 HD
ENDBRANCH  35  36
ENDBRANCH  34  35
ENDBRANCH  33  34
ENDBRANCH  32  33
ENDBRANCH   5  32
TORSDOF 11
