REMARK  Name = CHEMBL485238
REMARK  10 active torsions:
REMARK  status: ('A' for Active; 'I' for Inactive)
REMARK    1  A    between atoms: C_1  and  N_2
REMARK    2  A    between atoms: C_6  and  S_7
REMARK    3  A    between atoms: S_7  and  C_8
REMARK    4  A    between atoms: C_11  and  N_15
REMARK    5  A    between atoms: N_15  and  C_16
REMARK    6  A    between atoms: C_20  and  C_28
REMARK    7  A    between atoms: C_25  and  C_26
REMARK    8  A    between atoms: C_29  and  C_30
REMARK    9  A    between atoms: C_30  and  C_31
REMARK   10  A    between atoms: C_31  and  N_32
REMARK                            x       y       z     vdW  Elec       q    Type
REMARK                         _______ _______ _______ _____ _____    ______ ____
ROOT
ATOM      1  C   UNL     1       0.101  -4.955   7.625  0.00  0.00    +0.060 A 
ATOM      2  C   UNL     1       0.362  -6.036   8.499  0.00  0.00    +0.023 A 
ATOM      3  C   UNL     1       0.797  -7.276   8.004  0.00  0.00    +0.012 A 
ATOM      4  C   UNL     1       1.043  -8.302   8.861  0.00  0.00    +0.009 A 
ATOM      5  C   UNL     1       0.867  -8.136  10.245  0.00  0.00    -0.023 A 
ATOM      6  C   UNL     1       0.439  -6.923  10.760  0.00  0.00    +0.036 A 
ATOM      7  C   UNL     1       0.181  -5.853   9.891  0.00  0.00    +0.073 A 
ATOM      8  N   UNL     1      -0.234  -4.670  10.369  0.00  0.00    -0.254 NA
ATOM      9  C   UNL     1      -0.483  -3.654   9.584  0.00  0.00    +0.132 A 
ATOM     10  C   UNL     1      -0.325  -3.743   8.192  0.00  0.00    +0.091 A 
ENDROOT
BRANCH   1  11
ATOM     11  N   UNL     1       0.263  -5.085   6.261  0.00  0.00    -0.313 N 
ATOM     12  H   UNL     1      -0.491  -5.334   5.705  0.00  0.00    +0.152 HD
BRANCH  11  16
ATOM     13  C   UNL     1       3.997  -4.411   4.532  0.00  0.00    +0.034 A 
ATOM     14  C   UNL     1       2.886  -4.628   3.726  0.00  0.00    +0.018 A 
ATOM     15  C   UNL     1       1.651  -4.851   4.299  0.00  0.00    +0.024 A 
ATOM     16  C   UNL     1       1.516  -4.859   5.681  0.00  0.00    +0.033 A 
ATOM     17  C   UNL     1       2.626  -4.641   6.488  0.00  0.00    +0.044 A 
ATOM     18  C   UNL     1       3.864  -4.424   5.916  0.00  0.00    +0.057 A 
ATOM     19 CL   UNL     1       5.253  -4.160   6.924  0.00  0.00    -0.082 Cl
BRANCH  13  20
ATOM     20  S   UNL     1       5.574  -4.126   3.801  0.00  0.00    -0.050 S 
BRANCH  20  26
ATOM     21  C   UNL     1       8.186  -2.280   3.100  0.00  0.00    +0.151 C 
ATOM     22  N   UNL     1       6.963  -1.713   3.675  0.00  0.00    -0.328 N 
ATOM     23  C   UNL     1       6.740  -0.391   3.983  0.00  0.00    +0.107 A 
ATOM     24  C   UNL     1       5.496  -0.309   4.485  0.00  0.00    +0.131 A 
ATOM     25  N   UNL     1       4.961  -1.541   4.490  0.00  0.00    -0.230 NA
ATOM     26  C   UNL     1       5.830  -2.394   4.000  0.00  0.00    +0.173 A 
ENDBRANCH  20  26
ENDBRANCH  13  20
ENDBRANCH  11  16
ENDBRANCH   1  11
BRANCH  10  27
ATOM     27  C   UNL     1      -0.599  -2.612   7.358  0.00  0.00    +0.103 C 
ATOM     28  N   UNL     1      -0.816  -1.714   6.697  0.00  0.00    -0.191 NA
ENDBRANCH  10  27
BRANCH   5  29
ATOM     29  C   UNL     1       1.140  -9.264  11.159  0.00  0.00    +0.004 C 
ATOM     30  C   UNL     1       1.549 -10.428  10.671  0.00  0.00    -0.028 C 
BRANCH  30  31
ATOM     31  C   UNL     1       1.828 -11.579  11.603  0.00  0.00    +0.008 C 
BRANCH  31  32
ATOM     32  C   UNL     1       1.006 -12.795  11.171  0.00  0.00    -0.075 C 
BRANCH  32  33
ATOM     33  N   UNL     1       1.277 -13.917  12.080  0.00  0.00    +0.380 N 
ATOM     34  C   UNL     1       2.682 -14.322  11.949  0.00  0.00    -0.079 C 
ATOM     35  C   UNL     1       2.991 -15.436  12.951  0.00  0.00    -0.019 C 
ATOM     36  C   UNL     1       2.084 -16.637  12.666  0.00  0.00    -0.004 C 
ATOM     37  C   UNL     1       0.622 -16.186  12.732  0.00  0.00    -0.019 C 
ATOM     38  C   UNL     1       0.401 -15.044  11.738  0.00  0.00    -0.079 C 
ATOM     39  H   UNL     1       1.099 -13.630  13.030  0.00  0.00    -0.082 HD
ENDBRANCH  32  33
ENDBRANCH  31  32
ENDBRANCH  30  31
ENDBRANCH   5  29
TORSDOF 9
