REMARK  Name = CHEMBL37504
REMARK  8 active torsions:
REMARK  status: ('A' for Active; 'I' for Inactive)
REMARK    1  A    between atoms: C_4  and  O_7
REMARK    2  A    between atoms: O_7  and  C_8
REMARK    3  A    between atoms: C_12  and  C_14
REMARK    4  A    between atoms: C_14  and  C_25
REMARK    5  A    between atoms: C_15  and  N_16
REMARK    6  A    between atoms: C_15  and  S_17
REMARK    7  A    between atoms: S_17  and  C_18
REMARK    8  A    between atoms: C_23  and  N_24
REMARK                            x       y       z     vdW  Elec       q    Type
REMARK                         _______ _______ _______ _____ _____    ______ ____
ROOT
ATOM      1  C   UNL     1       5.689  -5.123  -0.043  0.00  0.00    +0.086 C 
ATOM      2  C   UNL     1       6.002  -5.840  -1.189  0.00  0.00    +0.082 C 
ENDROOT
BRANCH   1   7
ATOM      3  C   UNL     1       3.350  -2.185   0.169  0.00  0.00    +0.129 A 
ATOM      4  C   UNL     1       2.116  -2.820   0.112  0.00  0.00    +0.046 A 
ATOM      5  C   UNL     1       2.046  -4.197   0.004  0.00  0.00    +0.004 A 
ATOM      6  C   UNL     1       3.203  -4.949  -0.046  0.00  0.00    +0.009 A 
ATOM      7  C   UNL     1       4.447  -4.319   0.010  0.00  0.00    -0.002 A 
ATOM      8  C   UNL     1       4.516  -2.930   0.114  0.00  0.00    +0.055 A 
BRANCH   3   9
ATOM      9  O   UNL     1       3.413  -0.832   0.274  0.00  0.00    -0.456 OA
BRANCH   9  13
ATOM     10  C   UNL     1       4.288   1.337  -3.124  0.00  0.00    +0.000 A 
ATOM     11  C   UNL     1       3.988   1.993  -1.945  0.00  0.00    +0.004 A 
ATOM     12  C   UNL     1       3.695   1.270  -0.806  0.00  0.00    +0.046 A 
ATOM     13  C   UNL     1       3.701  -0.117  -0.845  0.00  0.00    +0.128 A 
ATOM     14  C   UNL     1       4.003  -0.774  -2.030  0.00  0.00    +0.046 A 
ATOM     15  C   UNL     1       4.296  -0.045  -3.167  0.00  0.00    +0.004 A 
ENDBRANCH   9  13
ENDBRANCH   3   9
ENDBRANCH   1   7
BRANCH   2  16
ATOM     16  N   UNL     1       7.153  -6.585  -1.238  0.00  0.00    -0.352 N 
ATOM     17  H   UNL     1       7.710  -6.671  -0.449  0.00  0.00    +0.143 HD
ATOM     18  H   UNL     1       7.411  -7.026  -2.063  0.00  0.00    +0.143 HD
ENDBRANCH   2  16
BRANCH   1  19
ATOM     19  C   UNL     1       6.567  -5.160   1.087  0.00  0.00    +0.102 C 
ATOM     20  N   UNL     1       7.264  -5.189   1.984  0.00  0.00    -0.191 NA
ENDBRANCH   1  19
BRANCH   2  21
ATOM     21  S   UNL     1       4.921  -5.795  -2.580  0.00  0.00    -0.072 S 
BRANCH  21  22
ATOM     22  C   UNL     1       4.363  -7.459  -2.740  0.00  0.00    +0.035 A 
ATOM     23  C   UNL     1       4.696  -8.400  -1.777  0.00  0.00    +0.017 A 
ATOM     24  C   UNL     1       4.256  -9.704  -1.905  0.00  0.00    +0.001 A 
ATOM     25  C   UNL     1       3.486 -10.076  -2.991  0.00  0.00    +0.002 A 
ATOM     26  C   UNL     1       3.149  -9.144  -3.956  0.00  0.00    +0.024 A 
ATOM     27  C   UNL     1       3.580  -7.832  -3.833  0.00  0.00    +0.039 A 
BRANCH  27  28
ATOM     28  N   UNL     1       3.235  -6.886  -4.804  0.00  0.00    -0.357 N 
ATOM     29  H   UNL     1       3.541  -5.970  -4.719  0.00  0.00    +0.142 HD
ATOM     30  H   UNL     1       2.691  -7.147  -5.564  0.00  0.00    +0.142 HD
ENDBRANCH  27  28
ENDBRANCH  21  22
ENDBRANCH   2  21
TORSDOF 8
