REMARK  Name = CHEMBL265786
REMARK  13 active torsions:
REMARK  status: ('A' for Active; 'I' for Inactive)
REMARK    1  A    between atoms: C_1  and  C_2
REMARK    2  A    between atoms: C_3  and  N_29
REMARK    3  A    between atoms: C_7  and  N_13
REMARK    4  A    between atoms: C_8  and  C_11
REMARK    5  A    between atoms: N_13  and  C_14
REMARK    6  A    between atoms: C_17  and  O_20
REMARK    7  A    between atoms: O_20  and  C_21
REMARK    8  A    between atoms: C_26  and  O_27
REMARK    9  A    between atoms: O_27  and  C_28
REMARK   10  A    between atoms: C_30  and  O_32
REMARK   11  A    between atoms: O_32  and  C_33
REMARK   12  A    between atoms: C_33  and  C_34
REMARK   13  A    between atoms: C_34  and  N_35
REMARK                            x       y       z     vdW  Elec       q    Type
REMARK                         _______ _______ _______ _____ _____    ______ ____
ROOT
ATOM      1  C   UNL     1      -0.035   1.110   0.315  0.00  0.00    +0.048 C 
ATOM      2  C   UNL     1      -0.157  -0.384   0.160  0.00  0.00    -0.000 A 
ATOM      3  C   UNL     1      -0.723  -1.065  -0.922  0.00  0.00    +0.060 A 
ATOM      4  C   UNL     1      -0.633  -2.401  -0.668  0.00  0.00    +0.136 A 
ATOM      5  N   UNL     1      -0.030  -2.583   0.536  0.00  0.00    -0.236 N 
ATOM      6  C   UNL     1       0.277  -1.344   1.060  0.00  0.00    +0.092 A 
ATOM      7  C   UNL     1       0.921  -1.259   2.313  0.00  0.00    +0.077 A 
ATOM      8  C   UNL     1       1.234  -2.445   2.989  0.00  0.00    +0.095 A 
ATOM      9  C   UNL     1       0.898  -3.687   2.401  0.00  0.00    +0.154 A 
ATOM     10  N   UNL     1       0.296  -3.744   1.248  0.00  0.00    -0.173 NA
ENDROOT
BRANCH   3  11
ATOM     11  N   UNL     1      -1.286  -0.476  -2.068  0.00  0.00    -0.249 N 
ATOM     12  C   UNL     1      -1.800  -1.253  -3.042  0.00  0.00    +0.405 C 
ATOM     13  O   UNL     1      -1.778  -2.463  -2.929  0.00  0.00    -0.226 OA
ATOM     14  H   UNL     1      -1.304   0.490  -2.159  0.00  0.00    +0.158 HD
BRANCH  12  15
ATOM     15  O   UNL     1      -2.339  -0.689  -4.140  0.00  0.00    -0.452 OA
BRANCH  15  16
ATOM     16  C   UNL     1      -2.865  -1.573  -5.131  0.00  0.00    +0.215 C 
BRANCH  16  17
ATOM     17  C   UNL     1      -3.430  -0.756  -6.295  0.00  0.00    -0.037 C 
BRANCH  17  18
ATOM     18  N   UNL     1      -2.339  -0.028  -6.957  0.00  0.00    +0.385 N 
ATOM     19  C   UNL     1      -2.896   0.862  -7.984  0.00  0.00    -0.050 C 
ATOM     20  C   UNL     1      -1.758   1.620  -8.672  0.00  0.00    +0.141 C 
ATOM     21  O   UNL     1      -0.838   0.680  -9.235  0.00  0.00    -0.383 OA
ATOM     22  C   UNL     1      -0.285  -0.226  -8.276  0.00  0.00    +0.141 C 
ATOM     23  C   UNL     1      -1.421  -0.987  -7.587  0.00  0.00    -0.050 C 
ATOM     24  H   UNL     1      -1.837   0.519  -6.274  0.00  0.00    -0.081 HD
ENDBRANCH  17  18
ENDBRANCH  16  17
ENDBRANCH  15  16
ENDBRANCH  12  15
ENDBRANCH   3  11
BRANCH   8  25
ATOM     25  C   UNL     1       1.887  -2.401   4.262  0.00  0.00    +0.103 C 
ATOM     26  N   UNL     1       2.406  -2.366   5.272  0.00  0.00    -0.191 NA
ENDBRANCH   8  25
BRANCH   7  27
ATOM     27  N   UNL     1       1.237  -0.030   2.861  0.00  0.00    -0.312 N 
ATOM     28  H   UNL     1       0.826   0.249   3.695  0.00  0.00    +0.152 HD
BRANCH  27  29
ATOM     29  C   UNL     1       2.148   0.811   2.214  0.00  0.00    +0.032 A 
ATOM     30  C   UNL     1       2.872   0.344   1.124  0.00  0.00    +0.027 A 
ATOM     31  C   UNL     1       3.772   1.175   0.486  0.00  0.00    +0.048 A 
ATOM     32  C   UNL     1       3.953   2.476   0.934  0.00  0.00    +0.129 A 
ATOM     33  C   UNL     1       3.231   2.943   2.022  0.00  0.00    +0.048 A 
ATOM     34  C   UNL     1       2.326   2.115   2.658  0.00  0.00    +0.027 A 
BRANCH  32  35
ATOM     35  O   UNL     1       4.840   3.293   0.306  0.00  0.00    -0.452 OA
BRANCH  35  36
ATOM     36  C   UNL     1       6.014   3.563   0.934  0.00  0.00    +0.170 A 
ATOM     37  C   UNL     1       6.330   2.924   2.123  0.00  0.00    +0.050 A 
ATOM     38  C   UNL     1       7.525   3.200   2.760  0.00  0.00    +0.004 A 
ATOM     39  C   UNL     1       8.408   4.113   2.215  0.00  0.00    +0.004 A 
ATOM     40  C   UNL     1       8.100   4.754   1.029  0.00  0.00    +0.049 A 
ATOM     41  C   UNL     1       6.906   4.479   0.383  0.00  0.00    +0.162 A 
BRANCH  41  42
ATOM     42  O   UNL     1       6.604   5.105  -0.786  0.00  0.00    -0.491 OA
ATOM     43  C   UNL     1       7.566   6.032  -1.293  0.00  0.00    +0.277 C 
ENDBRANCH  41  42
ENDBRANCH  35  36
ENDBRANCH  32  35
ENDBRANCH  27  29
ENDBRANCH   7  27
TORSDOF 11
