REMARK  Name = CHEMBL320688
REMARK  13 active torsions:
REMARK  status: ('A' for Active; 'I' for Inactive)
REMARK    1  A    between atoms: C_1  and  N_2
REMARK    2  A    between atoms: C_6  and  C_7
REMARK    3  A    between atoms: C_7  and  C_8
REMARK    4  A    between atoms: C_11  and  N_15
REMARK    5  A    between atoms: N_15  and  C_16
REMARK    6  A    between atoms: C_19  and  O_38
REMARK    7  A    between atoms: C_20  and  O_28
REMARK    8  A    between atoms: C_25  and  C_26
REMARK    9  A    between atoms: O_28  and  C_29
REMARK   10  A    between atoms: C_29  and  C_30
REMARK   11  A    between atoms: C_30  and  C_31
REMARK   12  A    between atoms: C_31  and  N_32
REMARK   13  A    between atoms: O_38  and  C_39
REMARK                            x       y       z     vdW  Elec       q    Type
REMARK                         _______ _______ _______ _____ _____    ______ ____
ROOT
ATOM      1  C   UNL     1       5.613   1.827   4.409  0.00  0.00    +0.060 A 
ATOM      2  C   UNL     1       7.015   1.962   4.533  0.00  0.00    +0.026 A 
ATOM      3  C   UNL     1       7.820   0.863   4.870  0.00  0.00    +0.061 A 
ATOM      4  C   UNL     1       9.171   1.021   4.983  0.00  0.00    +0.162 A 
ATOM      5  C   UNL     1       9.764   2.272   4.765  0.00  0.00    +0.164 A 
ATOM      6  C   UNL     1       8.998   3.366   4.434  0.00  0.00    +0.077 A 
ATOM      7  C   UNL     1       7.606   3.229   4.311  0.00  0.00    +0.077 A 
ATOM      8  N   UNL     1       6.843   4.283   3.987  0.00  0.00    -0.253 NA
ATOM      9  C   UNL     1       5.543   4.187   3.865  0.00  0.00    +0.132 A 
ATOM     10  C   UNL     1       4.874   2.969   4.063  0.00  0.00    +0.091 A 
ENDROOT
BRANCH   1  11
ATOM     11  N   UNL     1       4.992   0.611   4.616  0.00  0.00    -0.313 N 
ATOM     12  H   UNL     1       4.674   0.373   5.501  0.00  0.00    +0.152 HD
BRANCH  11  16
ATOM     13  C   UNL     1       4.484  -2.035   1.440  0.00  0.00    -0.022 A 
ATOM     14  C   UNL     1       3.942  -2.330   2.678  0.00  0.00    +0.007 A 
ATOM     15  C   UNL     1       4.109  -1.455   3.733  0.00  0.00    +0.023 A 
ATOM     16  C   UNL     1       4.822  -0.276   3.550  0.00  0.00    +0.033 A 
ATOM     17  C   UNL     1       5.366   0.017   2.306  0.00  0.00    +0.043 A 
ATOM     18  C   UNL     1       5.199  -0.865   1.256  0.00  0.00    +0.046 A 
ATOM     19 CL   UNL     1       5.883  -0.503  -0.298  0.00  0.00    -0.083 Cl
BRANCH  13  20
ATOM     20  C   UNL     1       4.300  -2.993   0.291  0.00  0.00    +0.109 C 
BRANCH  20  26
ATOM     21  C   UNL     1       4.364  -5.904   1.352  0.00  0.00    +0.150 C 
ATOM     22  N   UNL     1       5.479  -5.208   0.704  0.00  0.00    -0.339 N 
ATOM     23  C   UNL     1       6.722  -5.723   0.455  0.00  0.00    +0.104 A 
ATOM     24  C   UNL     1       7.431  -4.752  -0.152  0.00  0.00    +0.101 A 
ATOM     25  N   UNL     1       6.642  -3.674  -0.270  0.00  0.00    -0.349 N 
ATOM     26  C   UNL     1       5.469  -3.942   0.236  0.00  0.00    +0.091 A 
ATOM     27  H   UNL     1       6.901  -2.830  -0.672  0.00  0.00    +0.166 HD
ENDBRANCH  20  26
ENDBRANCH  13  20
ENDBRANCH  11  16
ENDBRANCH   1  11
BRANCH  10  28
ATOM     28  C   UNL     1       3.451   2.893   3.918  0.00  0.00    +0.103 C 
ATOM     29  N   UNL     1       2.323   2.833   3.802  0.00  0.00    -0.191 NA
ENDBRANCH  10  28
BRANCH   4  30
ATOM     30  O   UNL     1       9.948  -0.046   5.310  0.00  0.00    -0.491 OA
ATOM     31  C   UNL     1       9.284  -1.293   5.520  0.00  0.00    +0.277 C 
ENDBRANCH   4  30
BRANCH   5  32
ATOM     32  O   UNL     1      11.111   2.407   4.883  0.00  0.00    -0.488 OA
BRANCH  32  33
ATOM     33  C   UNL     1      11.656   3.707   4.648  0.00  0.00    +0.230 C 
BRANCH  33  34
ATOM     34  C   UNL     1      13.175   3.663   4.825  0.00  0.00    +0.056 C 
BRANCH  34  35
ATOM     35  C   UNL     1      13.759   5.055   4.574  0.00  0.00    +0.088 C 
BRANCH  35  36
ATOM     36  N   UNL     1      15.217   5.012   4.744  0.00  0.00    -0.298 NA
ATOM     37  C   UNL     1      15.577   4.737   6.143  0.00  0.00    +0.112 C 
ATOM     38  C   UNL     1      17.100   4.642   6.263  0.00  0.00    +0.175 C 
ATOM     39  O   UNL     1      17.688   5.854   5.782  0.00  0.00    -0.377 OA
ATOM     40  C   UNL     1      17.359   6.153   4.423  0.00  0.00    +0.175 C 
ATOM     41  C   UNL     1      15.838   6.263   4.284  0.00  0.00    +0.112 C 
ENDBRANCH  35  36
ENDBRANCH  34  35
ENDBRANCH  33  34
ENDBRANCH  32  33
ENDBRANCH   5  32
TORSDOF 11
