REMARK  Name = CHEMBL380328
REMARK  5 active torsions:
REMARK  status: ('A' for Active; 'I' for Inactive)
REMARK    1  A    between atoms: C_3  and  N_9
REMARK    2  A    between atoms: N_9  and  C_10
REMARK    3  A    between atoms: C_11  and  C_16
REMARK    4  A    between atoms: N_17  and  C_18
REMARK    5  A    between atoms: C_18  and  C_19
REMARK                            x       y       z     vdW  Elec       q    Type
REMARK                         _______ _______ _______ _____ _____    ______ ____
ROOT
ATOM      1  C   UNL     1       3.477   3.498  -0.141  0.00  0.00    +0.102 A 
ATOM      2  C   UNL     1       4.509   4.439  -0.203  0.00  0.00    +0.106 A 
ATOM      3  C   UNL     1       4.085   5.767  -0.231  0.00  0.00    +0.268 A 
ATOM      4  N   UNL     1       2.755   5.971  -0.195  0.00  0.00    -0.291 N 
ATOM      5  S   UNL     1       2.089   4.439  -0.134  0.00  0.00    +0.005 S 
ATOM      6  O   UNL     1       4.876   6.694  -0.285  0.00  0.00    -0.267 OA
ATOM      7  H   UNL     1       2.286   6.819  -0.207  0.00  0.00    +0.177 HD
ENDROOT
BRANCH   2   8
ATOM      8  C   UNL     1       5.930   4.059  -0.236  0.00  0.00    +0.105 C 
ATOM      9  N   UNL     1       6.855   4.982  -0.202  0.00  0.00    -0.372 N 
ATOM     10  N   UNL     1       6.286   2.728  -0.303  0.00  0.00    -0.344 N 
ATOM     11  H   UNL     1       5.606   2.040  -0.235  0.00  0.00    +0.144 HD
ATOM     12  H   UNL     1       7.217   2.480  -0.418  0.00  0.00    +0.144 HD
ATOM     13  H   UNL     1       6.604   5.918  -0.155  0.00  0.00    +0.161 HD
BRANCH   9  14
ATOM     14  C   UNL     1       8.270   4.604  -0.235  0.00  0.00    +0.117 C 
BRANCH  14  15
ATOM     15  C   UNL     1       9.136   5.864  -0.185  0.00  0.00    +0.008 C 
ATOM     16  C   UNL     1       8.909   6.690  -1.452  0.00  0.00    +0.005 C 
ATOM     17  C   UNL     1       9.775   7.950  -1.401  0.00  0.00    +0.000 C 
ATOM     18  C   UNL     1      11.250   7.552  -1.310  0.00  0.00    +0.000 C 
ATOM     19  C   UNL     1      11.477   6.725  -0.043  0.00  0.00    +0.000 C 
ATOM     20  C   UNL     1      10.611   5.465  -0.093  0.00  0.00    +0.005 C 
ENDBRANCH  14  15
ENDBRANCH   9  14
ENDBRANCH   2   8
BRANCH   1  21
ATOM     21  N   UNL     1       3.577   2.127  -0.101  0.00  0.00    -0.306 N 
ATOM     22  H   UNL     1       4.029   1.653  -0.817  0.00  0.00    +0.153 HD
BRANCH  21  25
ATOM     23  C   UNL     1       1.938   1.394   3.108  0.00  0.00    +0.022 A 
ATOM     24  C   UNL     1       2.482   2.098   2.051  0.00  0.00    +0.026 A 
ATOM     25  C   UNL     1       3.026   1.417   0.970  0.00  0.00    +0.050 A 
ATOM     26  C   UNL     1       3.021   0.027   0.955  0.00  0.00    +0.063 A 
ATOM     27  C   UNL     1       2.475  -0.672   2.015  0.00  0.00    +0.041 A 
ATOM     28  C   UNL     1       1.934   0.011   3.091  0.00  0.00    +0.042 A 
ATOM     29 CL   UNL     1       1.250  -0.870   4.421  0.00  0.00    -0.083 Cl
ATOM     30 CL   UNL     1       3.699  -0.830  -0.394  0.00  0.00    -0.082 Cl
ENDBRANCH  21  25
ENDBRANCH   1  21
TORSDOF 5
