REMARK  Name = CHEMBL34436
REMARK  10 active torsions:
REMARK  status: ('A' for Active; 'I' for Inactive)
REMARK    1  A    between atoms: C_4  and  C_7
REMARK    2  A    between atoms: C_7  and  C_8
REMARK    3  A    between atoms: C_8  and  C_9
REMARK    4  A    between atoms: C_8  and  O_28
REMARK    5  A    between atoms: C_13  and  C_15
REMARK    6  A    between atoms: C_15  and  C_26
REMARK    7  A    between atoms: C_16  and  N_17
REMARK    8  A    between atoms: C_16  and  S_18
REMARK    9  A    between atoms: S_18  and  C_19
REMARK   10  A    between atoms: C_24  and  N_25
REMARK                            x       y       z     vdW  Elec       q    Type
REMARK                         _______ _______ _______ _____ _____    ______ ____
ROOT
ATOM      1  C   UNL     1       9.175  -0.640   1.851  0.00  0.00    +0.086 C 
ATOM      2  C   UNL     1      10.080  -0.359   0.837  0.00  0.00    +0.082 C 
ENDROOT
BRANCH   1   7
ATOM      3  C   UNL     1       5.594  -1.686   1.405  0.00  0.00    -0.018 A 
ATOM      4  C   UNL     1       5.745  -3.013   1.041  0.00  0.00    +0.006 A 
ATOM      5  C   UNL     1       7.007  -3.570   0.940  0.00  0.00    +0.001 A 
ATOM      6  C   UNL     1       8.125  -2.804   1.202  0.00  0.00    +0.009 A 
ATOM      7  C   UNL     1       7.980  -1.466   1.569  0.00  0.00    -0.005 A 
ATOM      8  C   UNL     1       6.704  -0.909   1.664  0.00  0.00    +0.015 A 
BRANCH   3   9
ATOM      9  C   UNL     1       4.216  -1.087   1.513  0.00  0.00    +0.149 C 
BRANCH   9  10
ATOM     10  O   UNL     1       3.331  -2.034   2.115  0.00  0.00    -0.387 OA
ATOM     11  H   UNL     1       3.245  -2.861   1.622  0.00  0.00    +0.210 HD
ENDBRANCH   9  10
BRANCH   9  12
ATOM     12  C   UNL     1       3.705  -0.729   0.116  0.00  0.00    +0.071 C 
BRANCH  12  16
ATOM     13  C   UNL     1      -0.049   1.283   0.443  0.00  0.00    +0.000 A 
ATOM     14  C   UNL     1       1.127   2.009   0.453  0.00  0.00    +0.000 A 
ATOM     15  C   UNL     1       2.342   1.358   0.347  0.00  0.00    +0.004 A 
ATOM     16  C   UNL     1       2.380  -0.019   0.232  0.00  0.00    -0.045 A 
ATOM     17  C   UNL     1       1.204  -0.745   0.224  0.00  0.00    +0.004 A 
ATOM     18  C   UNL     1      -0.011  -0.094   0.328  0.00  0.00    +0.000 A 
ENDBRANCH  12  16
ENDBRANCH   9  12
ENDBRANCH   3   9
ENDBRANCH   1   7
BRANCH   2  19
ATOM     19  N   UNL     1       9.866  -0.847  -0.428  0.00  0.00    -0.352 N 
ATOM     20  H   UNL     1       9.122  -1.445  -0.597  0.00  0.00    +0.143 HD
ATOM     21  H   UNL     1      10.460  -0.594  -1.152  0.00  0.00    +0.143 HD
ENDBRANCH   2  19
BRANCH   1  22
ATOM     22  C   UNL     1       9.398  -0.130   3.171  0.00  0.00    +0.102 C 
ATOM     23  N   UNL     1       9.575   0.274   4.218  0.00  0.00    -0.191 NA
ENDBRANCH   1  22
BRANCH   2  24
ATOM     24  S   UNL     1      11.502   0.625   1.173  0.00  0.00    -0.072 S 
BRANCH  24  25
ATOM     25  C   UNL     1      11.237   2.093   0.235  0.00  0.00    +0.035 A 
ATOM     26  C   UNL     1      10.037   2.283  -0.436  0.00  0.00    +0.017 A 
ATOM     27  C   UNL     1       9.831   3.435  -1.170  0.00  0.00    +0.001 A 
ATOM     28  C   UNL     1      10.818   4.402  -1.239  0.00  0.00    +0.002 A 
ATOM     29  C   UNL     1      12.016   4.222  -0.574  0.00  0.00    +0.024 A 
ATOM     30  C   UNL     1      12.230   3.071   0.170  0.00  0.00    +0.039 A 
BRANCH  30  31
ATOM     31  N   UNL     1      13.439   2.889   0.849  0.00  0.00    -0.357 N 
ATOM     32  H   UNL     1      13.589   2.082   1.366  0.00  0.00    +0.142 HD
ATOM     33  H   UNL     1      14.129   3.570   0.803  0.00  0.00    +0.142 HD
ENDBRANCH  30  31
ENDBRANCH  24  25
ENDBRANCH   2  24
TORSDOF 10
