REMARK  Name = CHEMBL377592
REMARK  7 active torsions:
REMARK  status: ('A' for Active; 'I' for Inactive)
REMARK    1  A    between atoms: C_1  and  O_2
REMARK    2  A    between atoms: O_2  and  C_3
REMARK    3  A    between atoms: C_3  and  C_5
REMARK    4  A    between atoms: C_8  and  N_11
REMARK    5  A    between atoms: C_13  and  C_18
REMARK    6  A    between atoms: N_20  and  C_21
REMARK    7  A    between atoms: C_21  and  C_22
REMARK                            x       y       z     vdW  Elec       q    Type
REMARK                         _______ _______ _______ _____ _____    ______ ____
ROOT
ATOM      1  N   UNL     1      -1.408  -6.230  -0.017  0.00  0.00    -0.243 NA
ATOM      2  C   UNL     1      -2.230  -6.856   0.786  0.00  0.00    +0.112 C 
ATOM      3  C   UNL     1      -2.442  -8.347   0.934  0.00  0.00    +0.193 C 
ATOM      4  C   UNL     1      -3.482  -8.629   1.972  0.00  0.00    +0.239 C 
ATOM      5  N   UNL     1      -4.014  -7.552   2.556  0.00  0.00    -0.254 N 
ATOM      6  S   UNL     1      -3.294  -6.201   1.900  0.00  0.00    -0.006 S 
ATOM      7  O   UNL     1      -3.819  -9.758   2.262  0.00  0.00    -0.274 OA
ATOM      8  H   UNL     1      -4.697  -7.556   3.245  0.00  0.00    +0.163 HD
ENDROOT
BRANCH   1  12
ATOM      9  C   UNL     1      -1.248  -2.104   0.003  0.00  0.00    +0.059 A 
ATOM     10  C   UNL     1      -0.063  -2.850  -0.007  0.00  0.00    +0.017 A 
ATOM     11  C   UNL     1      -0.116  -4.214  -0.013  0.00  0.00    +0.028 A 
ATOM     12  C   UNL     1      -1.355  -4.866  -0.010  0.00  0.00    +0.065 A 
ATOM     13  C   UNL     1      -2.539  -4.120  -0.001  0.00  0.00    +0.028 A 
ATOM     14  C   UNL     1      -2.486  -2.756   0.011  0.00  0.00    +0.017 A 
BRANCH   9  15
ATOM     15  C   UNL     1      -1.190  -0.632   0.010  0.00  0.00    +0.339 C 
ATOM     16  O   UNL     1      -2.219   0.016   0.023  0.00  0.00    -0.245 OA
BRANCH  15  18
ATOM     17  C   UNL     1      -0.017   1.425   0.010  0.00  0.00    +0.280 C 
ATOM     18  O   UNL     1       0.002  -0.004   0.002  0.00  0.00    -0.464 OA
ENDBRANCH  15  18
ENDBRANCH   9  15
ENDBRANCH   1  12
BRANCH   3  19
ATOM     19  C   UNL     1      -2.888  -8.920  -0.386  0.00  0.00    +0.084 C 
ATOM     20  N   UNL     1      -3.486  -8.165  -1.249  0.00  0.00    -0.390 N 
ATOM     21  N   UNL     1      -2.661 -10.241  -0.672  0.00  0.00    -0.333 N 
ATOM     22  H   UNL     1      -3.773  -8.534  -2.099  0.00  0.00    +0.157 HD
ATOM     23  H   UNL     1      -2.213 -10.807  -0.024  0.00  0.00    +0.147 HD
ATOM     24  H   UNL     1      -3.647  -7.230  -1.047  0.00  0.00    +0.157 HD
BRANCH  21  25
ATOM     25  C   UNL     1      -3.095 -10.797  -1.955  0.00  0.00    +0.106 C 
BRANCH  25  26
ATOM     26  C   UNL     1      -2.723 -12.280  -2.020  0.00  0.00    +0.006 C 
ATOM     27  C   UNL     1      -3.511 -13.050  -0.958  0.00  0.00    +0.005 C 
ATOM     28  C   UNL     1      -3.139 -14.533  -1.022  0.00  0.00    +0.000 C 
ATOM     29  C   UNL     1      -3.479 -15.084  -2.409  0.00  0.00    +0.000 C 
ATOM     30  C   UNL     1      -2.692 -14.314  -3.471  0.00  0.00    +0.000 C 
ATOM     31  C   UNL     1      -3.063 -12.831  -3.406  0.00  0.00    +0.005 C 
ENDBRANCH  25  26
ENDBRANCH  21  25
ENDBRANCH   3  19
TORSDOF 6
