REMARK  Name = CHEMBL318326
REMARK  12 active torsions:
REMARK  status: ('A' for Active; 'I' for Inactive)
REMARK    1  A    between atoms: C_1  and  O_2
REMARK    2  A    between atoms: O_2  and  C_3
REMARK    3  A    between atoms: C_8  and  O_9
REMARK    4  A    between atoms: O_9  and  C_10
REMARK    5  A    between atoms: C_10  and  C_11
REMARK    6  A    between atoms: C_11  and  C_12
REMARK    7  A    between atoms: C_12  and  N_13
REMARK    8  A    between atoms: C_21  and  C_38
REMARK    9  A    between atoms: C_22  and  N_23
REMARK   10  A    between atoms: N_23  and  C_24
REMARK   11  A    between atoms: C_27  and  S_31
REMARK   12  A    between atoms: S_31  and  C_32
REMARK                            x       y       z     vdW  Elec       q    Type
REMARK                         _______ _______ _______ _____ _____    ______ ____
ROOT
ATOM      1  C   UNL     1      -0.975  -0.271  -5.216  0.00  0.00    +0.162 A 
ATOM      2  C   UNL     1       0.110   0.456  -4.820  0.00  0.00    +0.061 A 
ATOM      3  C   UNL     1       1.266  -0.202  -4.374  0.00  0.00    +0.026 A 
ATOM      4  C   UNL     1       1.302  -1.617  -4.336  0.00  0.00    +0.077 A 
ATOM      5  C   UNL     1       0.174  -2.342  -4.748  0.00  0.00    +0.077 A 
ATOM      6  C   UNL     1      -0.950  -1.672  -5.176  0.00  0.00    +0.164 A 
ATOM      7  N   UNL     1       2.404  -2.253  -3.909  0.00  0.00    -0.253 NA
ATOM      8  C   UNL     1       3.471  -1.605  -3.518  0.00  0.00    +0.132 A 
ATOM      9  C   UNL     1       3.523  -0.202  -3.522  0.00  0.00    +0.091 A 
ATOM     10  C   UNL     1       2.405   0.525  -3.958  0.00  0.00    +0.060 A 
ENDROOT
BRANCH   1  12
ATOM     11  C   UNL     1      -2.058   1.798  -5.665  0.00  0.00    +0.277 C 
ATOM     12  O   UNL     1      -2.094   0.370  -5.648  0.00  0.00    -0.491 OA
ENDBRANCH   1  12
BRANCH  10  13
ATOM     13  N   UNL     1       2.415   1.905  -3.978  0.00  0.00    -0.313 N 
ATOM     14  H   UNL     1       2.162   2.404  -3.185  0.00  0.00    +0.152 HD
BRANCH  13  15
ATOM     15  C   UNL     1       2.792   2.585  -5.141  0.00  0.00    +0.033 A 
ATOM     16  C   UNL     1       3.001   1.881  -6.321  0.00  0.00    +0.024 A 
ATOM     17  C   UNL     1       3.373   2.551  -7.468  0.00  0.00    +0.018 A 
ATOM     18  C   UNL     1       3.538   3.930  -7.446  0.00  0.00    +0.033 A 
ATOM     19  C   UNL     1       3.328   4.636  -6.266  0.00  0.00    +0.056 A 
ATOM     20  C   UNL     1       2.951   3.965  -5.119  0.00  0.00    +0.044 A 
ATOM     21 CL   UNL     1       3.534   6.359  -6.237  0.00  0.00    -0.082 Cl
BRANCH  18  22
ATOM     22  S   UNL     1       4.013   4.786  -8.911  0.00  0.00    -0.068 S 
BRANCH  22  23
ATOM     23  C   UNL     1       2.543   5.616  -9.416  0.00  0.00    +0.102 A 
ATOM     24  C   UNL     1       2.591   6.526 -10.467  0.00  0.00    +0.035 A 
ATOM     25  C   UNL     1       1.430   7.170 -10.853  0.00  0.00    +0.004 A 
ATOM     26  C   UNL     1       0.254   6.882 -10.172  0.00  0.00    +0.020 A 
ATOM     27  C   UNL     1       0.278   5.968  -9.138  0.00  0.00    +0.112 A 
ATOM     28  N   UNL     1       1.400   5.364  -8.794  0.00  0.00    -0.248 NA
ENDBRANCH  22  23
ENDBRANCH  18  22
ENDBRANCH  13  15
ENDBRANCH  10  13
BRANCH   9  29
ATOM     29  C   UNL     1       4.705   0.480  -3.088  0.00  0.00    +0.103 C 
ATOM     30  N   UNL     1       5.643   1.021  -2.743  0.00  0.00    -0.191 NA
ENDBRANCH   9  29
BRANCH   6  31
ATOM     31  O   UNL     1      -2.043  -2.376  -5.569  0.00  0.00    -0.488 OA
BRANCH  31  32
ATOM     32  C   UNL     1      -1.955  -3.800  -5.505  0.00  0.00    +0.230 C 
BRANCH  32  33
ATOM     33  C   UNL     1      -3.272  -4.415  -5.983  0.00  0.00    +0.056 C 
BRANCH  33  34
ATOM     34  C   UNL     1      -3.178  -5.940  -5.915  0.00  0.00    +0.088 C 
BRANCH  34  35
ATOM     35  N   UNL     1      -4.442  -6.530  -6.374  0.00  0.00    -0.298 NA
ATOM     36  C   UNL     1      -5.539  -6.212  -5.449  0.00  0.00    +0.112 C 
ATOM     37  C   UNL     1      -6.846  -6.794  -5.995  0.00  0.00    +0.175 C 
ATOM     38  O   UNL     1      -6.691  -8.203  -6.187  0.00  0.00    -0.377 OA
ATOM     39  C   UNL     1      -5.631  -8.548  -7.084  0.00  0.00    +0.175 C 
ATOM     40  C   UNL     1      -4.312  -7.984  -6.549  0.00  0.00    +0.112 C 
ENDBRANCH  34  35
ENDBRANCH  33  34
ENDBRANCH  32  33
ENDBRANCH  31  32
ENDBRANCH   6  31
TORSDOF 11
