REMARK  Name = CHEMBL30790
REMARK  12 active torsions:
REMARK  status: ('A' for Active; 'I' for Inactive)
REMARK    1  A    between atoms: C_1  and  O_2
REMARK    2  A    between atoms: O_2  and  C_3
REMARK    3  A    between atoms: C_8  and  O_9
REMARK    4  A    between atoms: O_9  and  C_10
REMARK    5  A    between atoms: C_10  and  C_11
REMARK    6  A    between atoms: C_11  and  C_12
REMARK    7  A    between atoms: C_12  and  N_13
REMARK    8  A    between atoms: C_21  and  C_36
REMARK    9  A    between atoms: C_22  and  N_23
REMARK   10  A    between atoms: N_23  and  C_24
REMARK   11  A    between atoms: C_27  and  C_30
REMARK   12  A    between atoms: C_30  and  C_31
REMARK                            x       y       z     vdW  Elec       q    Type
REMARK                         _______ _______ _______ _____ _____    ______ ____
ROOT
ATOM      1  C   UNL     1      -4.440  -0.695   3.581  0.00  0.00    +0.162 A 
ATOM      2  C   UNL     1      -4.554   0.057   2.448  0.00  0.00    +0.061 A 
ATOM      3  C   UNL     1      -4.687  -0.574   1.202  0.00  0.00    +0.026 A 
ATOM      4  C   UNL     1      -4.703  -1.987   1.124  0.00  0.00    +0.077 A 
ATOM      5  C   UNL     1      -4.585  -2.739   2.303  0.00  0.00    +0.077 A 
ATOM      6  C   UNL     1      -4.449  -2.095   3.513  0.00  0.00    +0.164 A 
ATOM      7  N   UNL     1      -4.830  -2.597  -0.064  0.00  0.00    -0.253 NA
ATOM      8  C   UNL     1      -4.941  -1.924  -1.180  0.00  0.00    +0.132 A 
ATOM      9  C   UNL     1      -4.935  -0.520  -1.197  0.00  0.00    +0.091 A 
ATOM     10  C   UNL     1      -4.807   0.181   0.012  0.00  0.00    +0.060 A 
ENDROOT
BRANCH   1  12
ATOM     11  C   UNL     1      -4.309   1.348   4.791  0.00  0.00    +0.277 C 
ATOM     12  O   UNL     1      -4.311  -0.081   4.788  0.00  0.00    -0.491 OA
ENDBRANCH   1  12
BRANCH  10  13
ATOM     13  N   UNL     1      -4.797   1.561   0.039  0.00  0.00    -0.313 N 
ATOM     14  H   UNL     1      -3.966   2.043  -0.094  0.00  0.00    +0.152 HD
BRANCH  13  15
ATOM     15  C   UNL     1      -5.984   2.264   0.258  0.00  0.00    +0.031 A 
ATOM     16  C   UNL     1      -7.149   1.580   0.583  0.00  0.00    +0.023 A 
ATOM     17  C   UNL     1      -8.321   2.278   0.798  0.00  0.00    +0.006 A 
ATOM     18  C   UNL     1      -8.336   3.657   0.692  0.00  0.00    -0.043 A 
ATOM     19  C   UNL     1      -7.178   4.341   0.369  0.00  0.00    +0.006 A 
ATOM     20  C   UNL     1      -6.002   3.650   0.158  0.00  0.00    +0.023 A 
BRANCH  18  21
ATOM     21  C   UNL     1      -9.617   4.415   0.927  0.00  0.00    +0.073 C 
BRANCH  21  22
ATOM     22  C   UNL     1      -9.725   4.778   2.386  0.00  0.00    -0.005 A 
ATOM     23  C   UNL     1     -10.321   4.001   3.405  0.00  0.00    +0.045 A 
ATOM     24  C   UNL     1     -10.197   4.698   4.549  0.00  0.00    +0.195 A 
ATOM     25  O   UNL     1      -9.560   5.849   4.278  0.00  0.00    -0.471 OA
ATOM     26  C   UNL     1      -9.267   5.901   2.968  0.00  0.00    +0.198 A 
ENDBRANCH  21  22
ENDBRANCH  18  21
ENDBRANCH  13  15
ENDBRANCH  10  13
BRANCH   9  27
ATOM     27  C   UNL     1      -5.058   0.190  -2.434  0.00  0.00    +0.103 C 
ATOM     28  N   UNL     1      -5.156   0.753  -3.416  0.00  0.00    -0.191 NA
ENDBRANCH   9  27
BRANCH   6  29
ATOM     29  O   UNL     1      -4.328  -2.825   4.652  0.00  0.00    -0.488 OA
BRANCH  29  30
ATOM     30  C   UNL     1      -4.345  -4.247   4.517  0.00  0.00    +0.227 C 
BRANCH  30  31
ATOM     31  C   UNL     1      -4.198  -4.893   5.896  0.00  0.00    +0.022 C 
BRANCH  31  32
ATOM     32  C   UNL     1      -4.215  -6.416   5.751  0.00  0.00    -0.075 C 
BRANCH  32  33
ATOM     33  N   UNL     1      -4.075  -7.035   7.075  0.00  0.00    +0.383 N 
ATOM     34  C   UNL     1      -2.752  -6.714   7.629  0.00  0.00    -0.050 C 
ATOM     35  C   UNL     1      -2.608  -7.360   9.009  0.00  0.00    +0.141 C 
ATOM     36  O   UNL     1      -2.798  -8.773   8.890  0.00  0.00    -0.383 OA
ATOM     37  C   UNL     1      -4.064  -9.136   8.332  0.00  0.00    +0.141 C 
ATOM     38  C   UNL     1      -4.211  -8.493   6.951  0.00  0.00    -0.050 C 
ATOM     39  H   UNL     1      -4.792  -6.681   7.690  0.00  0.00    -0.082 HD
ENDBRANCH  32  33
ENDBRANCH  31  32
ENDBRANCH  30  31
ENDBRANCH  29  30
ENDBRANCH   6  29
TORSDOF 11
