REMARK  Name = CHEMBL37548
REMARK  8 active torsions:
REMARK  status: ('A' for Active; 'I' for Inactive)
REMARK    1  A    between atoms: C_4  and  C_7
REMARK    2  A    between atoms: C_7  and  C_9
REMARK    3  A    between atoms: C_12  and  C_15
REMARK    4  A    between atoms: C_15  and  C_26
REMARK    5  A    between atoms: C_16  and  N_17
REMARK    6  A    between atoms: C_16  and  S_18
REMARK    7  A    between atoms: S_18  and  C_19
REMARK    8  A    between atoms: C_24  and  N_25
REMARK                            x       y       z     vdW  Elec       q    Type
REMARK                         _______ _______ _______ _____ _____    ______ ____
ROOT
ATOM      1  C   UNL     1       4.146  -6.401   0.419  0.00  0.00    +0.086 C 
ATOM      2  C   UNL     1       4.613  -7.104  -0.688  0.00  0.00    +0.082 C 
ENDROOT
BRANCH   1   6
ATOM      3  C   UNL     1       3.925  -2.169   0.305  0.00  0.00    +0.022 A 
ATOM      4  C   UNL     1       2.753  -2.929   0.411  0.00  0.00    +0.012 A 
ATOM      5  C   UNL     1       2.825  -4.291   0.447  0.00  0.00    +0.010 A 
ATOM      6  C   UNL     1       4.069  -4.928   0.379  0.00  0.00    -0.005 A 
ATOM      7  C   UNL     1       5.240  -4.169   0.273  0.00  0.00    +0.010 A 
ATOM      8  C   UNL     1       5.169  -2.808   0.231  0.00  0.00    +0.012 A 
BRANCH   3   9
ATOM      9  C   UNL     1       3.848  -0.700   0.265  0.00  0.00    +0.193 C 
ATOM     10  O   UNL     1       4.736  -0.058  -0.264  0.00  0.00    -0.287 OA
BRANCH   9  14
ATOM     11  C   UNL     1       0.525   1.301   1.996  0.00  0.00    +0.000 A 
ATOM     12  C   UNL     1       1.302   1.947   1.050  0.00  0.00    +0.001 A 
ATOM     13  C   UNL     1       2.382   1.303   0.484  0.00  0.00    +0.012 A 
ATOM     14  C   UNL     1       2.692  -0.003   0.868  0.00  0.00    +0.022 A 
ATOM     15  C   UNL     1       1.904  -0.649   1.823  0.00  0.00    +0.012 A 
ATOM     16  C   UNL     1       0.827   0.006   2.381  0.00  0.00    +0.001 A 
ENDBRANCH   9  14
ENDBRANCH   3   9
ENDBRANCH   1   6
BRANCH   2  17
ATOM     17  N   UNL     1       5.001  -6.428  -1.815  0.00  0.00    -0.352 N 
ATOM     18  H   UNL     1       5.016  -5.458  -1.818  0.00  0.00    +0.143 HD
ATOM     19  H   UNL     1       5.260  -6.919  -2.610  0.00  0.00    +0.143 HD
ENDBRANCH   2  17
BRANCH   1  20
ATOM     20  C   UNL     1       3.741  -7.107   1.597  0.00  0.00    +0.102 C 
ATOM     21  N   UNL     1       3.419  -7.667   2.532  0.00  0.00    -0.191 NA
ENDBRANCH   1  20
BRANCH   2  22
ATOM     22  S   UNL     1       4.705  -8.863  -0.639  0.00  0.00    -0.072 S 
BRANCH  22  23
ATOM     23  C   UNL     1       6.433  -9.201  -0.699  0.00  0.00    +0.035 A 
ATOM     24  C   UNL     1       7.347  -8.157  -0.693  0.00  0.00    +0.017 A 
ATOM     25  C   UNL     1       8.702  -8.425  -0.740  0.00  0.00    +0.001 A 
ATOM     26  C   UNL     1       9.151  -9.732  -0.793  0.00  0.00    +0.002 A 
ATOM     27  C   UNL     1       8.248 -10.778  -0.800  0.00  0.00    +0.024 A 
ATOM     28  C   UNL     1       6.886 -10.519  -0.747  0.00  0.00    +0.039 A 
BRANCH  28  29
ATOM     29  N   UNL     1       5.971 -11.577  -0.748  0.00  0.00    -0.357 N 
ATOM     30  H   UNL     1       5.019 -11.394  -0.716  0.00  0.00    +0.142 HD
ATOM     31  H   UNL     1       6.287 -12.493  -0.782  0.00  0.00    +0.142 HD
ENDBRANCH  28  29
ENDBRANCH  22  23
ENDBRANCH   2  22
TORSDOF 8
