REMARK  Name = CHEMBL253116
REMARK  8 active torsions:
REMARK  status: ('A' for Active; 'I' for Inactive)
REMARK    1  A    between atoms: CB_1  and  CA_2
REMARK    2  A    between atoms: CA_2  and  C_3
REMARK    3  A    between atoms: CA_2  and  N_5
REMARK    4  A    between atoms: C_3  and  O_4
REMARK    5  A    between atoms: C_6  and  C_8
REMARK    6  A    between atoms: N_13  and  C_14
REMARK    7  A    between atoms: C_17  and  N_20
REMARK    8  A    between atoms: N_20  and  C_21
REMARK                            x       y       z     vdW  Elec       q    Type
REMARK                         _______ _______ _______ _____ _____    ______ ____
ROOT
ATOM      1  C   UNK A   0       0.069  -1.022   3.194  0.00  0.00    +0.193 C 
ATOM      2  C   UNK A   0      -0.181  -2.486   3.050  0.00  0.00    +0.239 C 
ATOM      3  N   UNK A   0      -0.663  -3.145   4.105  0.00  0.00    -0.254 N 
ATOM      4  S   UNK A   0      -0.854  -2.054   5.353  0.00  0.00    -0.006 S 
ATOM      5  C   UNK A   0      -0.295  -0.547   4.588  0.00  0.00    +0.112 C 
ATOM      6  N   UNK A   0      -0.218   0.654   5.095  0.00  0.00    -0.243 NA
ATOM      7  O   UNK A   0       0.048  -3.061   2.005  0.00  0.00    -0.274 OA
ATOM      8  H   UNK A   0      -0.868  -4.092   4.141  0.00  0.00    +0.163 HD
ENDROOT
BRANCH   1  10
ATOM      9  N   ALA A   1      -0.281  -0.074   0.915  0.00  0.00    -0.329 N 
ATOM     10  C   UNK A   0      -0.762  -0.275   2.182  0.00  0.00    +0.084 C 
ATOM     11  N   UNK A   0      -1.929   0.175   2.510  0.00  0.00    -0.390 N 
ATOM     12  H   ALA A   1       0.594  -0.412   0.669  0.00  0.00    +0.147 HD
ATOM     13  H   UNK A   0      -2.269   0.033   3.407  0.00  0.00    +0.157 HD
ATOM     14  H   UNK A   0      -2.464   0.656   1.859  0.00  0.00    +0.157 HD
BRANCH   9  16
ATOM     15  CB  ALA A   1      -0.865   2.156   0.098  0.00  0.00    +0.030 C 
ATOM     16  CA  ALA A   1      -1.089   0.652  -0.068  0.00  0.00    +0.094 C 
BRANCH  16  17
ATOM     17  C   ALA A   1      -0.678   0.228  -1.479  0.00  0.00    +0.177 C 
BRANCH  17  18
ATOM     18  O   ALA A   1       0.670   0.633  -1.724  0.00  0.00    -0.393 OA
ATOM     19  H   ALA A   1       0.999   0.397  -2.603  0.00  0.00    +0.209 HD
ENDBRANCH  17  18
ENDBRANCH  16  17
ENDBRANCH   9  16
ENDBRANCH   1  10
BRANCH   6  20
ATOM     20  C   UNK A   0       0.350   1.669   4.369  0.00  0.00    +0.065 A 
ATOM     21  C   UNK A   0       1.609   1.497   3.791  0.00  0.00    +0.029 A 
ATOM     22  C   UNK A   0       2.177   2.519   3.061  0.00  0.00    +0.025 A 
ATOM     23  C   UNK A   0       1.498   3.721   2.901  0.00  0.00    +0.031 A 
ATOM     24  C   UNK A   0       0.244   3.897   3.475  0.00  0.00    +0.025 A 
ATOM     25  C   UNK A   0      -0.332   2.876   4.201  0.00  0.00    +0.029 A 
BRANCH  23  26
ATOM     26  N   UNK A   0       2.078   4.757   2.161  0.00  0.00    -0.314 N 
ATOM     27  H   UNK A   0       2.673   4.552   1.423  0.00  0.00    +0.152 HD
BRANCH  26  28
ATOM     28  C   UNK A   0       1.799   6.087   2.484  0.00  0.00    +0.031 A 
ATOM     29  C   UNK A   0       1.455   6.430   3.786  0.00  0.00    +0.023 A 
ATOM     30  C   UNK A   0       1.180   7.746   4.102  0.00  0.00    +0.002 A 
ATOM     31  C   UNK A   0       1.248   8.722   3.125  0.00  0.00    +0.000 A 
ATOM     32  C   UNK A   0       1.590   8.384   1.828  0.00  0.00    +0.002 A 
ATOM     33  C   UNK A   0       1.872   7.071   1.506  0.00  0.00    +0.023 A 
ENDBRANCH  26  28
ENDBRANCH  23  26
ENDBRANCH   6  20
TORSDOF 7
