REMARK  Name = CHEMBL102786
REMARK  12 active torsions:
REMARK  status: ('A' for Active; 'I' for Inactive)
REMARK    1  A    between atoms: C_1  and  O_2
REMARK    2  A    between atoms: O_2  and  C_3
REMARK    3  A    between atoms: C_8  and  O_9
REMARK    4  A    between atoms: O_9  and  C_10
REMARK    5  A    between atoms: C_10  and  C_11
REMARK    6  A    between atoms: C_11  and  C_12
REMARK    7  A    between atoms: C_12  and  N_13
REMARK    8  A    between atoms: C_21  and  C_37
REMARK    9  A    between atoms: C_22  and  N_23
REMARK   10  A    between atoms: N_23  and  C_24
REMARK   11  A    between atoms: C_27  and  S_31
REMARK   12  A    between atoms: S_31  and  C_32
REMARK                            x       y       z     vdW  Elec       q    Type
REMARK                         _______ _______ _______ _____ _____    ______ ____
ROOT
ATOM      1  C   UNL     1       4.942   0.462   1.354  0.00  0.00    +0.162 A 
ATOM      2  C   UNL     1       4.056   1.169   2.116  0.00  0.00    +0.061 A 
ATOM      3  C   UNL     1       2.991   0.506   2.742  0.00  0.00    +0.026 A 
ATOM      4  C   UNL     1       2.837  -0.893   2.583  0.00  0.00    +0.077 A 
ATOM      5  C   UNL     1       3.761  -1.597   1.795  0.00  0.00    +0.077 A 
ATOM      6  C   UNL     1       4.794  -0.921   1.187  0.00  0.00    +0.164 A 
ATOM      7  N   UNL     1       1.820  -1.533   3.178  0.00  0.00    -0.253 NA
ATOM      8  C   UNL     1       0.943  -0.904   3.918  0.00  0.00    +0.132 A 
ATOM      9  C   UNL     1       1.017   0.482   4.130  0.00  0.00    +0.091 A 
ATOM     10  C   UNL     1       2.058   1.212   3.536  0.00  0.00    +0.060 A 
ENDROOT
BRANCH   1  12
ATOM     11  C   UNL     1       6.070   2.518   0.959  0.00  0.00    +0.277 C 
ATOM     12  O   UNL     1       5.974   1.108   0.748  0.00  0.00    -0.491 OA
ENDBRANCH   1  12
BRANCH  10  13
ATOM     13  N   UNL     1       2.167   2.576   3.721  0.00  0.00    -0.313 N 
ATOM     14  H   UNL     1       1.676   3.184   3.147  0.00  0.00    +0.152 HD
BRANCH  13  15
ATOM     15  C   UNL     1       2.987   3.081   4.736  0.00  0.00    +0.033 A 
ATOM     16  C   UNL     1       3.786   2.219   5.478  0.00  0.00    +0.024 A 
ATOM     17  C   UNL     1       4.595   2.716   6.479  0.00  0.00    +0.018 A 
ATOM     18  C   UNL     1       4.612   4.080   6.746  0.00  0.00    +0.033 A 
ATOM     19  C   UNL     1       3.813   4.943   6.004  0.00  0.00    +0.056 A 
ATOM     20  C   UNL     1       3.007   4.445   4.999  0.00  0.00    +0.044 A 
ATOM     21 CL   UNL     1       3.833   6.646   6.337  0.00  0.00    -0.082 Cl
BRANCH  18  22
ATOM     22  S   UNL     1       5.644   4.715   8.025  0.00  0.00    -0.061 S 
BRANCH  22  23
ATOM     23  C   UNL     1       4.530   5.032   9.354  0.00  0.00    +0.139 A 
ATOM     24  N   UNL     1       3.247   4.747   9.431  0.00  0.00    -0.241 NA
ATOM     25  C   UNL     1       2.545   5.053  10.508  0.00  0.00    +0.120 A 
ATOM     26  C   UNL     1       3.204   5.669  11.519  0.00  0.00    +0.067 A 
ATOM     27  S   UNL     1       4.851   5.765  10.834  0.00  0.00    -0.069 S 
ENDBRANCH  22  23
ENDBRANCH  18  22
ENDBRANCH  13  15
ENDBRANCH  10  13
BRANCH   9  28
ATOM     28  C   UNL     1       0.042   1.143   4.944  0.00  0.00    +0.103 C 
ATOM     29  N   UNL     1      -0.731   1.667   5.590  0.00  0.00    -0.191 NA
ENDBRANCH   9  28
BRANCH   6  30
ATOM     30  O   UNL     1       5.684  -1.604   0.420  0.00  0.00    -0.488 OA
BRANCH  30  31
ATOM     31  C   UNL     1       5.480  -3.012   0.287  0.00  0.00    +0.230 C 
BRANCH  31  32
ATOM     32  C   UNL     1       6.572  -3.604  -0.606  0.00  0.00    +0.056 C 
BRANCH  32  33
ATOM     33  C   UNL     1       6.353  -5.112  -0.748  0.00  0.00    +0.088 C 
BRANCH  33  34
ATOM     34  N   UNL     1       7.402  -5.680  -1.605  0.00  0.00    -0.298 NA
ATOM     35  C   UNL     1       7.282  -5.185  -2.984  0.00  0.00    +0.112 C 
ATOM     36  C   UNL     1       8.426  -5.753  -3.826  0.00  0.00    +0.175 C 
ATOM     37  O   UNL     1       8.396  -7.182  -3.760  0.00  0.00    -0.377 OA
ATOM     38  C   UNL     1       8.512  -7.699  -2.432  0.00  0.00    +0.175 C 
ATOM     39  C   UNL     1       7.368  -7.150  -1.575  0.00  0.00    +0.112 C 
ENDBRANCH  33  34
ENDBRANCH  32  33
ENDBRANCH  31  32
ENDBRANCH  30  31
ENDBRANCH   6  30
TORSDOF 11
