REMARK  Name = CHEMBL284774
REMARK  7 active torsions:
REMARK  status: ('A' for Active; 'I' for Inactive)
REMARK    1  A    between atoms: C_4  and  C_7
REMARK    2  A    between atoms: C_7  and  C_8
REMARK    3  A    between atoms: C_7  and  C_10
REMARK    4  A    between atoms: C_10  and  N_11
REMARK    5  A    between atoms: C_10  and  S_12
REMARK    6  A    between atoms: S_12  and  C_13
REMARK    7  A    between atoms: C_18  and  N_19
REMARK                            x       y       z     vdW  Elec       q    Type
REMARK                         _______ _______ _______ _____ _____    ______ ____
ROOT
ATOM      1  C   UNL     1       3.825  -1.546  -1.527  0.00  0.00    +0.136 C 
ENDROOT
BRANCH   1   2
ATOM      2  N   UNL     1       3.425  -1.582  -2.941  0.00  0.00    -0.317 NA
ATOM      3  H   UNL     1       4.133  -1.165  -3.527  0.00  0.00    +0.119 HD
ATOM      4  H   UNL     1       3.222  -2.526  -3.235  0.00  0.00    +0.119 HD
ENDBRANCH   1   2
BRANCH   1   5
ATOM      5  C   UNL     1       4.028  -0.094  -1.092  0.00  0.00    +0.148 C 
BRANCH   5   9
ATOM      6  C   UNL     1       0.379   2.068  -1.598  0.00  0.00    +0.000 A 
ATOM      7  C   UNL     1       1.517   2.465  -2.276  0.00  0.00    +0.000 A 
ATOM      8  C   UNL     1       2.698   1.765  -2.111  0.00  0.00    +0.005 A 
ATOM      9  C   UNL     1       2.741   0.669  -1.270  0.00  0.00    -0.028 A 
ATOM     10  C   UNL     1       1.604   0.274  -0.592  0.00  0.00    +0.005 A 
ATOM     11  C   UNL     1       0.422   0.972  -0.757  0.00  0.00    +0.000 A 
ENDBRANCH   5   9
BRANCH   5  12
ATOM     12  C   UNL     1       4.428  -0.058   0.324  0.00  0.00    +0.073 C 
ATOM     13  N   UNL     1       4.737  -0.030   1.417  0.00  0.00    -0.196 NA
ENDBRANCH   5  12
ENDBRANCH   1   5
BRANCH   1  14
ATOM     14  S   UNL     1       5.374  -2.465  -1.313  0.00  0.00    -0.103 S 
BRANCH  14  15
ATOM     15  C   UNL     1       4.921  -4.141  -1.614  0.00  0.00    +0.030 A 
ATOM     16  C   UNL     1       3.598  -4.468  -1.872  0.00  0.00    +0.016 A 
ATOM     17  C   UNL     1       3.245  -5.784  -2.108  0.00  0.00    +0.001 A 
ATOM     18  C   UNL     1       4.207  -6.777  -2.087  0.00  0.00    +0.002 A 
ATOM     19  C   UNL     1       5.529  -6.460  -1.830  0.00  0.00    +0.024 A 
ATOM     20  C   UNL     1       5.893  -5.142  -1.598  0.00  0.00    +0.038 A 
BRANCH  20  21
ATOM     21  N   UNL     1       7.231  -4.818  -1.344  0.00  0.00    -0.357 N 
ATOM     22  H   UNL     1       7.484  -3.896  -1.178  0.00  0.00    +0.142 HD
ATOM     23  H   UNL     1       7.905  -5.515  -1.334  0.00  0.00    +0.142 HD
ENDBRANCH  20  21
ENDBRANCH  14  15
ENDBRANCH   1  14
TORSDOF 7
