REMARK  Name = CHEMBL34436
REMARK  10 active torsions:
REMARK  status: ('A' for Active; 'I' for Inactive)
REMARK    1  A    between atoms: C_4  and  C_7
REMARK    2  A    between atoms: C_7  and  C_8
REMARK    3  A    between atoms: C_8  and  C_9
REMARK    4  A    between atoms: C_8  and  O_28
REMARK    5  A    between atoms: C_13  and  C_15
REMARK    6  A    between atoms: C_15  and  C_26
REMARK    7  A    between atoms: C_16  and  N_17
REMARK    8  A    between atoms: C_16  and  S_18
REMARK    9  A    between atoms: S_18  and  C_19
REMARK   10  A    between atoms: C_24  and  N_25
REMARK                            x       y       z     vdW  Elec       q    Type
REMARK                         _______ _______ _______ _____ _____    ______ ____
ROOT
ATOM      1  C   UNL     1       6.322  -5.443   1.680  0.00  0.00    +0.086 C 
ATOM      2  C   UNL     1       6.934  -6.065   2.758  0.00  0.00    +0.082 C 
ENDROOT
BRANCH   1   7
ATOM      3  C   UNL     1       5.172  -1.869   1.539  0.00  0.00    -0.018 A 
ATOM      4  C   UNL     1       6.374  -1.206   1.362  0.00  0.00    +0.006 A 
ATOM      5  C   UNL     1       7.558  -1.917   1.287  0.00  0.00    +0.001 A 
ATOM      6  C   UNL     1       7.548  -3.293   1.390  0.00  0.00    +0.009 A 
ATOM      7  C   UNL     1       6.340  -3.967   1.569  0.00  0.00    -0.005 A 
ATOM      8  C   UNL     1       5.149  -3.244   1.649  0.00  0.00    +0.015 A 
BRANCH   3   9
ATOM      9  C   UNL     1       3.887  -1.086   1.619  0.00  0.00    +0.149 C 
BRANCH   9  10
ATOM     10  O   UNL     1       4.128   0.160   2.276  0.00  0.00    -0.387 OA
ATOM     11  H   UNL     1       4.776   0.721   1.829  0.00  0.00    +0.210 HD
ENDBRANCH   9  10
BRANCH   9  12
ATOM     12  C   UNL     1       3.360  -0.825   0.207  0.00  0.00    +0.071 C 
BRANCH  12  16
ATOM     13  C   UNL     1      -0.454   1.085   0.438  0.00  0.00    +0.000 A 
ATOM     14  C   UNL     1       0.699   1.846   0.400  0.00  0.00    +0.000 A 
ATOM     15  C   UNL     1       1.933   1.228   0.325  0.00  0.00    +0.004 A 
ATOM     16  C   UNL     1       2.014  -0.151   0.289  0.00  0.00    -0.045 A 
ATOM     17  C   UNL     1       0.861  -0.913   0.329  0.00  0.00    +0.004 A 
ATOM     18  C   UNL     1      -0.373  -0.294   0.402  0.00  0.00    +0.000 A 
ENDBRANCH  12  16
ENDBRANCH   9  12
ENDBRANCH   3   9
ENDBRANCH   1   7
BRANCH   2  19
ATOM     19  N   UNL     1       6.917  -7.434   2.861  0.00  0.00    -0.352 N 
ATOM     20  H   UNL     1       6.416  -7.962   2.220  0.00  0.00    +0.143 HD
ATOM     21  H   UNL     1       7.407  -7.873   3.574  0.00  0.00    +0.143 HD
ENDBRANCH   2  19
BRANCH   1  22
ATOM     22  C   UNL     1       5.672  -6.228   0.674  0.00  0.00    +0.102 C 
ATOM     23  N   UNL     1       5.157  -6.851  -0.124  0.00  0.00    -0.191 NA
ENDBRANCH   1  22
BRANCH   2  24
ATOM     24  S   UNL     1       7.734  -5.099   3.996  0.00  0.00    -0.072 S 
BRANCH  24  25
ATOM     25  C   UNL     1       9.437  -5.520   3.831  0.00  0.00    +0.035 A 
ATOM     26  C   UNL     1       9.853  -6.346   2.797  0.00  0.00    +0.017 A 
ATOM     27  C   UNL     1      11.189  -6.674   2.670  0.00  0.00    +0.001 A 
ATOM     28  C   UNL     1      12.115  -6.183   3.572  0.00  0.00    +0.002 A 
ATOM     29  C   UNL     1      11.710  -5.360   4.606  0.00  0.00    +0.024 A 
ATOM     30  C   UNL     1      10.372  -5.020   4.738  0.00  0.00    +0.039 A 
BRANCH  30  31
ATOM     31  N   UNL     1       9.960  -4.183   5.780  0.00  0.00    -0.357 N 
ATOM     32  H   UNL     1       9.023  -3.949   5.873  0.00  0.00    +0.142 HD
ATOM     33  H   UNL     1      10.611  -3.836   6.410  0.00  0.00    +0.142 HD
ENDBRANCH  30  31
ENDBRANCH  24  25
ENDBRANCH   2  24
TORSDOF 10
