REMARK  Name = CHEMBL217130
REMARK  9 active torsions:
REMARK  status: ('A' for Active; 'I' for Inactive)
REMARK    1  A    between atoms: CB_1  and  CA_2
REMARK    2  A    between atoms: CA_2  and  C_3
REMARK    3  A    between atoms: CA_2  and  N_5
REMARK    4  A    between atoms: C_3  and  O_4
REMARK    5  A    between atoms: C_6  and  C_7
REMARK    6  A    between atoms: C_11  and  N_12
REMARK    7  A    between atoms: N_12  and  C_13
REMARK    8  A    between atoms: C_16  and  C_19
REMARK    9  A    between atoms: C_19  and  C_21
REMARK                            x       y       z     vdW  Elec       q    Type
REMARK                         _______ _______ _______ _____ _____    ______ ____
ROOT
ATOM      1  C   UNK A   0      -4.185  -1.420  -0.995  0.00  0.00    +0.106 A 
ATOM      2  C   UNK A   0      -4.710  -1.803   0.238  0.00  0.00    +0.268 A 
ATOM      3  N   UNK A   0      -5.481  -2.907   0.244  0.00  0.00    -0.291 N 
ATOM      4  S   UNK A   0      -5.505  -3.420  -1.347  0.00  0.00    +0.005 S 
ATOM      5  C   UNK A   0      -4.544  -2.247  -2.064  0.00  0.00    +0.102 A 
ATOM      6  O   UNK A   0      -4.484  -1.172   1.258  0.00  0.00    -0.267 OA
ATOM      7  H   UNK A   0      -5.925  -3.315   1.004  0.00  0.00    +0.177 HD
ENDROOT
BRANCH   1   9
ATOM      8  N   ALA A   1      -3.112   0.561  -0.147  0.00  0.00    -0.368 N 
ATOM      9  C   UNK A   0      -3.326  -0.238  -1.160  0.00  0.00    +0.105 C 
ATOM     10  N   UNK A   0      -2.748   0.029  -2.384  0.00  0.00    -0.344 N 
ATOM     11  H   UNK A   0      -2.113   0.757  -2.471  0.00  0.00    +0.144 HD
ATOM     12  H   UNK A   0      -2.975  -0.511  -3.156  0.00  0.00    +0.144 HD
ATOM     13  H   ALA A   1      -3.519   0.373   0.713  0.00  0.00    +0.161 HD
BRANCH   8  15
ATOM     14  CB  ALA A   1      -3.088   2.900  -0.862  0.00  0.00    +0.032 C 
ATOM     15  CA  ALA A   1      -2.257   1.739  -0.311  0.00  0.00    +0.103 C 
BRANCH  15  16
ATOM     16  C   ALA A   1      -1.665   2.133   1.044  0.00  0.00    +0.180 C 
BRANCH  16  17
ATOM     17  O   ALA A   1      -2.716   2.547   1.919  0.00  0.00    -0.393 OA
ATOM     18  H   ALA A   1      -2.413   2.812   2.799  0.00  0.00    +0.209 HD
ENDBRANCH  16  17
ENDBRANCH  15  16
ENDBRANCH   8  15
ENDBRANCH   1   9
BRANCH   5  19
ATOM     19  N   UNK A   0      -4.191  -2.128  -3.388  0.00  0.00    -0.307 N 
ATOM     20  H   UNK A   0      -3.256  -2.144  -3.644  0.00  0.00    +0.153 HD
BRANCH  19  21
ATOM     21  C   UNK A   0      -5.176  -1.986  -4.361  0.00  0.00    +0.032 A 
ATOM     22  C   UNK A   0      -6.520  -2.006  -3.996  0.00  0.00    +0.024 A 
ATOM     23  C   UNK A   0      -7.493  -1.866  -4.952  0.00  0.00    +0.013 A 
ATOM     24  C   UNK A   0      -7.135  -1.703  -6.294  0.00  0.00    +0.022 A 
ATOM     25  C   UNK A   0      -5.784  -1.684  -6.657  0.00  0.00    +0.013 A 
ATOM     26  C   UNK A   0      -4.816  -1.819  -5.695  0.00  0.00    +0.024 A 
BRANCH  24  27
ATOM     27  C   UNK A   0      -8.178  -1.553  -7.325  0.00  0.00    +0.193 C 
ATOM     28  O   UNK A   0      -9.289  -1.166  -7.014  0.00  0.00    -0.287 OA
BRANCH  27  29
ATOM     29  C   UNK A   0      -7.876  -1.873  -8.736  0.00  0.00    +0.022 A 
ATOM     30  C   UNK A   0      -6.823  -2.736  -9.049  0.00  0.00    +0.012 A 
ATOM     31  C   UNK A   0      -6.546  -3.030 -10.367  0.00  0.00    +0.001 A 
ATOM     32  C   UNK A   0      -7.308  -2.472 -11.379  0.00  0.00    +0.000 A 
ATOM     33  C   UNK A   0      -8.352  -1.616 -11.076  0.00  0.00    +0.001 A 
ATOM     34  C   UNK A   0      -8.644  -1.318  -9.761  0.00  0.00    +0.012 A 
ENDBRANCH  27  29
ENDBRANCH  24  27
ENDBRANCH  19  21
ENDBRANCH   5  19
TORSDOF 8
