REMARK  Name = CHEMBL217310
REMARK  9 active torsions:
REMARK  status: ('A' for Active; 'I' for Inactive)
REMARK    1  A    between atoms: CB_1  and  CA_2
REMARK    2  A    between atoms: CA_2  and  C_3
REMARK    3  A    between atoms: CA_2  and  N_5
REMARK    4  A    between atoms: C_3  and  O_4
REMARK    5  A    between atoms: C_6  and  C_7
REMARK    6  A    between atoms: C_11  and  N_12
REMARK    7  A    between atoms: N_12  and  C_13
REMARK    8  A    between atoms: C_16  and  C_19
REMARK    9  A    between atoms: C_19  and  C_20
REMARK                            x       y       z     vdW  Elec       q    Type
REMARK                         _______ _______ _______ _____ _____    ______ ____
ROOT
ATOM      1  C   UNK A   0      -3.287  -2.132   1.210  0.00  0.00    +0.106 A 
ATOM      2  C   UNK A   0      -3.807  -2.086  -0.082  0.00  0.00    +0.268 A 
ATOM      3  N   UNK A   0      -4.936  -1.372  -0.248  0.00  0.00    -0.291 N 
ATOM      4  S   UNK A   0      -5.295  -0.780   1.273  0.00  0.00    +0.005 S 
ATOM      5  C   UNK A   0      -4.027  -1.424   2.162  0.00  0.00    +0.102 A 
ATOM      6  O   UNK A   0      -3.268  -2.662  -1.014  0.00  0.00    -0.267 OA
ATOM      7  H   UNK A   0      -5.433  -1.233  -1.070  0.00  0.00    +0.177 HD
ENDROOT
BRANCH   1   9
ATOM      8  N   ALA A   1      -1.473  -3.609   0.642  0.00  0.00    -0.368 N 
ATOM      9  C   UNK A   0      -2.061  -2.871   1.547  0.00  0.00    +0.105 C 
ATOM     10  N   UNK A   0      -1.531  -2.785   2.818  0.00  0.00    -0.344 N 
ATOM     11  H   UNK A   0      -0.678  -3.202   3.017  0.00  0.00    +0.144 HD
ATOM     12  H   UNK A   0      -2.011  -2.308   3.513  0.00  0.00    +0.144 HD
ATOM     13  H   ALA A   1      -1.846  -3.669  -0.252  0.00  0.00    +0.161 HD
BRANCH   8  15
ATOM     14  CB  ALA A   1       0.960  -3.428   0.805  0.00  0.00    +0.032 C 
ATOM     15  CA  ALA A   1      -0.252  -4.345   0.977  0.00  0.00    +0.103 C 
BRANCH  15  16
ATOM     16  C   ALA A   1      -0.113  -5.553   0.049  0.00  0.00    +0.180 C 
BRANCH  16  17
ATOM     17  O   ALA A   1       0.074  -5.103  -1.294  0.00  0.00    -0.393 OA
ATOM     18  H   ALA A   1       0.169  -5.817  -1.939  0.00  0.00    +0.209 HD
ENDBRANCH  16  17
ENDBRANCH  15  16
ENDBRANCH   8  15
ENDBRANCH   1   9
BRANCH   5  19
ATOM     19  N   UNK A   0      -3.774  -1.287   3.507  0.00  0.00    -0.307 N 
ATOM     20  H   UNK A   0      -2.935  -0.904   3.806  0.00  0.00    +0.153 HD
BRANCH  19  21
ATOM     21  C   UNK A   0      -4.728  -1.699   4.443  0.00  0.00    +0.032 A 
ATOM     22  C   UNK A   0      -5.959  -2.179   4.017  0.00  0.00    +0.023 A 
ATOM     23  C   UNK A   0      -6.898  -2.586   4.944  0.00  0.00    +0.006 A 
ATOM     24  C   UNK A   0      -6.614  -2.516   6.295  0.00  0.00    -0.043 A 
ATOM     25  C   UNK A   0      -5.388  -2.038   6.723  0.00  0.00    +0.006 A 
ATOM     26  C   UNK A   0      -4.443  -1.635   5.801  0.00  0.00    +0.023 A 
BRANCH  24  27
ATOM     27  C   UNK A   0      -7.641  -2.960   7.304  0.00  0.00    +0.070 C 
BRANCH  27  28
ATOM     28  C   UNK A   0      -7.456  -4.426   7.598  0.00  0.00    -0.043 A 
ATOM     29  C   UNK A   0      -8.120  -5.372   6.841  0.00  0.00    +0.004 A 
ATOM     30  C   UNK A   0      -7.950  -6.717   7.111  0.00  0.00    +0.000 A 
ATOM     31  C   UNK A   0      -7.115  -7.116   8.138  0.00  0.00    +0.000 A 
ATOM     32  C   UNK A   0      -6.449  -6.170   8.894  0.00  0.00    +0.000 A 
ATOM     33  C   UNK A   0      -6.616  -4.825   8.622  0.00  0.00    +0.004 A 
ENDBRANCH  27  28
ENDBRANCH  24  27
ENDBRANCH  19  21
ENDBRANCH   5  19
TORSDOF 8
