REMARK  Name = CHEMBL282361
REMARK  12 active torsions:
REMARK  status: ('A' for Active; 'I' for Inactive)
REMARK    1  A    between atoms: C_1  and  O_2
REMARK    2  A    between atoms: O_2  and  C_3
REMARK    3  A    between atoms: C_8  and  O_9
REMARK    4  A    between atoms: O_9  and  C_10
REMARK    5  A    between atoms: C_10  and  C_11
REMARK    6  A    between atoms: C_11  and  C_12
REMARK    7  A    between atoms: C_12  and  N_13
REMARK    8  A    between atoms: C_21  and  C_37
REMARK    9  A    between atoms: C_22  and  N_23
REMARK   10  A    between atoms: N_23  and  C_24
REMARK   11  A    between atoms: C_27  and  S_30
REMARK   12  A    between atoms: S_30  and  C_31
REMARK                            x       y       z     vdW  Elec       q    Type
REMARK                         _______ _______ _______ _____ _____    ______ ____
ROOT
ATOM      1  C   UNL     1       5.590  -0.814   2.312  0.00  0.00    +0.162 A 
ATOM      2  C   UNL     1       4.613  -0.080   2.922  0.00  0.00    +0.061 A 
ATOM      3  C   UNL     1       3.618  -0.728   3.669  0.00  0.00    +0.026 A 
ATOM      4  C   UNL     1       3.630  -2.139   3.788  0.00  0.00    +0.077 A 
ATOM      5  C   UNL     1       4.645  -2.870   3.152  0.00  0.00    +0.077 A 
ATOM      6  C   UNL     1       5.606  -2.211   2.421  0.00  0.00    +0.164 A 
ATOM      7  N   UNL     1       2.681  -2.765   4.500  0.00  0.00    -0.253 NA
ATOM      8  C   UNL     1       1.722  -2.110   5.103  0.00  0.00    +0.132 A 
ATOM      9  C   UNL     1       1.632  -0.711   5.038  0.00  0.00    +0.091 A 
ATOM     10  C   UNL     1       2.594   0.006   4.310  0.00  0.00    +0.060 A 
ENDROOT
BRANCH   1  12
ATOM     11  C   UNL     1       6.481   1.243   1.517  0.00  0.00    +0.277 C 
ATOM     12  O   UNL     1       6.553  -0.183   1.589  0.00  0.00    -0.491 OA
ENDBRANCH   1  12
BRANCH  10  13
ATOM     13  N   UNL     1       2.542   1.383   4.223  0.00  0.00    -0.313 N 
ATOM     14  H   UNL     1       1.998   1.805   3.539  0.00  0.00    +0.152 HD
BRANCH  13  15
ATOM     15  C   UNL     1       3.273   2.170   5.120  0.00  0.00    +0.031 A 
ATOM     16  C   UNL     1       4.150   1.569   6.015  0.00  0.00    +0.024 A 
ATOM     17  C   UNL     1       4.872   2.345   6.900  0.00  0.00    +0.016 A 
ATOM     18  C   UNL     1       4.722   3.726   6.895  0.00  0.00    +0.008 A 
ATOM     19  C   UNL     1       3.845   4.326   5.999  0.00  0.00    +0.016 A 
ATOM     20  C   UNL     1       3.127   3.551   5.111  0.00  0.00    +0.024 A 
BRANCH  18  21
ATOM     21  S   UNL     1       5.642   4.716   8.025  0.00  0.00    -0.122 S 
BRANCH  21  22
ATOM     22  C   UNL     1       7.094   5.237   7.070  0.00  0.00    +0.051 C 
ATOM     23  C   UNL     1       7.967   4.018   6.764  0.00  0.00    +0.014 C 
ATOM     24  C   UNL     1       9.192   4.457   5.958  0.00  0.00    +0.001 C 
ATOM     25  C   UNL     1       9.999   5.473   6.770  0.00  0.00    +0.000 C 
ATOM     26  C   UNL     1       9.126   6.691   7.076  0.00  0.00    +0.001 C 
ATOM     27  C   UNL     1       7.901   6.252   7.882  0.00  0.00    +0.014 C 
ENDBRANCH  21  22
ENDBRANCH  18  21
ENDBRANCH  13  15
ENDBRANCH  10  13
BRANCH   9  28
ATOM     28  C   UNL     1       0.570  -0.022   5.708  0.00  0.00    +0.103 C 
ATOM     29  N   UNL     1      -0.272   0.525   6.240  0.00  0.00    -0.191 NA
ENDBRANCH   9  28
BRANCH   6  30
ATOM     30  O   UNL     1       6.585  -2.922   1.802  0.00  0.00    -0.488 OA
BRANCH  30  31
ATOM     31  C   UNL     1       6.547  -4.342   1.950  0.00  0.00    +0.227 C 
BRANCH  31  32
ATOM     32  C   UNL     1       7.719  -4.966   1.189  0.00  0.00    +0.022 C 
BRANCH  32  33
ATOM     33  C   UNL     1       7.678  -6.487   1.347  0.00  0.00    -0.075 C 
BRANCH  33  34
ATOM     34  N   UNL     1       8.804  -7.085   0.617  0.00  0.00    +0.383 N 
ATOM     35  C   UNL     1       8.639  -6.841  -0.823  0.00  0.00    -0.050 C 
ATOM     36  C   UNL     1       9.813  -7.465  -1.582  0.00  0.00    +0.141 C 
ATOM     37  O   UNL     1       9.872  -8.864  -1.290  0.00  0.00    -0.383 OA
ATOM     38  C   UNL     1      10.009  -9.154   0.104  0.00  0.00    +0.141 C 
ATOM     39  C   UNL     1       8.835  -8.533   0.866  0.00  0.00    -0.050 C 
ATOM     40  H   UNL     1       9.668  -6.671   0.932  0.00  0.00    -0.082 HD
ENDBRANCH  33  34
ENDBRANCH  32  33
ENDBRANCH  31  32
ENDBRANCH  30  31
ENDBRANCH   6  30
TORSDOF 11
