REMARK  Name = CHEMBL329492
REMARK  9 active torsions:
REMARK  status: ('A' for Active; 'I' for Inactive)
REMARK    1  A    between atoms: C_4  and  S_6
REMARK    2  A    between atoms: S_6  and  C_7
REMARK    3  A    between atoms: C_7  and  N_22
REMARK    4  A    between atoms: C_8  and  C_9
REMARK    5  A    between atoms: C_8  and  C_20
REMARK    6  A    between atoms: C_9  and  C_18
REMARK    7  A    between atoms: C_10  and  S_11
REMARK    8  A    between atoms: C_10  and  N_17
REMARK    9  A    between atoms: S_11  and  C_12
REMARK                            x       y       z     vdW  Elec       q    Type
REMARK                         _______ _______ _______ _____ _____    ______ ____
ROOT
ATOM      1  C   UNL     1       2.981  -3.516  -0.247  0.00  0.00    +0.083 C 
ATOM      2  C   UNL     1       4.074  -2.877  -0.804  0.00  0.00    +0.099 C 
ENDROOT
BRANCH   1   3
ATOM      3  N   UNL     1       3.034  -3.963   1.055  0.00  0.00    -0.352 N 
ATOM      4  H   UNL     1       2.625  -4.809   1.294  0.00  0.00    +0.143 HD
ATOM      5  H   UNL     1       3.480  -3.431   1.732  0.00  0.00    +0.143 HD
ENDBRANCH   1   3
BRANCH   2   6
ATOM      6  C   UNL     1       5.346  -2.783  -0.044  0.00  0.00    +0.099 C 
ATOM      7  C   UNL     1       6.065  -3.930   0.246  0.00  0.00    +0.083 C 
BRANCH   7   8
ATOM      8  N   UNL     1       5.663  -5.142  -0.268  0.00  0.00    -0.352 N 
ATOM      9  H   UNL     1       5.264  -5.187  -1.151  0.00  0.00    +0.143 HD
ATOM     10  H   UNL     1       5.780  -5.952   0.252  0.00  0.00    +0.143 HD
ENDBRANCH   7   8
BRANCH   6  11
ATOM     11  C   UNL     1       5.830  -1.507   0.389  0.00  0.00    +0.103 C 
ATOM     12  N   UNL     1       6.213  -0.494   0.733  0.00  0.00    -0.191 NA
ENDBRANCH   6  11
BRANCH   7  13
ATOM     13  S   UNL     1       7.494  -3.838   1.272  0.00  0.00    -0.066 S 
BRANCH  13  14
ATOM     14  C   UNL     1       8.189  -5.454   1.181  0.00  0.00    +0.051 A 
ATOM     15  S   UNL     1       7.732  -6.817   0.122  0.00  0.00    -0.090 S 
ATOM     16  C   UNL     1       8.932  -8.004   0.705  0.00  0.00    +0.046 A 
ATOM     17  C   UNL     1       9.592  -7.297   1.653  0.00  0.00    +0.009 A 
ATOM     18  C   UNL     1       9.220  -5.988   1.897  0.00  0.00    +0.023 A 
ENDBRANCH  13  14
ENDBRANCH   7  13
ENDBRANCH   2   6
BRANCH   2  19
ATOM     19  C   UNL     1       3.978  -2.306  -2.114  0.00  0.00    +0.103 C 
ATOM     20  N   UNL     1       3.903  -1.853  -3.153  0.00  0.00    -0.191 NA
ENDBRANCH   2  19
BRANCH   1  21
ATOM     21  S   UNL     1       1.520  -3.758  -1.202  0.00  0.00    -0.066 S 
BRANCH  21  25
ATOM     22  C   UNL     1      -1.671  -5.249   0.823  0.00  0.00    +0.009 A 
ATOM     23  C   UNL     1      -1.065  -5.378   2.028  0.00  0.00    +0.046 A 
ATOM     24  S   UNL     1       0.584  -4.789   1.681  0.00  0.00    -0.090 S 
ATOM     25  C   UNL     1       0.358  -4.409  -0.048  0.00  0.00    +0.051 A 
ATOM     26  C   UNL     1      -0.946  -4.753  -0.244  0.00  0.00    +0.023 A 
ENDBRANCH  21  25
ENDBRANCH   1  21
TORSDOF 9
