REMARK  Name = CHEMBL284774
REMARK  7 active torsions:
REMARK  status: ('A' for Active; 'I' for Inactive)
REMARK    1  A    between atoms: C_4  and  C_7
REMARK    2  A    between atoms: C_7  and  C_8
REMARK    3  A    between atoms: C_7  and  C_10
REMARK    4  A    between atoms: C_10  and  N_11
REMARK    5  A    between atoms: C_10  and  S_12
REMARK    6  A    between atoms: S_12  and  C_13
REMARK    7  A    between atoms: C_18  and  N_19
REMARK                            x       y       z     vdW  Elec       q    Type
REMARK                         _______ _______ _______ _____ _____    ______ ____
ROOT
ATOM      1  C   UNL     1       4.783   0.078  -1.183  0.00  0.00    +0.136 C 
ENDROOT
BRANCH   1   2
ATOM      2  N   UNL     1       5.599   1.284  -1.375  0.00  0.00    -0.317 NA
ATOM      3  H   UNL     1       5.059   2.023  -1.801  0.00  0.00    +0.119 HD
ATOM      4  H   UNL     1       6.005   1.590  -0.503  0.00  0.00    +0.119 HD
ENDBRANCH   1   2
BRANCH   1   5
ATOM      5  C   UNL     1       3.659   0.377  -0.189  0.00  0.00    +0.148 C 
BRANCH   5   9
ATOM      6  C   UNL     1       1.498  -3.215   0.635  0.00  0.00    +0.000 A 
ATOM      7  C   UNL     1       0.846  -2.127   0.086  0.00  0.00    +0.000 A 
ATOM      8  C   UNL     1       1.545  -0.964  -0.180  0.00  0.00    +0.005 A 
ATOM      9  C   UNL     1       2.896  -0.890   0.102  0.00  0.00    -0.028 A 
ATOM     10  C   UNL     1       3.548  -1.978   0.652  0.00  0.00    +0.005 A 
ATOM     11  C   UNL     1       2.849  -3.141   0.917  0.00  0.00    +0.000 A 
ENDBRANCH   5   9
BRANCH   5  12
ATOM     12  C   UNL     1       4.234   0.902   1.060  0.00  0.00    +0.073 C 
ATOM     13  N   UNL     1       4.678   1.307   2.024  0.00  0.00    -0.196 NA
ENDBRANCH   5  12
ENDBRANCH   1   5
BRANCH   1  14
ATOM     14  S   UNL     1       4.068  -0.428  -2.771  0.00  0.00    -0.103 S 
BRANCH  14  15
ATOM     15  C   UNL     1       5.449  -1.020  -3.691  0.00  0.00    +0.030 A 
ATOM     16  C   UNL     1       6.697  -0.438  -3.524  0.00  0.00    +0.016 A 
ATOM     17  C   UNL     1       7.780  -0.905  -4.247  0.00  0.00    +0.001 A 
ATOM     18  C   UNL     1       7.622  -1.951  -5.137  0.00  0.00    +0.002 A 
ATOM     19  C   UNL     1       6.382  -2.537  -5.310  0.00  0.00    +0.024 A 
ATOM     20  C   UNL     1       5.292  -2.080  -4.585  0.00  0.00    +0.038 A 
BRANCH  20  21
ATOM     21  N   UNL     1       4.036  -2.675  -4.754  0.00  0.00    -0.357 N 
ATOM     22  H   UNL     1       3.274  -2.352  -4.249  0.00  0.00    +0.142 HD
ATOM     23  H   UNL     1       3.929  -3.412  -5.376  0.00  0.00    +0.142 HD
ENDBRANCH  20  21
ENDBRANCH  14  15
ENDBRANCH   1  14
TORSDOF 7
