REMARK  Name = CHEMBL442235
REMARK  4 active torsions:
REMARK  status: ('A' for Active; 'I' for Inactive)
REMARK    1  A    between atoms: C_1  and  N_2
REMARK    2  A    between atoms: C_4  and  C_18
REMARK    3  A    between atoms: C_5  and  N_9
REMARK    4  A    between atoms: N_9  and  C_10
REMARK                            x       y       z     vdW  Elec       q    Type
REMARK                         _______ _______ _______ _____ _____    ______ ____
ROOT
ATOM      1  C   UNL     1      -0.238   1.554  -0.061  0.00  0.00    +0.152 C 
ATOM      2  N   UNL     1      -0.154   0.092  -0.092  0.00  0.00    -0.317 N 
ATOM      3  C   UNL     1      -1.263  -0.630   0.156  0.00  0.00    +0.103 A 
ATOM      4  C   UNL     1      -1.222  -2.008   0.135  0.00  0.00    +0.074 A 
ATOM      5  C   UNL     1       0.054  -2.671  -0.162  0.00  0.00    +0.050 A 
ATOM      6  C   UNL     1       1.161  -1.877  -0.409  0.00  0.00    +0.094 A 
ATOM      7  C   UNL     1       1.025  -0.486  -0.372  0.00  0.00    +0.253 A 
ATOM      8  O   UNL     1       1.999   0.216  -0.593  0.00  0.00    -0.268 OA
ENDROOT
BRANCH   4   9
ATOM      9  C   UNL     1      -2.433  -2.799   0.407  0.00  0.00    +0.245 C 
ATOM     10  O   UNL     1      -2.391  -4.013   0.358  0.00  0.00    -0.270 OA
ATOM     11  N   UNL     1      -3.590  -2.177   0.710  0.00  0.00    -0.325 N 
ATOM     12  H   UNL     1      -3.608  -1.214   0.820  0.00  0.00    +0.145 HD
ATOM     13  H   UNL     1      -4.404  -2.693   0.818  0.00  0.00    +0.145 HD
ENDBRANCH   4   9
BRANCH   5  14
ATOM     14  N   UNL     1       0.148  -4.048  -0.194  0.00  0.00    -0.311 N 
ATOM     15  H   UNL     1       0.670  -4.514   0.477  0.00  0.00    +0.152 HD
BRANCH  14  16
ATOM     16  C   UNL     1      -0.512  -4.771  -1.194  0.00  0.00    +0.067 A 
ATOM     17  C   UNL     1      -1.171  -4.102  -2.217  0.00  0.00    +0.027 A 
ATOM     18  C   UNL     1      -1.822  -4.818  -3.203  0.00  0.00    +0.016 A 
ATOM     19  C   UNL     1      -1.818  -6.201  -3.173  0.00  0.00    +0.016 A 
ATOM     20  C   UNL     1      -1.163  -6.872  -2.156  0.00  0.00    +0.054 A 
ATOM     21  C   UNL     1      -0.504  -6.162  -1.169  0.00  0.00    +0.145 A 
ATOM     22  F   UNL     1       0.140  -6.817  -0.179  0.00  0.00    -0.204 F 
ATOM     23  I   UNL     1      -2.807  -7.281  -4.671  0.00  0.00    -0.044 I 
ENDBRANCH  14  16
ENDBRANCH   5  14
TORSDOF 3
