REMARK  Name = CHEMBL371658
REMARK  9 active torsions:
REMARK  status: ('A' for Active; 'I' for Inactive)
REMARK    1  A    between atoms: C_4  and  C_7
REMARK    2  A    between atoms: C_7  and  C_8
REMARK    3  A    between atoms: C_11  and  N_14
REMARK    4  A    between atoms: N_14  and  C_15
REMARK    5  A    between atoms: C_18  and  N_27
REMARK    6  A    between atoms: C_24  and  C_25
REMARK    7  A    between atoms: N_27  and  C_28
REMARK    8  A    between atoms: C_28  and  C_29
REMARK    9  A    between atoms: C_29  and  N_30
REMARK                            x       y       z     vdW  Elec       q    Type
REMARK                         _______ _______ _______ _____ _____    ______ ____
ROOT
ATOM      1  C   UNL     1       4.963  -2.767   5.969  0.00  0.00    +0.060 A 
ATOM      2  C   UNL     1       5.007  -2.828   7.382  0.00  0.00    +0.027 A 
ATOM      3  C   UNL     1       5.510  -1.774   8.156  0.00  0.00    +0.055 A 
ATOM      4  C   UNL     1       5.518  -1.910   9.532  0.00  0.00    +0.119 A 
ATOM      5  N   UNL     1       5.062  -3.011  10.119  0.00  0.00    -0.238 NA
ATOM      6  C   UNL     1       4.581  -4.028   9.444  0.00  0.00    +0.141 A 
ATOM      7  C   UNL     1       4.529  -3.987   8.041  0.00  0.00    +0.091 A 
ATOM      8  N   UNL     1       4.042  -5.013   7.330  0.00  0.00    -0.252 NA
ATOM      9  C   UNL     1       3.989  -4.984   6.024  0.00  0.00    +0.132 A 
ATOM     10  C   UNL     1       4.436  -3.873   5.288  0.00  0.00    +0.091 A 
ENDROOT
BRANCH   1  11
ATOM     11  N   UNL     1       5.418  -1.657   5.287  0.00  0.00    -0.313 N 
ATOM     12  H   UNL     1       6.346  -1.606   5.007  0.00  0.00    +0.152 HD
BRANCH  11  16
ATOM     13  C   UNL     1       2.807   1.470   4.424  0.00  0.00    -0.043 A 
ATOM     14  C   UNL     1       4.096   1.489   3.923  0.00  0.00    +0.006 A 
ATOM     15  C   UNL     1       4.965   0.454   4.207  0.00  0.00    +0.023 A 
ATOM     16  C   UNL     1       4.542  -0.608   4.997  0.00  0.00    +0.031 A 
ATOM     17  C   UNL     1       3.247  -0.624   5.500  0.00  0.00    +0.023 A 
ATOM     18  C   UNL     1       2.385   0.418   5.216  0.00  0.00    +0.006 A 
BRANCH  13  19
ATOM     19  C   UNL     1       1.862   2.602   4.111  0.00  0.00    +0.070 C 
BRANCH  19  23
ATOM     20  C   UNL     1       2.232   5.635   7.096  0.00  0.00    +0.000 A 
ATOM     21  C   UNL     1       3.027   5.677   5.966  0.00  0.00    +0.000 A 
ATOM     22  C   UNL     1       2.907   4.696   5.000  0.00  0.00    +0.004 A 
ATOM     23  C   UNL     1       1.994   3.671   5.165  0.00  0.00    -0.043 A 
ATOM     24  C   UNL     1       1.200   3.628   6.296  0.00  0.00    +0.004 A 
ATOM     25  C   UNL     1       1.318   4.611   7.261  0.00  0.00    +0.000 A 
ENDBRANCH  19  23
ENDBRANCH  13  19
ENDBRANCH  11  16
ENDBRANCH   1  11
BRANCH  10  26
ATOM     26  C   UNL     1       4.358  -3.873   3.858  0.00  0.00    +0.103 C 
ATOM     27  N   UNL     1       4.296  -3.872   2.724  0.00  0.00    -0.191 NA
ENDBRANCH  10  26
BRANCH   4  28
ATOM     28  N   UNL     1       6.014  -0.872  10.318  0.00  0.00    -0.331 N 
ATOM     29  H   UNL     1       6.024  -0.958  11.284  0.00  0.00    +0.147 HD
BRANCH  28  30
ATOM     30  C   UNL     1       6.520   0.348   9.685  0.00  0.00    +0.084 C 
BRANCH  30  31
ATOM     31  C   UNL     1       7.002   1.320  10.764  0.00  0.00    -0.060 C 
BRANCH  31  32
ATOM     32  N   UNL     1       7.509   2.544  10.130  0.00  0.00    +0.384 N 
ATOM     33  C   UNL     1       8.703   2.225   9.335  0.00  0.00    -0.050 C 
ATOM     34  C   UNL     1       9.230   3.502   8.675  0.00  0.00    +0.141 C 
ATOM     35  O   UNL     1       9.516   4.472   9.687  0.00  0.00    -0.383 OA
ATOM     36  C   UNL     1       8.389   4.798  10.504  0.00  0.00    +0.141 C 
ATOM     37  C   UNL     1       7.860   3.524  11.167  0.00  0.00    -0.050 C 
ATOM     38  H   UNL     1       6.798   2.931   9.528  0.00  0.00    -0.082 HD
ENDBRANCH  31  32
ENDBRANCH  30  31
ENDBRANCH  28  30
ENDBRANCH   4  28
TORSDOF 9
