REMARK  Name = CHEMBL37646
REMARK  8 active torsions:
REMARK  status: ('A' for Active; 'I' for Inactive)
REMARK    1  A    between atoms: C_4  and  O_7
REMARK    2  A    between atoms: O_7  and  C_8
REMARK    3  A    between atoms: C_11  and  C_14
REMARK    4  A    between atoms: C_14  and  C_25
REMARK    5  A    between atoms: C_15  and  N_16
REMARK    6  A    between atoms: C_15  and  S_17
REMARK    7  A    between atoms: S_17  and  C_18
REMARK    8  A    between atoms: C_23  and  N_24
REMARK                            x       y       z     vdW  Elec       q    Type
REMARK                         _______ _______ _______ _____ _____    ______ ____
ROOT
ATOM      1  C   UNL     1       3.841  -6.315   0.046  0.00  0.00    +0.086 C 
ATOM      2  C   UNL     1       4.501  -6.952  -0.994  0.00  0.00    +0.082 C 
ENDROOT
BRANCH   1   6
ATOM      3  C   UNL     1       3.299  -2.098  -0.045  0.00  0.00    +0.128 A 
ATOM      4  C   UNL     1       2.197  -2.939  -0.105  0.00  0.00    +0.047 A 
ATOM      5  C   UNL     1       2.368  -4.308  -0.076  0.00  0.00    +0.013 A 
ATOM      6  C   UNL     1       3.652  -4.846   0.014  0.00  0.00    -0.005 A 
ATOM      7  C   UNL     1       4.758  -3.997   0.074  0.00  0.00    +0.013 A 
ATOM      8  C   UNL     1       4.579  -2.630   0.039  0.00  0.00    +0.047 A 
BRANCH   3   9
ATOM      9  O   UNL     1       3.126  -0.750  -0.073  0.00  0.00    -0.456 OA
BRANCH   9  13
ATOM     10  C   UNL     1       1.891   1.118   3.392  0.00  0.00    +0.000 A 
ATOM     11  C   UNL     1       1.999  -0.260   3.351  0.00  0.00    +0.004 A 
ATOM     12  C   UNL     1       2.412  -0.888   2.192  0.00  0.00    +0.046 A 
ATOM     13  C   UNL     1       2.719  -0.135   1.068  0.00  0.00    +0.128 A 
ATOM     14  C   UNL     1       2.611   1.248   1.111  0.00  0.00    +0.046 A 
ATOM     15  C   UNL     1       2.197   1.871   2.273  0.00  0.00    +0.004 A 
ENDBRANCH   9  13
ENDBRANCH   3   9
ENDBRANCH   1   6
BRANCH   2  16
ATOM     16  N   UNL     1       4.676  -8.313  -0.964  0.00  0.00    -0.352 N 
ATOM     17  H   UNL     1       4.273  -8.839  -0.255  0.00  0.00    +0.143 HD
ATOM     18  H   UNL     1       5.203  -8.750  -1.652  0.00  0.00    +0.143 HD
ENDBRANCH   2  16
BRANCH   1  19
ATOM     19  C   UNL     1       3.341  -7.077   1.151  0.00  0.00    +0.102 C 
ATOM     20  N   UNL     1       2.945  -7.681   2.027  0.00  0.00    -0.191 NA
ENDBRANCH   1  19
BRANCH   2  21
ATOM     21  S   UNL     1       5.116  -6.014  -2.353  0.00  0.00    -0.072 S 
BRANCH  21  22
ATOM     22  C   UNL     1       4.192  -6.606  -3.732  0.00  0.00    +0.035 A 
ATOM     23  C   UNL     1       3.147  -7.497  -3.538  0.00  0.00    +0.017 A 
ATOM     24  C   UNL     1       2.423  -7.960  -4.621  0.00  0.00    +0.001 A 
ATOM     25  C   UNL     1       2.738  -7.537  -5.899  0.00  0.00    +0.002 A 
ATOM     26  C   UNL     1       3.778  -6.649  -6.102  0.00  0.00    +0.024 A 
ATOM     27  C   UNL     1       4.506  -6.175  -5.021  0.00  0.00    +0.039 A 
BRANCH  27  28
ATOM     28  N   UNL     1       5.555  -5.272  -5.223  0.00  0.00    -0.357 N 
ATOM     29  H   UNL     1       6.066  -4.944  -4.466  0.00  0.00    +0.142 HD
ATOM     30  H   UNL     1       5.772  -4.973  -6.120  0.00  0.00    +0.142 HD
ENDBRANCH  27  28
ENDBRANCH  21  22
ENDBRANCH   2  21
TORSDOF 8
