REMARK  Name = CHEMBL214613
REMARK  9 active torsions:
REMARK  status: ('A' for Active; 'I' for Inactive)
REMARK    1  A    between atoms: CB_1  and  CA_2
REMARK    2  A    between atoms: CA_2  and  C_3
REMARK    3  A    between atoms: CA_2  and  N_5
REMARK    4  A    between atoms: C_3  and  O_4
REMARK    5  A    between atoms: C_6  and  C_7
REMARK    6  A    between atoms: C_11  and  N_12
REMARK    7  A    between atoms: N_12  and  C_13
REMARK    8  A    between atoms: C_16  and  O_19
REMARK    9  A    between atoms: O_19  and  C_20
REMARK                            x       y       z     vdW  Elec       q    Type
REMARK                         _______ _______ _______ _____ _____    ______ ____
ROOT
ATOM      1  C   UNK A   0      -3.317  -1.852   1.141  0.00  0.00    +0.106 A 
ATOM      2  C   UNK A   0      -3.795  -1.704  -0.160  0.00  0.00    +0.268 A 
ATOM      3  N   UNK A   0      -4.899  -0.948  -0.310  0.00  0.00    -0.291 N 
ATOM      4  S   UNK A   0      -5.289  -0.450   1.237  0.00  0.00    +0.005 S 
ATOM      5  C   UNK A   0      -4.068  -1.189   2.117  0.00  0.00    +0.102 A 
ATOM      6  O   UNK A   0      -3.242  -2.230  -1.112  0.00  0.00    -0.267 OA
ATOM      7  H   UNK A   0      -5.365  -0.739  -1.135  0.00  0.00    +0.177 HD
ENDROOT
BRANCH   1   9
ATOM      8  N   ALA A   1      -1.525  -3.337   0.526  0.00  0.00    -0.368 N 
ATOM      9  C   UNK A   0      -2.123  -2.647   1.463  0.00  0.00    +0.105 C 
ATOM     10  N   UNK A   0      -1.632  -2.664   2.752  0.00  0.00    -0.344 N 
ATOM     11  H   UNK A   0      -0.798  -3.119   2.948  0.00  0.00    +0.144 HD
ATOM     12  H   UNK A   0      -2.121  -2.221   3.463  0.00  0.00    +0.144 HD
ATOM     13  H   ALA A   1      -1.870  -3.325  -0.380  0.00  0.00    +0.161 HD
BRANCH   8  15
ATOM     14  CB  ALA A   1       0.905  -3.237   0.776  0.00  0.00    +0.032 C 
ATOM     15  CA  ALA A   1      -0.335  -4.129   0.847  0.00  0.00    +0.103 C 
BRANCH  15  16
ATOM     16  C   ALA A   1      -0.198  -5.274  -0.159  0.00  0.00    +0.180 C 
BRANCH  16  17
ATOM     17  O   ALA A   1       0.044  -4.737  -1.461  0.00  0.00    -0.393 OA
ATOM     18  H   ALA A   1       0.142  -5.407  -2.151  0.00  0.00    +0.209 HD
ENDBRANCH  16  17
ENDBRANCH  15  16
ENDBRANCH   8  15
ENDBRANCH   1   9
BRANCH   5  19
ATOM     19  N   UNK A   0      -3.855  -1.150   3.474  0.00  0.00    -0.307 N 
ATOM     20  H   UNK A   0      -3.016  -0.810   3.824  0.00  0.00    +0.153 HD
BRANCH  19  21
ATOM     21  C   UNK A   0      -4.848  -1.602   4.352  0.00  0.00    +0.032 A 
ATOM     22  C   UNK A   0      -6.076  -2.018   3.856  0.00  0.00    +0.027 A 
ATOM     23  C   UNK A   0      -7.055  -2.463   4.723  0.00  0.00    +0.048 A 
ATOM     24  C   UNK A   0      -6.811  -2.494   6.088  0.00  0.00    +0.129 A 
ATOM     25  C   UNK A   0      -5.584  -2.079   6.584  0.00  0.00    +0.048 A 
ATOM     26  C   UNK A   0      -4.602  -1.640   5.718  0.00  0.00    +0.027 A 
BRANCH  24  27
ATOM     27  O   UNK A   0      -7.775  -2.932   6.941  0.00  0.00    -0.453 OA
BRANCH  27  28
ATOM     28  C   UNK A   0      -8.001  -4.271   7.016  0.00  0.00    +0.166 A 
ATOM     29  C   UNK A   0      -7.180  -5.153   6.329  0.00  0.00    +0.049 A 
ATOM     30  C   UNK A   0      -7.410  -6.513   6.406  0.00  0.00    +0.007 A 
ATOM     31  C   UNK A   0      -8.457  -6.998   7.167  0.00  0.00    +0.041 A 
ATOM     32  C   UNK A   0      -9.279  -6.122   7.855  0.00  0.00    +0.162 A 
ATOM     33  C   UNK A   0      -9.049  -4.757   7.785  0.00  0.00    +0.200 A 
ATOM     34  F   UNK A   0      -9.848  -3.901   8.460  0.00  0.00    -0.199 F 
ATOM     35  F   UNK A   0     -10.301  -6.598   8.599  0.00  0.00    -0.202 F 
ENDBRANCH  27  28
ENDBRANCH  24  27
ENDBRANCH  19  21
ENDBRANCH   5  19
TORSDOF 8
