REMARK  Name = CHEMBL30597
REMARK  9 active torsions:
REMARK  status: ('A' for Active; 'I' for Inactive)
REMARK    1  A    between atoms: C_1  and  O_2
REMARK    2  A    between atoms: O_2  and  C_3
REMARK    3  A    between atoms: C_8  and  O_9
REMARK    4  A    between atoms: O_9  and  C_10
REMARK    5  A    between atoms: C_13  and  C_24
REMARK    6  A    between atoms: C_14  and  N_15
REMARK    7  A    between atoms: N_15  and  C_16
REMARK    8  A    between atoms: C_19  and  S_22
REMARK    9  A    between atoms: S_22  and  C_23
REMARK                            x       y       z     vdW  Elec       q    Type
REMARK                         _______ _______ _______ _____ _____    ______ ____
ROOT
ATOM      1  C   UNL     1      -4.441  -0.696   3.581  0.00  0.00    +0.162 A 
ATOM      2  C   UNL     1      -4.555   0.057   2.447  0.00  0.00    +0.061 A 
ATOM      3  C   UNL     1      -4.688  -0.574   1.202  0.00  0.00    +0.026 A 
ATOM      4  C   UNL     1      -4.704  -1.988   1.123  0.00  0.00    +0.077 A 
ATOM      5  C   UNL     1      -4.586  -2.739   2.302  0.00  0.00    +0.077 A 
ATOM      6  C   UNL     1      -4.451  -2.096   3.512  0.00  0.00    +0.164 A 
ATOM      7  N   UNL     1      -4.830  -2.597  -0.065  0.00  0.00    -0.253 NA
ATOM      8  C   UNL     1      -4.941  -1.923  -1.182  0.00  0.00    +0.132 A 
ATOM      9  C   UNL     1      -4.935  -0.519  -1.198  0.00  0.00    +0.091 A 
ATOM     10  C   UNL     1      -4.807   0.181   0.012  0.00  0.00    +0.060 A 
ENDROOT
BRANCH   1  12
ATOM     11  C   UNL     1      -4.310   1.347   4.791  0.00  0.00    +0.277 C 
ATOM     12  O   UNL     1      -4.312  -0.082   4.787  0.00  0.00    -0.491 OA
ENDBRANCH   1  12
BRANCH   6  13
ATOM     13  O   UNL     1      -4.331  -2.826   4.651  0.00  0.00    -0.491 OA
ATOM     14  C   UNL     1      -4.348  -4.248   4.515  0.00  0.00    +0.277 C 
ENDBRANCH   6  13
BRANCH  10  15
ATOM     15  N   UNL     1      -4.797   1.561   0.039  0.00  0.00    -0.313 N 
ATOM     16  H   UNL     1      -3.966   2.042  -0.094  0.00  0.00    +0.152 HD
BRANCH  15  17
ATOM     17  C   UNL     1      -5.987   2.265   0.258  0.00  0.00    +0.031 A 
ATOM     18  C   UNL     1      -7.150   1.579   0.582  0.00  0.00    +0.024 A 
ATOM     19  C   UNL     1      -8.323   2.273   0.799  0.00  0.00    +0.016 A 
ATOM     20  C   UNL     1      -8.340   3.659   0.693  0.00  0.00    +0.008 A 
ATOM     21  C   UNL     1      -7.176   4.345   0.369  0.00  0.00    +0.016 A 
ATOM     22  C   UNL     1      -6.002   3.650   0.158  0.00  0.00    +0.024 A 
BRANCH  20  23
ATOM     23  S   UNL     1      -9.838   4.545   0.969  0.00  0.00    -0.129 S 
ATOM     24  C   UNL     1      -9.372   6.281   0.724  0.00  0.00    +0.090 C 
ENDBRANCH  20  23
ENDBRANCH  15  17
ENDBRANCH  10  15
BRANCH   9  25
ATOM     25  C   UNL     1      -5.058   0.191  -2.435  0.00  0.00    +0.103 C 
ATOM     26  N   UNL     1      -5.156   0.754  -3.417  0.00  0.00    -0.191 NA
ENDBRANCH   9  25
TORSDOF 6
