REMARK  Name = CHEMBL201629
REMARK  7 active torsions:
REMARK  status: ('A' for Active; 'I' for Inactive)
REMARK    1  A    between atoms: C_1  and  N_2
REMARK    2  A    between atoms: C_4  and  C_19
REMARK    3  A    between atoms: C_5  and  N_10
REMARK    4  A    between atoms: N_10  and  C_11
REMARK    5  A    between atoms: N_21  and  O_22
REMARK    6  A    between atoms: O_22  and  C_23
REMARK    7  A    between atoms: C_23  and  C_24
REMARK                            x       y       z     vdW  Elec       q    Type
REMARK                         _______ _______ _______ _____ _____    ______ ____
ROOT
ATOM      1  C   UNL     1      -0.248   1.554  -0.062  0.00  0.00    +0.152 C 
ATOM      2  N   UNL     1      -0.162   0.091  -0.093  0.00  0.00    -0.315 N 
ATOM      3  C   UNL     1      -1.270  -0.632   0.152  0.00  0.00    +0.104 A 
ATOM      4  C   UNL     1      -1.226  -2.010   0.132  0.00  0.00    +0.079 A 
ATOM      5  C   UNL     1       0.051  -2.672  -0.162  0.00  0.00    +0.086 A 
ATOM      6  C   UNL     1       1.158  -1.877  -0.405  0.00  0.00    +0.209 A 
ATOM      7  C   UNL     1       1.020  -0.484  -0.369  0.00  0.00    +0.288 A 
ATOM      8  O   UNL     1       1.993   0.220  -0.587  0.00  0.00    -0.264 OA
ATOM      9  F   UNL     1       2.356  -2.438  -0.679  0.00  0.00    -0.198 F 
ENDROOT
BRANCH   4  10
ATOM     10  C   UNL     1      -2.438  -2.803   0.399  0.00  0.00    +0.270 C 
ATOM     11  O   UNL     1      -2.394  -4.017   0.349  0.00  0.00    -0.268 OA
ATOM     12  N   UNL     1      -3.597  -2.183   0.699  0.00  0.00    -0.190 N 
ATOM     13  H   UNL     1      -3.617  -1.219   0.810  0.00  0.00    +0.183 HD
BRANCH  12  14
ATOM     14  O   UNL     1      -4.785  -2.938   0.854  0.00  0.00    -0.279 OA
BRANCH  14  15
ATOM     15  C   UNL     1      -5.935  -2.152   1.171  0.00  0.00    +0.193 C 
BRANCH  15  16
ATOM     16  C   UNL     1      -7.154  -3.067   1.314  0.00  0.00    +0.017 C 
ATOM     17  C   UNL     1      -8.299  -2.879   0.316  0.00  0.00    +0.006 C 
ATOM     18  C   UNL     1      -8.467  -2.428   1.768  0.00  0.00    +0.006 C 
ENDBRANCH  15  16
ENDBRANCH  14  15
ENDBRANCH  12  14
ENDBRANCH   4  10
BRANCH   5  19
ATOM     19  N   UNL     1       0.146  -4.051  -0.193  0.00  0.00    -0.309 N 
ATOM     20  H   UNL     1       0.668  -4.516   0.479  0.00  0.00    +0.152 HD
BRANCH  19  21
ATOM     21  C   UNL     1      -0.510  -4.774  -1.195  0.00  0.00    +0.067 A 
ATOM     22  C   UNL     1      -1.166  -4.106  -2.220  0.00  0.00    +0.027 A 
ATOM     23  C   UNL     1      -1.813  -4.823  -3.208  0.00  0.00    +0.017 A 
ATOM     24  C   UNL     1      -1.808  -6.206  -3.178  0.00  0.00    +0.021 A 
ATOM     25  C   UNL     1      -1.155  -6.877  -2.159  0.00  0.00    +0.055 A 
ATOM     26  C   UNL     1      -0.501  -6.165  -1.170  0.00  0.00    +0.145 A 
ATOM     27  F   UNL     1       0.141  -6.819  -0.177  0.00  0.00    -0.204 F 
ATOM     28 BR   UNL     1      -2.696  -7.182  -4.532  0.00  0.00    -0.050 Br
ENDBRANCH  19  21
ENDBRANCH   5  19
TORSDOF 6
