REMARK  Name = CHEMBL253116
REMARK  9 active torsions:
REMARK  status: ('A' for Active; 'I' for Inactive)
REMARK    1  A    between atoms: CB_1  and  CA_2
REMARK    2  A    between atoms: CA_2  and  C_3
REMARK    3  A    between atoms: CA_2  and  N_5
REMARK    4  A    between atoms: C_3  and  O_4
REMARK    5  A    between atoms: N_5  and  C_6
REMARK    6  A    between atoms: C_6  and  N_7
REMARK    7  A    between atoms: N_13  and  C_14
REMARK    8  A    between atoms: C_17  and  N_20
REMARK    9  A    between atoms: N_20  and  C_21
REMARK                            x       y       z     vdW  Elec       q    Type
REMARK                         _______ _______ _______ _____ _____    ______ ____
ROOT
ATOM      1  C   UNK A   0       2.048  -0.588  -1.213  0.00  0.00    +0.097 C 
ATOM      2  C   UNK A   0       2.698  -1.113  -2.333  0.00  0.00    +0.110 C 
ATOM      3  C   UNK A   0       2.017  -1.457  -3.562  0.00  0.00    +0.290 C 
ATOM      4  N   UNK A   0       2.703  -1.940  -4.555  0.00  0.00    -0.168 NA
ATOM      5  S   UNK A   0       4.290  -2.008  -4.033  0.00  0.00    +0.036 S 
ATOM      6  C   UNK A   0       4.103  -1.358  -2.385  0.00  0.00    +0.135 C 
ATOM      7  N   UNK A   0       5.026  -1.157  -1.451  0.00  0.00    -0.238 NA
ATOM      8  O   UNK A   0       0.676  -1.279  -3.676  0.00  0.00    -0.264 OA
ENDROOT
BRANCH   7   9
ATOM      9  C   UNK A   0       6.333  -1.462  -1.706  0.00  0.00    +0.065 A 
ATOM     10  C   UNK A   0       6.662  -2.669  -2.331  0.00  0.00    +0.029 A 
ATOM     11  C   UNK A   0       7.982  -2.973  -2.586  0.00  0.00    +0.025 A 
ATOM     12  C   UNK A   0       8.985  -2.083  -2.222  0.00  0.00    +0.031 A 
ATOM     13  C   UNK A   0       8.663  -0.882  -1.600  0.00  0.00    +0.025 A 
ATOM     14  C   UNK A   0       7.345  -0.567  -1.347  0.00  0.00    +0.029 A 
BRANCH  12  15
ATOM     15  N   UNK A   0      10.325  -2.396  -2.483  0.00  0.00    -0.314 N 
ATOM     16  H   UNK A   0      11.019  -2.103  -1.872  0.00  0.00    +0.152 HD
BRANCH  15  17
ATOM     17  C   UNK A   0      10.662  -3.130  -3.623  0.00  0.00    +0.031 A 
ATOM     18  C   UNK A   0       9.830  -3.108  -4.736  0.00  0.00    +0.023 A 
ATOM     19  C   UNK A   0      10.166  -3.834  -5.861  0.00  0.00    +0.002 A 
ATOM     20  C   UNK A   0      11.328  -4.584  -5.881  0.00  0.00    +0.000 A 
ATOM     21  C   UNK A   0      12.158  -4.609  -4.774  0.00  0.00    +0.002 A 
ATOM     22  C   UNK A   0      11.831  -3.880  -3.648  0.00  0.00    +0.023 A 
ENDBRANCH  15  17
ENDBRANCH  12  15
ENDBRANCH   7   9
BRANCH   1  23
ATOM     23  N   UNK A   0       2.776  -0.163  -0.140  0.00  0.00    -0.346 N 
ATOM     24  H   UNK A   0       2.324   0.202   0.638  0.00  0.00    +0.143 HD
ATOM     25  H   UNK A   0       3.744  -0.224  -0.154  0.00  0.00    +0.143 HD
ENDBRANCH   1  23
BRANCH   1  26
ATOM     26  N   ALA A   1       0.686  -0.502  -1.193  0.00  0.00    -0.327 N 
ATOM     27  H   ALA A   1       0.174  -0.732  -1.983  0.00  0.00    +0.148 HD
BRANCH  26  29
ATOM     28  CB  ALA A   1      -0.050   1.469   0.055  0.00  0.00    +0.030 C 
ATOM     29  CA  ALA A   1      -0.001  -0.060   0.023  0.00  0.00    +0.094 C 
BRANCH  29  30
ATOM     30  C   ALA A   1      -1.427  -0.616   0.033  0.00  0.00    +0.177 C 
BRANCH  30  31
ATOM     31  O   ALA A   1      -2.168  -0.047  -1.048  0.00  0.00    -0.393 OA
ATOM     32  H   ALA A   1      -3.083  -0.355  -1.103  0.00  0.00    +0.209 HD
ENDBRANCH  30  31
ENDBRANCH  29  30
ENDBRANCH  26  29
ENDBRANCH   1  26
TORSDOF 8
