REMARK  Name = CHEMBL217130
REMARK  9 active torsions:
REMARK  status: ('A' for Active; 'I' for Inactive)
REMARK    1  A    between atoms: CB_1  and  CA_2
REMARK    2  A    between atoms: CA_2  and  C_3
REMARK    3  A    between atoms: CA_2  and  N_5
REMARK    4  A    between atoms: C_3  and  O_4
REMARK    5  A    between atoms: C_6  and  C_7
REMARK    6  A    between atoms: C_11  and  N_12
REMARK    7  A    between atoms: N_12  and  C_13
REMARK    8  A    between atoms: C_16  and  C_19
REMARK    9  A    between atoms: C_19  and  C_21
REMARK                            x       y       z     vdW  Elec       q    Type
REMARK                         _______ _______ _______ _____ _____    ______ ____
ROOT
ATOM      1  C   UNK A   0       3.014  -1.286   3.097  0.00  0.00    +0.106 A 
ATOM      2  C   UNK A   0       2.233  -1.532   4.225  0.00  0.00    +0.268 A 
ATOM      3  N   UNK A   0       2.757  -1.160   5.408  0.00  0.00    -0.291 N 
ATOM      4  S   UNK A   0       4.246  -0.503   5.028  0.00  0.00    +0.005 S 
ATOM      5  C   UNK A   0       4.249  -0.686   3.361  0.00  0.00    +0.102 A 
ATOM      6  O   UNK A   0       1.133  -2.055   4.144  0.00  0.00    -0.267 OA
ATOM      7  H   UNK A   0       2.358  -1.253   6.287  0.00  0.00    +0.177 HD
ENDROOT
BRANCH   1   9
ATOM      8  N   ALA A   1       1.462  -2.294   1.558  0.00  0.00    -0.368 N 
ATOM      9  C   UNK A   0       2.578  -1.637   1.737  0.00  0.00    +0.105 C 
ATOM     10  N   UNK A   0       3.345  -1.272   0.650  0.00  0.00    -0.344 N 
ATOM     11  H   UNK A   0       3.011  -1.415  -0.250  0.00  0.00    +0.144 HD
ATOM     12  H   UNK A   0       4.219  -0.872   0.785  0.00  0.00    +0.144 HD
ATOM     13  H   ALA A   1       0.922  -2.551   2.321  0.00  0.00    +0.161 HD
BRANCH   8  15
ATOM     14  CB  ALA A   1       0.260  -1.467  -0.406  0.00  0.00    +0.032 C 
ATOM     15  CA  ALA A   1       1.026  -2.643   0.203  0.00  0.00    +0.103 C 
BRANCH  15  16
ATOM     16  C   ALA A   1       0.115  -3.871   0.261  0.00  0.00    +0.180 C 
BRANCH  16  17
ATOM     17  O   ALA A   1      -1.081  -3.543   0.969  0.00  0.00    -0.393 OA
ATOM     18  H   ALA A   1      -1.707  -4.276   1.045  0.00  0.00    +0.209 HD
ENDBRANCH  16  17
ENDBRANCH  15  16
ENDBRANCH   8  15
ENDBRANCH   1   9
BRANCH   5  19
ATOM     19  N   UNK A   0       5.231  -0.328   2.467  0.00  0.00    -0.307 N 
ATOM     20  H   UNK A   0       5.035   0.305   1.759  0.00  0.00    +0.153 HD
BRANCH  19  21
ATOM     21  C   UNK A   0       6.506  -0.875   2.578  0.00  0.00    +0.032 A 
ATOM     22  C   UNK A   0       6.797  -1.753   3.619  0.00  0.00    +0.024 A 
ATOM     23  C   UNK A   0       8.052  -2.293   3.731  0.00  0.00    +0.013 A 
ATOM     24  C   UNK A   0       9.040  -1.962   2.798  0.00  0.00    +0.022 A 
ATOM     25  C   UNK A   0       8.745  -1.079   1.754  0.00  0.00    +0.013 A 
ATOM     26  C   UNK A   0       7.486  -0.546   1.645  0.00  0.00    +0.024 A 
BRANCH  24  27
ATOM     27  C   UNK A   0      10.391  -2.541   2.916  0.00  0.00    +0.193 C 
ATOM     28  O   UNK A   0      10.557  -3.577   3.530  0.00  0.00    -0.287 OA
BRANCH  27  29
ATOM     29  C   UNK A   0      11.544  -1.861   2.288  0.00  0.00    +0.022 A 
ATOM     30  C   UNK A   0      11.483  -0.495   2.005  0.00  0.00    +0.012 A 
ATOM     31  C   UNK A   0      12.563   0.132   1.418  0.00  0.00    +0.001 A 
ATOM     32  C   UNK A   0      13.703  -0.589   1.111  0.00  0.00    +0.000 A 
ATOM     33  C   UNK A   0      13.770  -1.943   1.389  0.00  0.00    +0.001 A 
ATOM     34  C   UNK A   0      12.700  -2.582   1.980  0.00  0.00    +0.012 A 
ENDBRANCH  27  29
ENDBRANCH  24  27
ENDBRANCH  19  21
ENDBRANCH   5  19
TORSDOF 8
