REMARK  Name = CHEMBL284774
REMARK  7 active torsions:
REMARK  status: ('A' for Active; 'I' for Inactive)
REMARK    1  A    between atoms: C_4  and  C_7
REMARK    2  A    between atoms: C_7  and  C_8
REMARK    3  A    between atoms: C_7  and  C_10
REMARK    4  A    between atoms: C_10  and  N_11
REMARK    5  A    between atoms: C_10  and  S_12
REMARK    6  A    between atoms: S_12  and  C_13
REMARK    7  A    between atoms: C_18  and  N_19
REMARK                            x       y       z     vdW  Elec       q    Type
REMARK                         _______ _______ _______ _____ _____    ______ ____
ROOT
ATOM      1  C   UNL     1       4.314  -0.740   0.899  0.00  0.00    +0.136 C 
ENDROOT
BRANCH   1   2
ATOM      2  N   UNL     1       4.990   0.538   1.159  0.00  0.00    -0.317 NA
ATOM      3  H   UNL     1       5.870   0.587   0.668  0.00  0.00    +0.119 HD
ATOM      4  H   UNL     1       4.397   1.317   0.917  0.00  0.00    +0.119 HD
ENDBRANCH   1   2
BRANCH   1   5
ATOM      5  C   UNL     1       3.911  -0.814  -0.575  0.00  0.00    +0.148 C 
BRANCH   5   9
ATOM      6  C   UNL     1       1.544   2.598  -1.577  0.00  0.00    +0.000 A 
ATOM      7  C   UNL     1       2.736   2.365  -2.237  0.00  0.00    +0.000 A 
ATOM      8  C   UNL     1       3.502   1.262  -1.913  0.00  0.00    +0.005 A 
ATOM      9  C   UNL     1       3.076   0.390  -0.928  0.00  0.00    -0.028 A 
ATOM     10  C   UNL     1       1.885   0.623  -0.267  0.00  0.00    +0.005 A 
ATOM     11  C   UNL     1       1.118   1.726  -0.593  0.00  0.00    +0.000 A 
ENDBRANCH   5   9
BRANCH   5  12
ATOM     12  C   UNL     1       3.129  -2.039  -0.809  0.00  0.00    +0.073 C 
ATOM     13  N   UNL     1       2.526  -2.984  -0.990  0.00  0.00    -0.196 NA
ENDBRANCH   5  12
ENDBRANCH   1   5
BRANCH   1  14
ATOM     14  S   UNL     1       5.439  -2.109   1.288  0.00  0.00    -0.103 S 
BRANCH  14  15
ATOM     15  C   UNL     1       5.967  -1.773   2.935  0.00  0.00    +0.030 A 
ATOM     16  C   UNL     1       6.766  -0.670   3.198  0.00  0.00    +0.016 A 
ATOM     17  C   UNL     1       7.178  -0.408   4.491  0.00  0.00    +0.001 A 
ATOM     18  C   UNL     1       6.798  -1.243   5.525  0.00  0.00    +0.002 A 
ATOM     19  C   UNL     1       6.003  -2.346   5.272  0.00  0.00    +0.024 A 
ATOM     20  C   UNL     1       5.579  -2.613   3.979  0.00  0.00    +0.038 A 
BRANCH  20  21
ATOM     21  N   UNL     1       4.768  -3.725   3.722  0.00  0.00    -0.357 N 
ATOM     22  H   UNL     1       4.476  -3.913   2.816  0.00  0.00    +0.142 HD
ATOM     23  H   UNL     1       4.499  -4.308   4.449  0.00  0.00    +0.142 HD
ENDBRANCH  20  21
ENDBRANCH  14  15
ENDBRANCH   1  14
TORSDOF 7
