REMARK  Name = CHEMBL201384
REMARK  8 active torsions:
REMARK  status: ('A' for Active; 'I' for Inactive)
REMARK    1  A    between atoms: C_1  and  C_2
REMARK    2  A    between atoms: C_3  and  N_27
REMARK    3  A    between atoms: C_7  and  N_13
REMARK    4  A    between atoms: C_8  and  C_11
REMARK    5  A    between atoms: N_13  and  C_14
REMARK    6  A    between atoms: C_17  and  O_20
REMARK    7  A    between atoms: O_20  and  C_21
REMARK    8  A    between atoms: N_27  and  C_28
REMARK                            x       y       z     vdW  Elec       q    Type
REMARK                         _______ _______ _______ _____ _____    ______ ____
ROOT
ATOM      1  C   UNL     1      -0.603   1.762   0.370  0.00  0.00    +0.048 C 
ATOM      2  C   UNL     1      -0.538   0.264   0.218  0.00  0.00    -0.001 A 
ATOM      3  C   UNL     1      -0.835  -0.469  -0.935  0.00  0.00    +0.055 A 
ATOM      4  C   UNL     1      -0.650  -1.789  -0.651  0.00  0.00    +0.136 A 
ATOM      5  N   UNL     1      -0.246  -1.910   0.642  0.00  0.00    -0.236 N 
ATOM      6  C   UNL     1      -0.167  -0.648   1.193  0.00  0.00    +0.092 A 
ATOM      7  C   UNL     1       0.239  -0.499   2.536  0.00  0.00    +0.077 A 
ATOM      8  C   UNL     1       0.554  -1.649   3.273  0.00  0.00    +0.095 A 
ATOM      9  C   UNL     1       0.458  -2.917   2.654  0.00  0.00    +0.154 A 
ATOM     10  N   UNL     1       0.074  -3.033   1.416  0.00  0.00    -0.173 NA
ENDROOT
BRANCH   8  11
ATOM     11  C   UNL     1       0.970  -1.540   4.638  0.00  0.00    +0.103 C 
ATOM     12  N   UNL     1       1.301  -1.454   5.722  0.00  0.00    -0.191 NA
ENDBRANCH   8  11
BRANCH   7  13
ATOM     13  N   UNL     1       0.324   0.753   3.113  0.00  0.00    -0.312 N 
ATOM     14  H   UNL     1      -0.251   0.984   3.858  0.00  0.00    +0.152 HD
BRANCH  13  15
ATOM     15  C   UNL     1       1.241   1.689   2.621  0.00  0.00    +0.032 A 
ATOM     16  C   UNL     1       2.201   1.301   1.695  0.00  0.00    +0.027 A 
ATOM     17  C   UNL     1       3.105   2.225   1.210  0.00  0.00    +0.048 A 
ATOM     18  C   UNL     1       3.054   3.541   1.646  0.00  0.00    +0.129 A 
ATOM     19  C   UNL     1       2.095   3.929   2.571  0.00  0.00    +0.048 A 
ATOM     20  C   UNL     1       1.187   3.008   3.053  0.00  0.00    +0.027 A 
BRANCH  18  21
ATOM     21  O   UNL     1       3.945   4.450   1.168  0.00  0.00    -0.456 OA
BRANCH  21  22
ATOM     22  C   UNL     1       3.932   5.699   1.704  0.00  0.00    +0.128 A 
ATOM     23  C   UNL     1       4.477   5.922   2.960  0.00  0.00    +0.046 A 
ATOM     24  C   UNL     1       4.462   7.193   3.502  0.00  0.00    +0.004 A 
ATOM     25  C   UNL     1       3.905   8.241   2.794  0.00  0.00    +0.000 A 
ATOM     26  C   UNL     1       3.360   8.021   1.542  0.00  0.00    +0.004 A 
ATOM     27  C   UNL     1       3.378   6.754   0.993  0.00  0.00    +0.046 A 
ENDBRANCH  21  22
ENDBRANCH  18  21
ENDBRANCH  13  15
ENDBRANCH   7  13
BRANCH   3  28
ATOM     28  N   UNL     1      -1.252   0.061  -2.168  0.00  0.00    -0.313 N 
ATOM     29  H   UNL     1      -1.258   1.021  -2.307  0.00  0.00    +0.152 HD
BRANCH  28  30
ATOM     30  C   UNL     1      -1.658  -0.794  -3.195  0.00  0.00    +0.031 A 
ATOM     31  C   UNL     1      -2.356  -1.958  -2.896  0.00  0.00    +0.023 A 
ATOM     32  C   UNL     1      -2.756  -2.802  -3.913  0.00  0.00    +0.002 A 
ATOM     33  C   UNL     1      -2.463  -2.490  -5.228  0.00  0.00    +0.000 A 
ATOM     34  C   UNL     1      -1.769  -1.332  -5.529  0.00  0.00    +0.002 A 
ATOM     35  C   UNL     1      -1.371  -0.481  -4.517  0.00  0.00    +0.023 A 
ENDBRANCH  28  30
ENDBRANCH   3  28
TORSDOF 7
