REMARK  Name = CHEMBL253116
REMARK  8 active torsions:
REMARK  status: ('A' for Active; 'I' for Inactive)
REMARK    1  A    between atoms: CB_1  and  CA_2
REMARK    2  A    between atoms: CA_2  and  C_3
REMARK    3  A    between atoms: CA_2  and  N_5
REMARK    4  A    between atoms: C_3  and  O_4
REMARK    5  A    between atoms: C_6  and  C_8
REMARK    6  A    between atoms: N_13  and  C_14
REMARK    7  A    between atoms: C_17  and  N_20
REMARK    8  A    between atoms: N_20  and  C_21
REMARK                            x       y       z     vdW  Elec       q    Type
REMARK                         _______ _______ _______ _____ _____    ______ ____
ROOT
ATOM      1  C   UNK A   0       0.081  -0.700  -3.279  0.00  0.00    +0.193 C 
ATOM      2  C   UNK A   0       0.499   0.612  -3.857  0.00  0.00    +0.239 C 
ATOM      3  N   UNK A   0       0.209   0.853  -5.136  0.00  0.00    -0.254 N 
ATOM      4  S   UNK A   0      -0.589  -0.480  -5.745  0.00  0.00    -0.006 S 
ATOM      5  C   UNK A   0      -0.629  -1.545  -4.320  0.00  0.00    +0.112 C 
ATOM      6  N   UNK A   0      -1.138  -2.742  -4.201  0.00  0.00    -0.243 NA
ATOM      7  O   UNK A   0       1.085   1.434  -3.182  0.00  0.00    -0.274 OA
ATOM      8  H   UNK A   0       0.424   1.661  -5.627  0.00  0.00    +0.163 HD
ENDROOT
BRANCH   1  10
ATOM      9  N   ALA A   1      -0.338  -0.245  -0.865  0.00  0.00    -0.329 N 
ATOM     10  C   UNK A   0      -0.848  -0.457  -2.118  0.00  0.00    +0.084 C 
ATOM     11  N   UNK A   0      -2.128  -0.448  -2.305  0.00  0.00    -0.390 N 
ATOM     12  H   ALA A   1       0.622  -0.252  -0.724  0.00  0.00    +0.147 HD
ATOM     13  H   UNK A   0      -2.489  -0.598  -3.193  0.00  0.00    +0.157 HD
ATOM     14  H   UNK A   0      -2.726  -0.292  -1.558  0.00  0.00    +0.157 HD
BRANCH   9  16
ATOM     15  CB  ALA A   1      -1.608   1.475   0.323  0.00  0.00    +0.030 C 
ATOM     16  CA  ALA A   1      -1.242  -0.010   0.264  0.00  0.00    +0.094 C 
BRANCH  16  17
ATOM     17  C   ALA A   1      -0.548  -0.416   1.566  0.00  0.00    +0.177 C 
BRANCH  17  18
ATOM     18  O   ALA A   1       0.574   0.439   1.795  0.00  0.00    -0.393 OA
ATOM     19  H   ALA A   1       1.062   0.239   2.605  0.00  0.00    +0.209 HD
ENDBRANCH  17  18
ENDBRANCH  16  17
ENDBRANCH   9  16
ENDBRANCH   1  10
BRANCH   6  20
ATOM     20  C   UNK A   0      -0.968  -3.446  -3.037  0.00  0.00    +0.065 A 
ATOM     21  C   UNK A   0       0.309  -3.600  -2.492  0.00  0.00    +0.029 A 
ATOM     22  C   UNK A   0       0.476  -4.309  -1.321  0.00  0.00    +0.025 A 
ATOM     23  C   UNK A   0      -0.624  -4.869  -0.683  0.00  0.00    +0.031 A 
ATOM     24  C   UNK A   0      -1.896  -4.717  -1.222  0.00  0.00    +0.025 A 
ATOM     25  C   UNK A   0      -2.071  -4.005  -2.390  0.00  0.00    +0.029 A 
BRANCH  23  26
ATOM     26  N   UNK A   0      -0.451  -5.588   0.504  0.00  0.00    -0.314 N 
ATOM     27  H   UNK A   0       0.265  -5.351   1.114  0.00  0.00    +0.152 HD
BRANCH  26  28
ATOM     28  C   UNK A   0      -1.309  -6.646   0.811  0.00  0.00    +0.031 A 
ATOM     29  C   UNK A   0      -1.934  -7.355  -0.208  0.00  0.00    +0.023 A 
ATOM     30  C   UNK A   0      -2.781  -8.400   0.100  0.00  0.00    +0.002 A 
ATOM     31  C   UNK A   0      -3.009  -8.743   1.420  0.00  0.00    +0.000 A 
ATOM     32  C   UNK A   0      -2.389  -8.040   2.437  0.00  0.00    +0.002 A 
ATOM     33  C   UNK A   0      -1.536  -6.997   2.137  0.00  0.00    +0.023 A 
ENDBRANCH  26  28
ENDBRANCH  23  26
ENDBRANCH   6  20
TORSDOF 7
