REMARK  Name = CHEMBL202356
REMARK  12 active torsions:
REMARK  status: ('A' for Active; 'I' for Inactive)
REMARK    1  A    between atoms: C_1  and  C_2
REMARK    2  A    between atoms: C_3  and  N_29
REMARK    3  A    between atoms: C_7  and  N_13
REMARK    4  A    between atoms: C_8  and  C_11
REMARK    5  A    between atoms: N_13  and  C_14
REMARK    6  A    between atoms: C_17  and  O_20
REMARK    7  A    between atoms: O_20  and  C_21
REMARK    8  A    between atoms: C_26  and  O_27
REMARK    9  A    between atoms: O_27  and  C_28
REMARK   10  A    between atoms: N_32  and  C_33
REMARK   11  A    between atoms: C_33  and  C_34
REMARK   12  A    between atoms: C_34  and  N_35
REMARK                            x       y       z     vdW  Elec       q    Type
REMARK                         _______ _______ _______ _____ _____    ______ ____
ROOT
ATOM      1  C   UNL     1      -0.998   1.762   0.350  0.00  0.00    +0.048 C 
ATOM      2  C   UNL     1      -0.946   0.261   0.231  0.00  0.00    -0.001 A 
ATOM      3  C   UNL     1      -1.357  -0.502  -0.867  0.00  0.00    +0.058 A 
ATOM      4  C   UNL     1      -1.141  -1.815  -0.568  0.00  0.00    +0.136 A 
ATOM      5  N   UNL     1      -0.609  -1.903   0.680  0.00  0.00    -0.236 N 
ATOM      6  C   UNL     1      -0.476  -0.627   1.186  0.00  0.00    +0.092 A 
ATOM      7  C   UNL     1       0.064  -0.443   2.477  0.00  0.00    +0.077 A 
ATOM      8  C   UNL     1       0.455  -1.573   3.208  0.00  0.00    +0.095 A 
ATOM      9  C   UNL     1       0.298  -2.857   2.635  0.00  0.00    +0.154 A 
ATOM     10  N   UNL     1      -0.210  -3.005   1.446  0.00  0.00    -0.173 NA
ENDROOT
BRANCH   3  11
ATOM     11  N   UNL     1      -1.897  -0.004  -2.065  0.00  0.00    -0.268 N 
ATOM     12  C   UNL     1      -2.254  -0.854  -3.048  0.00  0.00    +0.304 C 
ATOM     13  O   UNL     1      -2.109  -2.052  -2.899  0.00  0.00    -0.253 OA
ATOM     14  N   UNL     1      -2.772  -0.377  -4.197  0.00  0.00    -0.301 N 
ATOM     15  H   UNL     1      -2.013   0.952  -2.185  0.00  0.00    +0.156 HD
ATOM     16  H   UNL     1      -2.888   0.579  -4.317  0.00  0.00    +0.150 HD
BRANCH  14  17
ATOM     17  C   UNL     1      -3.160  -1.301  -5.266  0.00  0.00    +0.087 C 
BRANCH  17  18
ATOM     18  C   UNL     1      -3.714  -0.507  -6.450  0.00  0.00    -0.060 C 
BRANCH  18  19
ATOM     19  N   UNL     1      -4.103  -1.433  -7.522  0.00  0.00    +0.384 N 
ATOM     20  C   UNL     1      -2.909  -2.116  -8.038  0.00  0.00    -0.050 C 
ATOM     21  C   UNL     1      -3.316  -3.081  -9.154  0.00  0.00    +0.141 C 
ATOM     22  O   UNL     1      -3.991  -2.353 -10.183  0.00  0.00    -0.383 OA
ATOM     23  C   UNL     1      -5.150  -1.651  -9.725  0.00  0.00    +0.141 C 
ATOM     24  C   UNL     1      -4.745  -0.683  -8.610  0.00  0.00    -0.050 C 
ATOM     25  H   UNL     1      -4.750  -2.117  -7.157  0.00  0.00    -0.082 HD
ENDBRANCH  18  19
ENDBRANCH  17  18
ENDBRANCH  14  17
ENDBRANCH   3  11
BRANCH   8  26
ATOM     26  C   UNL     1       1.008  -1.430   4.521  0.00  0.00    +0.103 C 
ATOM     27  N   UNL     1       1.446  -1.316   5.562  0.00  0.00    -0.191 NA
ENDBRANCH   8  26
BRANCH   7  28
ATOM     28  N   UNL     1       0.205   0.824   3.010  0.00  0.00    -0.312 N 
ATOM     29  H   UNL     1      -0.307   1.081   3.792  0.00  0.00    +0.152 HD
BRANCH  28  30
ATOM     30  C   UNL     1       1.087   1.736   2.420  0.00  0.00    +0.032 A 
ATOM     31  C   UNL     1       1.891   1.339   1.359  0.00  0.00    +0.027 A 
ATOM     32  C   UNL     1       2.761   2.240   0.778  0.00  0.00    +0.048 A 
ATOM     33  C   UNL     1       2.833   3.541   1.253  0.00  0.00    +0.129 A 
ATOM     34  C   UNL     1       2.030   3.939   2.312  0.00  0.00    +0.048 A 
ATOM     35  C   UNL     1       1.155   3.041   2.891  0.00  0.00    +0.027 A 
BRANCH  33  36
ATOM     36  O   UNL     1       3.690   4.428   0.680  0.00  0.00    -0.452 OA
BRANCH  36  37
ATOM     37  C   UNL     1       4.754   4.851   1.413  0.00  0.00    +0.170 A 
ATOM     38  C   UNL     1       5.018   4.281   2.648  0.00  0.00    +0.050 A 
ATOM     39  C   UNL     1       6.101   4.712   3.391  0.00  0.00    +0.004 A 
ATOM     40  C   UNL     1       6.923   5.712   2.905  0.00  0.00    +0.004 A 
ATOM     41  C   UNL     1       6.665   6.285   1.674  0.00  0.00    +0.049 A 
ATOM     42  C   UNL     1       5.585   5.854   0.921  0.00  0.00    +0.162 A 
BRANCH  42  43
ATOM     43  O   UNL     1       5.333   6.413  -0.293  0.00  0.00    -0.491 OA
ATOM     44  C   UNL     1       6.228   7.436  -0.734  0.00  0.00    +0.277 C 
ENDBRANCH  42  43
ENDBRANCH  36  37
ENDBRANCH  33  36
ENDBRANCH  28  30
ENDBRANCH   7  28
TORSDOF 10
