REMARK  Name = CHEMBL202286
REMARK  10 active torsions:
REMARK  status: ('A' for Active; 'I' for Inactive)
REMARK    1  A    between atoms: C_1  and  C_2
REMARK    2  A    between atoms: C_3  and  N_27
REMARK    3  A    between atoms: C_7  and  N_13
REMARK    4  A    between atoms: C_8  and  C_11
REMARK    5  A    between atoms: N_13  and  C_14
REMARK    6  A    between atoms: C_17  and  O_20
REMARK    7  A    between atoms: O_20  and  C_21
REMARK    8  A    between atoms: C_28  and  C_30
REMARK    9  A    between atoms: C_34  and  N_36
REMARK   10  A    between atoms: C_37  and  C_39
REMARK                            x       y       z     vdW  Elec       q    Type
REMARK                         _______ _______ _______ _____ _____    ______ ____
ROOT
ATOM      1  C   UNL     1      -1.391   1.260   0.435  0.00  0.00    +0.048 C 
ATOM      2  C   UNL     1      -1.343  -0.215   0.133  0.00  0.00    -0.001 A 
ATOM      3  C   UNL     1      -1.825  -0.846  -1.019  0.00  0.00    +0.057 A 
ATOM      4  C   UNL     1      -1.586  -2.182  -0.895  0.00  0.00    +0.136 A 
ATOM      5  N   UNL     1      -0.970  -2.413   0.294  0.00  0.00    -0.236 N 
ATOM      6  C   UNL     1      -0.807  -1.206   0.941  0.00  0.00    +0.092 A 
ATOM      7  C   UNL     1      -0.182  -1.172   2.206  0.00  0.00    +0.077 A 
ATOM      8  C   UNL     1       0.260  -2.377   2.767  0.00  0.00    +0.095 A 
ATOM      9  C   UNL     1       0.068  -3.585   2.056  0.00  0.00    +0.154 A 
ATOM     10  N   UNL     1      -0.518  -3.595   0.894  0.00  0.00    -0.173 NA
ENDROOT
BRANCH   3  11
ATOM     11  N   UNL     1      -2.447  -0.214  -2.109  0.00  0.00    -0.280 N 
ATOM     12  C   UNL     1      -2.867  -0.944  -3.161  0.00  0.00    +0.248 C 
ATOM     13  O   UNL     1      -2.708  -2.150  -3.167  0.00  0.00    -0.270 OA
ATOM     14  H   UNL     1      -2.573   0.748  -2.105  0.00  0.00    +0.155 HD
BRANCH  12  15
ATOM     15  C   UNL     1      -3.521  -0.279  -4.309  0.00  0.00    +0.039 A 
ATOM     16  C   UNL     1      -3.699   1.105  -4.307  0.00  0.00    +0.013 A 
ATOM     17  C   UNL     1      -4.309   1.724  -5.379  0.00  0.00    +0.003 A 
ATOM     18  C   UNL     1      -4.745   0.976  -6.457  0.00  0.00    +0.023 A 
ATOM     19  C   UNL     1      -4.573  -0.403  -6.468  0.00  0.00    +0.034 A 
ATOM     20  C   UNL     1      -3.956  -1.033  -5.399  0.00  0.00    +0.036 A 
BRANCH  19  21
ATOM     21  N   UNL     1      -5.017  -1.155  -7.562  0.00  0.00    -0.286 N 
ATOM     22  C   UNL     1      -5.502  -2.398  -7.372  0.00  0.00    +0.214 C 
ATOM     23  O   UNL     1      -5.652  -2.825  -6.247  0.00  0.00    -0.276 OA
ATOM     24  C   UNL     1      -5.859  -3.256  -8.558  0.00  0.00    +0.109 C 
ATOM     25  H   UNL     1      -4.976  -0.781  -8.456  0.00  0.00    +0.155 HD
ENDBRANCH  19  21
ENDBRANCH  12  15
ENDBRANCH   3  11
BRANCH   8  26
ATOM     26  C   UNL     1       0.899  -2.386   4.048  0.00  0.00    +0.103 C 
ATOM     27  N   UNL     1       1.406  -2.394   5.065  0.00  0.00    -0.191 NA
ENDBRANCH   8  26
BRANCH   7  28
ATOM     28  N   UNL     1      -0.009   0.023   2.876  0.00  0.00    -0.312 N 
ATOM     29  H   UNL     1      -0.473   0.182   3.712  0.00  0.00    +0.152 HD
BRANCH  28  30
ATOM     30  C   UNL     1       0.837   1.005   2.348  0.00  0.00    +0.032 A 
ATOM     31  C   UNL     1       1.559   0.750   1.189  0.00  0.00    +0.027 A 
ATOM     32  C   UNL     1       2.393   1.719   0.669  0.00  0.00    +0.048 A 
ATOM     33  C   UNL     1       2.510   2.948   1.303  0.00  0.00    +0.129 A 
ATOM     34  C   UNL     1       1.790   3.203   2.461  0.00  0.00    +0.048 A 
ATOM     35  C   UNL     1       0.951   2.237   2.979  0.00  0.00    +0.027 A 
BRANCH  33  36
ATOM     36  O   UNL     1       3.332   3.902   0.790  0.00  0.00    -0.456 OA
BRANCH  36  37
ATOM     37  C   UNL     1       3.343   5.122   1.386  0.00  0.00    +0.128 A 
ATOM     38  C   UNL     1       4.007   5.301   2.592  0.00  0.00    +0.046 A 
ATOM     39  C   UNL     1       4.017   6.543   3.196  0.00  0.00    +0.004 A 
ATOM     40  C   UNL     1       3.366   7.608   2.601  0.00  0.00    +0.000 A 
ATOM     41  C   UNL     1       2.703   7.433   1.400  0.00  0.00    +0.004 A 
ATOM     42  C   UNL     1       2.696   6.194   0.788  0.00  0.00    +0.046 A 
ENDBRANCH  36  37
ENDBRANCH  33  36
ENDBRANCH  28  30
ENDBRANCH   7  28
TORSDOF 8
