REMARK  Name = CHEMBL386230
REMARK  9 active torsions:
REMARK  status: ('A' for Active; 'I' for Inactive)
REMARK    1  A    between atoms: CB_1  and  CA_2
REMARK    2  A    between atoms: CA_2  and  C_3
REMARK    3  A    between atoms: CA_2  and  N_5
REMARK    4  A    between atoms: C_3  and  O_4
REMARK    5  A    between atoms: C_6  and  C_7
REMARK    6  A    between atoms: C_11  and  N_12
REMARK    7  A    between atoms: N_12  and  C_13
REMARK    8  A    between atoms: C_16  and  S_19
REMARK    9  A    between atoms: S_19  and  C_20
REMARK                            x       y       z     vdW  Elec       q    Type
REMARK                         _______ _______ _______ _____ _____    ______ ____
ROOT
ATOM      1  C   UNK A   0      -4.125  -0.396  -1.087  0.00  0.00    +0.106 A 
ATOM      2  C   UNK A   0      -4.441  -0.985   0.137  0.00  0.00    +0.268 A 
ATOM      3  N   UNK A   0      -4.841  -2.269   0.097  0.00  0.00    -0.291 N 
ATOM      4  S   UNK A   0      -4.798  -2.681  -1.522  0.00  0.00    +0.005 S 
ATOM      5  C   UNK A   0      -4.278  -1.236  -2.195  0.00  0.00    +0.102 A 
ATOM      6  O   UNK A   0      -4.358  -0.368   1.187  0.00  0.00    -0.267 OA
ATOM      7  H   UNK A   0      -5.097  -2.832   0.844  0.00  0.00    +0.177 HD
ENDROOT
BRANCH   1   9
ATOM      8  N   ALA A   1      -3.659   1.772  -0.150  0.00  0.00    -0.368 N 
ATOM      9  C   UNK A   0      -3.674   0.999  -1.204  0.00  0.00    +0.105 C 
ATOM     10  N   UNK A   0      -3.267   1.492  -2.427  0.00  0.00    -0.344 N 
ATOM     11  H   UNK A   0      -2.895   2.386  -2.490  0.00  0.00    +0.144 HD
ATOM     12  H   UNK A   0      -3.352   0.945  -3.223  0.00  0.00    +0.144 HD
ATOM     13  H   ALA A   1      -3.945   1.425   0.710  0.00  0.00    +0.161 HD
BRANCH   8  15
ATOM     14  CB  ALA A   1      -4.380   4.040  -0.713  0.00  0.00    +0.032 C 
ATOM     15  CA  ALA A   1      -3.209   3.162  -0.267  0.00  0.00    +0.103 C 
BRANCH  15  16
ATOM     16  C   ALA A   1      -2.696   3.647   1.090  0.00  0.00    +0.180 C 
BRANCH  16  17
ATOM     17  O   ALA A   1      -3.775   3.676   2.026  0.00  0.00    -0.393 OA
ATOM     18  H   ALA A   1      -3.522   3.975   2.910  0.00  0.00    +0.209 HD
ENDBRANCH  16  17
ENDBRANCH  15  16
ENDBRANCH   8  15
ENDBRANCH   1   9
BRANCH   5  19
ATOM     19  N   UNK A   0      -4.052  -0.946  -3.519  0.00  0.00    -0.307 N 
ATOM     20  H   UNK A   0      -3.176  -0.647  -3.808  0.00  0.00    +0.153 HD
BRANCH  19  21
ATOM     21  C   UNK A   0      -5.088  -1.082  -4.452  0.00  0.00    +0.032 A 
ATOM     22  C   UNK A   0      -6.322  -1.580  -4.052  0.00  0.00    +0.024 A 
ATOM     23  C   UNK A   0      -7.343  -1.714  -4.971  0.00  0.00    +0.017 A 
ATOM     24  C   UNK A   0      -7.137  -1.350  -6.296  0.00  0.00    +0.013 A 
ATOM     25  C   UNK A   0      -5.904  -0.851  -6.696  0.00  0.00    +0.017 A 
ATOM     26  C   UNK A   0      -4.884  -0.713  -5.775  0.00  0.00    +0.024 A 
BRANCH  24  27
ATOM     27  S   UNK A   0      -8.441  -1.522  -7.469  0.00  0.00    -0.089 S 
BRANCH  27  28
ATOM     28  C   UNK A   0      -9.820  -2.035  -6.501  0.00  0.00    +0.013 A 
ATOM     29  C   UNK A   0     -10.730  -1.096  -6.032  0.00  0.00    +0.015 A 
ATOM     30  C   UNK A   0     -11.811  -1.502  -5.274  0.00  0.00    +0.001 A 
ATOM     31  C   UNK A   0     -11.988  -2.842  -4.982  0.00  0.00    +0.000 A 
ATOM     32  C   UNK A   0     -11.085  -3.780  -5.448  0.00  0.00    +0.001 A 
ATOM     33  C   UNK A   0     -10.005  -3.382  -6.211  0.00  0.00    +0.015 A 
ENDBRANCH  27  28
ENDBRANCH  24  27
ENDBRANCH  19  21
ENDBRANCH   5  19
TORSDOF 8
