REMARK  Name = CHEMBL199210
REMARK  9 active torsions:
REMARK  status: ('A' for Active; 'I' for Inactive)
REMARK    1  A    between atoms: C_4  and  S_7
REMARK    2  A    between atoms: S_7  and  C_8
REMARK    3  A    between atoms: C_11  and  N_14
REMARK    4  A    between atoms: N_14  and  C_15
REMARK    5  A    between atoms: C_18  and  N_27
REMARK    6  A    between atoms: C_24  and  C_25
REMARK    7  A    between atoms: N_27  and  C_28
REMARK    8  A    between atoms: C_28  and  C_29
REMARK    9  A    between atoms: C_29  and  N_30
REMARK                            x       y       z     vdW  Elec       q    Type
REMARK                         _______ _______ _______ _____ _____    ______ ____
ROOT
ATOM      1  C   UNL     1       3.341  -7.516  -0.444  0.00  0.00    +0.060 A 
ATOM      2  C   UNL     1       3.047  -8.860  -0.772  0.00  0.00    +0.027 A 
ATOM      3  C   UNL     1       1.783  -9.255  -1.228  0.00  0.00    +0.055 A 
ATOM      4  C   UNL     1       1.577 -10.589  -1.529  0.00  0.00    +0.119 A 
ATOM      5  N   UNL     1       2.548 -11.486  -1.393  0.00  0.00    -0.238 NA
ATOM      6  C   UNL     1       3.750 -11.171  -0.971  0.00  0.00    +0.141 A 
ATOM      7  C   UNL     1       4.060  -9.842  -0.639  0.00  0.00    +0.091 A 
ATOM      8  N   UNL     1       5.280  -9.497  -0.207  0.00  0.00    -0.252 NA
ATOM      9  C   UNL     1       5.580  -8.262   0.103  0.00  0.00    +0.132 A 
ATOM     10  C   UNL     1       4.639  -7.223  -0.003  0.00  0.00    +0.091 A 
ENDROOT
BRANCH   1  11
ATOM     11  N   UNL     1       2.385  -6.527  -0.558  0.00  0.00    -0.313 N 
ATOM     12  H   UNL     1       1.848  -6.280   0.211  0.00  0.00    +0.152 HD
BRANCH  11  16
ATOM     13  C   UNL     1       1.807  -4.599  -4.209  0.00  0.00    +0.013 A 
ATOM     14  C   UNL     1       1.130  -4.161  -3.077  0.00  0.00    +0.017 A 
ATOM     15  C   UNL     1       1.321  -4.800  -1.869  0.00  0.00    +0.024 A 
ATOM     16  C   UNL     1       2.191  -5.880  -1.784  0.00  0.00    +0.031 A 
ATOM     17  C   UNL     1       2.869  -6.317  -2.915  0.00  0.00    +0.024 A 
ATOM     18  C   UNL     1       2.673  -5.683  -4.125  0.00  0.00    +0.017 A 
BRANCH  13  19
ATOM     19  S   UNL     1       1.563  -3.784  -5.752  0.00  0.00    -0.089 S 
BRANCH  19  23
ATOM     20  C   UNL     1       3.885  -6.312  -8.707  0.00  0.00    +0.000 A 
ATOM     21  C   UNL     1       2.584  -6.651  -8.382  0.00  0.00    +0.001 A 
ATOM     22  C   UNL     1       1.873  -5.883  -7.481  0.00  0.00    +0.015 A 
ATOM     23  C   UNL     1       2.467  -4.768  -6.901  0.00  0.00    +0.013 A 
ATOM     24  C   UNL     1       3.774  -4.430  -7.230  0.00  0.00    +0.015 A 
ATOM     25  C   UNL     1       4.479  -5.203  -8.131  0.00  0.00    +0.001 A 
ENDBRANCH  19  23
ENDBRANCH  13  19
ENDBRANCH  11  16
ENDBRANCH   1  11
BRANCH  10  26
ATOM     26  C   UNL     1       5.002  -5.881   0.340  0.00  0.00    +0.103 C 
ATOM     27  N   UNL     1       5.290  -4.816   0.612  0.00  0.00    -0.191 NA
ENDBRANCH  10  26
BRANCH   4  28
ATOM     28  N   UNL     1       0.326 -11.001  -1.983  0.00  0.00    -0.328 N 
ATOM     29  H   UNL     1       0.171 -11.934  -2.197  0.00  0.00    +0.147 HD
BRANCH  28  30
ATOM     30  C   UNL     1      -0.755 -10.024  -2.138  0.00  0.00    +0.118 C 
BRANCH  30  31
ATOM     31  C   UNL     1      -2.012 -10.731  -2.647  0.00  0.00    +0.103 C 
BRANCH  31  32
ATOM     32  N   UNL     1      -3.096  -9.752  -2.803  0.00  0.00    -0.297 NA
ATOM     33  C   UNL     1      -3.510  -9.213  -1.499  0.00  0.00    +0.112 C 
ATOM     34  C   UNL     1      -4.597  -8.156  -1.712  0.00  0.00    +0.175 C 
ATOM     35  O   UNL     1      -5.689  -8.739  -2.428  0.00  0.00    -0.377 OA
ATOM     36  C   UNL     1      -5.322  -9.274  -3.702  0.00  0.00    +0.175 C 
ATOM     37  C   UNL     1      -4.242 -10.342  -3.510  0.00  0.00    +0.112 C 
ENDBRANCH  31  32
ENDBRANCH  30  31
ENDBRANCH  28  30
ENDBRANCH   4  28
TORSDOF 9
