REMARK  Name = CHEMBL35988
REMARK  9 active torsions:
REMARK  status: ('A' for Active; 'I' for Inactive)
REMARK    1  A    between atoms: C_1  and  C_2
REMARK    2  A    between atoms: C_2  and  C_3
REMARK    3  A    between atoms: C_2  and  O_22
REMARK    4  A    between atoms: C_7  and  C_9
REMARK    5  A    between atoms: C_9  and  C_20
REMARK    6  A    between atoms: C_10  and  N_11
REMARK    7  A    between atoms: C_10  and  S_12
REMARK    8  A    between atoms: S_12  and  C_13
REMARK    9  A    between atoms: C_18  and  N_19
REMARK                            x       y       z     vdW  Elec       q    Type
REMARK                         _______ _______ _______ _____ _____    ______ ____
ROOT
ATOM      1  C   UNL     1      -4.046  -1.735   2.445  0.00  0.00    +0.086 C 
ATOM      2  C   UNL     1      -4.319  -3.060   2.756  0.00  0.00    +0.082 C 
ENDROOT
BRANCH   1   7
ATOM      3  C   UNL     1      -1.508  -0.517  -0.044  0.00  0.00    -0.019 A 
ATOM      4  C   UNL     1      -2.163  -0.762  -1.238  0.00  0.00    +0.006 A 
ATOM      5  C   UNL     1      -3.428  -1.323  -1.238  0.00  0.00    +0.001 A 
ATOM      6  C   UNL     1      -4.045  -1.641  -0.046  0.00  0.00    +0.009 A 
ATOM      7  C   UNL     1      -3.390  -1.397   1.162  0.00  0.00    -0.005 A 
ATOM      8  C   UNL     1      -2.112  -0.836   1.155  0.00  0.00    +0.015 A 
BRANCH   3  10
ATOM      9  C   UNL     1      -0.249   1.617  -0.126  0.00  0.00    +0.043 C 
ATOM     10  C   UNL     1      -0.131   0.093  -0.054  0.00  0.00    +0.141 C 
BRANCH  10  11
ATOM     11  O   UNL     1       0.594  -0.383  -1.190  0.00  0.00    -0.387 OA
ATOM     12  H   UNL     1       1.491  -0.030  -1.260  0.00  0.00    +0.210 HD
ENDBRANCH  10  11
ENDBRANCH   3  10
ENDBRANCH   1   7
BRANCH   2  13
ATOM     13  N   UNL     1      -3.981  -4.055   1.874  0.00  0.00    -0.352 N 
ATOM     14  H   UNL     1      -3.615  -3.830   1.005  0.00  0.00    +0.143 HD
ATOM     15  H   UNL     1      -4.108  -4.985   2.120  0.00  0.00    +0.143 HD
ENDBRANCH   2  13
BRANCH   1  16
ATOM     16  C   UNL     1      -4.398  -0.696   3.365  0.00  0.00    +0.102 C 
ATOM     17  N   UNL     1      -4.678   0.128   4.095  0.00  0.00    -0.191 NA
ENDBRANCH   1  16
BRANCH   2  18
ATOM     18  S   UNL     1      -5.100  -3.463   4.283  0.00  0.00    -0.072 S 
BRANCH  18  19
ATOM     19  C   UNL     1      -3.867  -4.357   5.169  0.00  0.00    +0.035 A 
ATOM     20  C   UNL     1      -2.586  -4.479   4.649  0.00  0.00    +0.017 A 
ATOM     21  C   UNL     1      -1.621  -5.180   5.346  0.00  0.00    +0.001 A 
ATOM     22  C   UNL     1      -1.926  -5.763   6.562  0.00  0.00    +0.002 A 
ATOM     23  C   UNL     1      -3.200  -5.648   7.088  0.00  0.00    +0.024 A 
ATOM     24  C   UNL     1      -4.173  -4.941   6.399  0.00  0.00    +0.039 A 
BRANCH  24  25
ATOM     25  N   UNL     1      -5.461  -4.817   6.932  0.00  0.00    -0.357 N 
ATOM     26  H   UNL     1      -6.142  -4.326   6.447  0.00  0.00    +0.142 HD
ATOM     27  H   UNL     1      -5.673  -5.224   7.787  0.00  0.00    +0.142 HD
ENDBRANCH  24  25
ENDBRANCH  18  19
ENDBRANCH   2  18
TORSDOF 8
