REMARK  Name = CHEMBL284774
REMARK  7 active torsions:
REMARK  status: ('A' for Active; 'I' for Inactive)
REMARK    1  A    between atoms: C_4  and  C_7
REMARK    2  A    between atoms: C_7  and  C_8
REMARK    3  A    between atoms: C_7  and  C_10
REMARK    4  A    between atoms: C_10  and  N_11
REMARK    5  A    between atoms: C_10  and  S_12
REMARK    6  A    between atoms: S_12  and  C_13
REMARK    7  A    between atoms: C_18  and  N_19
REMARK                            x       y       z     vdW  Elec       q    Type
REMARK                         _______ _______ _______ _____ _____    ______ ____
ROOT
ATOM      1  C   UNL     1       3.951  -1.612   0.937  0.00  0.00    +0.136 C 
ENDROOT
BRANCH   1   2
ATOM      2  N   UNL     1       3.861  -0.545   1.942  0.00  0.00    -0.317 NA
ATOM      3  H   UNL     1       2.950  -0.111   1.928  0.00  0.00    +0.119 HD
ATOM      4  H   UNL     1       4.080  -0.896   2.862  0.00  0.00    +0.119 HD
ENDBRANCH   1   2
BRANCH   1   5
ATOM      5  C   UNL     1       3.710  -1.024  -0.455  0.00  0.00    +0.148 C 
BRANCH   5   9
ATOM      6  C   UNL     1      -0.170   0.756  -0.598  0.00  0.00    +0.000 A 
ATOM      7  C   UNL     1       0.958   1.555  -0.619  0.00  0.00    +0.000 A 
ATOM      8  C   UNL     1       2.214   0.979  -0.572  0.00  0.00    +0.005 A 
ATOM      9  C   UNL     1       2.341  -0.396  -0.504  0.00  0.00    -0.028 A 
ATOM     10  C   UNL     1       1.213  -1.195  -0.483  0.00  0.00    +0.005 A 
ATOM     11  C   UNL     1      -0.043  -0.619  -0.531  0.00  0.00    +0.000 A 
ENDBRANCH   5   9
BRANCH   5  12
ATOM     12  C   UNL     1       3.796  -2.094  -1.462  0.00  0.00    +0.073 C 
ATOM     13  N   UNL     1       3.862  -2.921  -2.239  0.00  0.00    -0.196 NA
ENDBRANCH   5  12
ENDBRANCH   1   5
BRANCH   1  14
ATOM     14  S   UNL     1       2.698  -2.877   1.284  0.00  0.00    -0.103 S 
BRANCH  14  15
ATOM     15  C   UNL     1       3.618  -4.207   1.984  0.00  0.00    +0.030 A 
ATOM     16  C   UNL     1       4.966  -4.047   2.269  0.00  0.00    +0.016 A 
ATOM     17  C   UNL     1       5.685  -5.092   2.819  0.00  0.00    +0.001 A 
ATOM     18  C   UNL     1       5.065  -6.299   3.084  0.00  0.00    +0.002 A 
ATOM     19  C   UNL     1       3.722  -6.468   2.802  0.00  0.00    +0.024 A 
ATOM     20  C   UNL     1       2.991  -5.424   2.257  0.00  0.00    +0.038 A 
BRANCH  20  21
ATOM     21  N   UNL     1       1.630  -5.591   1.977  0.00  0.00    -0.357 N 
ATOM     22  H   UNL     1       1.121  -4.860   1.591  0.00  0.00    +0.142 HD
ATOM     23  H   UNL     1       1.195  -6.437   2.167  0.00  0.00    +0.142 HD
ENDBRANCH  20  21
ENDBRANCH  14  15
ENDBRANCH   1  14
TORSDOF 7
