REMARK  Name = CHEMBL105442
REMARK  6 active torsions:
REMARK  status: ('A' for Active; 'I' for Inactive)
REMARK    1  A    between atoms: C_3  and  N_9
REMARK    2  A    between atoms: N_9  and  C_10
REMARK    3  A    between atoms: C_11  and  C_18
REMARK    4  A    between atoms: N_20  and  O_21
REMARK    5  A    between atoms: O_21  and  C_22
REMARK    6  A    between atoms: C_22  and  C_23
REMARK                            x       y       z     vdW  Elec       q    Type
REMARK                         _______ _______ _______ _____ _____    ______ ____
ROOT
ATOM      1  C   UNL     1       3.518   3.513  -0.091  0.00  0.00    +0.082 A 
ATOM      2  C   UNL     1       4.630   4.249  -0.531  0.00  0.00    +0.063 A 
ATOM      3  C   UNL     1       4.544   5.641  -0.626  0.00  0.00    +0.018 A 
ATOM      4  C   UNL     1       3.373   6.283  -0.290  0.00  0.00    +0.042 A 
ATOM      5  C   UNL     1       2.273   5.554   0.144  0.00  0.00    +0.160 A 
ATOM      6  C   UNL     1       2.342   4.175   0.239  0.00  0.00    +0.180 A 
ATOM      7  F   UNL     1       1.266   3.472   0.657  0.00  0.00    -0.201 F 
ATOM      8  F   UNL     1       1.130   6.194   0.471  0.00  0.00    -0.202 F 
ENDROOT
BRANCH   2   9
ATOM      9  C   UNL     1       5.881   3.559  -0.889  0.00  0.00    +0.269 C 
ATOM     10  O   UNL     1       5.922   2.343  -0.904  0.00  0.00    -0.268 OA
ATOM     11  N   UNL     1       6.981   4.274  -1.199  0.00  0.00    -0.191 N 
ATOM     12  H   UNL     1       6.948   5.243  -1.187  0.00  0.00    +0.183 HD
BRANCH  11  13
ATOM     13  O   UNL     1       8.183   3.610  -1.543  0.00  0.00    -0.279 OA
BRANCH  13  14
ATOM     14  C   UNL     1       9.267   4.491  -1.848  0.00  0.00    +0.193 C 
BRANCH  14  15
ATOM     15  C   UNL     1      10.507   3.669  -2.203  0.00  0.00    +0.017 C 
ATOM     16  C   UNL     1      11.725   3.795  -1.285  0.00  0.00    +0.006 C 
ATOM     17  C   UNL     1      11.747   4.431  -2.676  0.00  0.00    +0.006 C 
ENDBRANCH  14  15
ENDBRANCH  13  14
ENDBRANCH  11  13
ENDBRANCH   2   9
BRANCH   1  18
ATOM     18  N   UNL     1       3.592   2.127   0.007  0.00  0.00    -0.310 N 
ATOM     19  H   UNL     1       3.258   1.571  -0.714  0.00  0.00    +0.152 HD
BRANCH  18  22
ATOM     20  C   UNL     1       5.292   1.740   3.244  0.00  0.00    +0.016 A 
ATOM     21  C   UNL     1       4.744   2.326   2.119  0.00  0.00    +0.026 A 
ATOM     22  C   UNL     1       4.148   1.536   1.146  0.00  0.00    +0.050 A 
ATOM     23  C   UNL     1       4.104   0.156   1.306  0.00  0.00    +0.063 A 
ATOM     24  C   UNL     1       4.653  -0.425   2.433  0.00  0.00    +0.036 A 
ATOM     25  C   UNL     1       5.247   0.366   3.401  0.00  0.00    +0.015 A 
ATOM     26  I   UNL     1       6.079  -0.518   5.107  0.00  0.00    -0.044 I 
ATOM     27 CL   UNL     1       3.359  -0.837   0.092  0.00  0.00    -0.082 Cl
ENDBRANCH  18  22
ENDBRANCH   1  18
TORSDOF 6
