REMARK  Name = CHEMBL316510
REMARK  4 active torsions:
REMARK  status: ('A' for Active; 'I' for Inactive)
REMARK    1  A    between atoms: C_9  and  C_10
REMARK    2  A    between atoms: C_9  and  C_22
REMARK    3  A    between atoms: C_10  and  C_11
REMARK    4  A    between atoms: C_10  and  C_20
REMARK                            x       y       z     vdW  Elec       q    Type
REMARK                         _______ _______ _______ _____ _____    ______ ____
ROOT
ATOM      1  C   UNL     1      -0.017   1.380   0.010  0.00  0.00    +0.002 A 
ATOM      2  C   UNL     1       1.149   2.109   0.002  0.00  0.00    +0.024 A 
ATOM      3  C   UNL     1       2.400   1.470  -0.013  0.00  0.00    +0.046 A 
ATOM      4  C   UNL     1       2.386   0.067  -0.021  0.00  0.00    +0.035 A 
ATOM      5  C   UNL     1       1.220  -0.661  -0.013  0.00  0.00    +0.017 A 
ATOM      6  C   UNL     1       0.002  -0.004   0.002  0.00  0.00    +0.001 A 
ATOM      7  S   UNL     1       4.109  -0.365  -0.039  0.00  0.00    -0.071 S 
ATOM      8  C   UNL     1       4.780   1.289  -0.036  0.00  0.00    +0.085 C 
ATOM      9  C   UNL     1       6.101   1.686  -0.047  0.00  0.00    +0.080 C 
ATOM     10  N   UNL     1       3.650   2.065  -0.022  0.00  0.00    -0.307 N 
ATOM     11  H   UNL     1       3.725   3.032  -0.017  0.00  0.00    +0.153 HD
ENDROOT
BRANCH   9  12
ATOM     12  C   UNL     1       7.143   0.704  -0.062  0.00  0.00    +0.099 C 
ATOM     13  N   UNL     1       7.970  -0.075  -0.074  0.00  0.00    -0.191 NA
ENDBRANCH   9  12
BRANCH   9  14
ATOM     14  C   UNL     1       6.447   3.152  -0.043  0.00  0.00    +0.189 C 
BRANCH  14  15
ATOM     15  C   UNL     1       7.265   3.472   1.182  0.00  0.00    +0.102 A 
ATOM     16  S   UNL     1       8.760   2.833   1.619  0.00  0.00    -0.070 S 
ATOM     17  C   UNL     1       8.978   3.727   3.135  0.00  0.00    +0.039 A 
ATOM     18  C   UNL     1       7.798   4.503   3.191  0.00  0.00    +0.079 A 
ATOM     19  C   UNL     1       7.650   5.353   4.306  0.00  0.00    +0.029 A 
ATOM     20  C   UNL     1       8.612   5.405   5.269  0.00  0.00    +0.002 A 
ATOM     21  C   UNL     1       9.761   4.632   5.191  0.00  0.00    +0.001 A 
ATOM     22  C   UNL     1       9.942   3.787   4.112  0.00  0.00    +0.017 A 
ATOM     23  N   UNL     1       6.979   4.308   2.137  0.00  0.00    -0.242 NA
ENDBRANCH  14  15
BRANCH  14  24
ATOM     24  C   UNL     1       7.223   3.477  -1.250  0.00  0.00    +0.078 C 
ATOM     25  N   UNL     1       7.823   3.727  -2.182  0.00  0.00    -0.195 NA
ENDBRANCH  14  24
ENDBRANCH   9  14
TORSDOF 4
