REMARK  Name = CHEMBL320688
REMARK  13 active torsions:
REMARK  status: ('A' for Active; 'I' for Inactive)
REMARK    1  A    between atoms: C_1  and  N_2
REMARK    2  A    between atoms: C_6  and  C_7
REMARK    3  A    between atoms: C_7  and  C_8
REMARK    4  A    between atoms: C_11  and  N_15
REMARK    5  A    between atoms: N_15  and  C_16
REMARK    6  A    between atoms: C_19  and  O_38
REMARK    7  A    between atoms: C_20  and  O_28
REMARK    8  A    between atoms: C_25  and  C_26
REMARK    9  A    between atoms: O_28  and  C_29
REMARK   10  A    between atoms: C_29  and  C_30
REMARK   11  A    between atoms: C_30  and  C_31
REMARK   12  A    between atoms: C_31  and  N_32
REMARK   13  A    between atoms: O_38  and  C_39
REMARK                            x       y       z     vdW  Elec       q    Type
REMARK                         _______ _______ _______ _____ _____    ______ ____
ROOT
ATOM      1  C   UNL     1      -6.009  -0.976   4.772  0.00  0.00    +0.060 A 
ATOM      2  C   UNL     1      -7.421  -0.973   4.830  0.00  0.00    +0.026 A 
ATOM      3  C   UNL     1      -8.157   0.170   4.481  0.00  0.00    +0.061 A 
ATOM      4  C   UNL     1      -9.520   0.145   4.545  0.00  0.00    +0.162 A 
ATOM      5  C   UNL     1     -10.195  -1.012   4.957  0.00  0.00    +0.164 A 
ATOM      6  C   UNL     1      -9.497  -2.146   5.305  0.00  0.00    +0.077 A 
ATOM      7  C   UNL     1      -8.095  -2.147   5.247  0.00  0.00    +0.077 A 
ATOM      8  N   UNL     1      -7.398  -3.243   5.581  0.00  0.00    -0.253 NA
ATOM      9  C   UNL     1      -6.090  -3.274   5.536  0.00  0.00    +0.132 A 
ATOM     10  C   UNL     1      -5.341  -2.158   5.130  0.00  0.00    +0.091 A 
ENDROOT
BRANCH   1  11
ATOM     11  N   UNL     1      -5.309   0.144   4.371  0.00  0.00    -0.313 N 
ATOM     12  H   UNL     1      -5.030   0.802   5.026  0.00  0.00    +0.152 HD
BRANCH  11  16
ATOM     13  C   UNL     1      -4.393   0.699   0.346  0.00  0.00    -0.022 A 
ATOM     14  C   UNL     1      -3.893   1.573   1.294  0.00  0.00    +0.007 A 
ATOM     15  C   UNL     1      -4.195   1.391   2.629  0.00  0.00    +0.023 A 
ATOM     16  C   UNL     1      -5.002   0.330   3.020  0.00  0.00    +0.033 A 
ATOM     17  C   UNL     1      -5.503  -0.546   2.066  0.00  0.00    +0.043 A 
ATOM     18  C   UNL     1      -5.201  -0.356   0.730  0.00  0.00    +0.046 A 
ATOM     19 CL   UNL     1      -5.832  -1.447  -0.465  0.00  0.00    -0.083 Cl
BRANCH  13  20
ATOM     20  C   UNL     1      -4.061   0.900  -1.111  0.00  0.00    +0.111 C 
BRANCH  20  26
ATOM     21  C   UNL     1      -4.223   3.984  -1.358  0.00  0.00    +0.150 C 
ATOM     22  N   UNL     1      -5.214   3.035  -1.870  0.00  0.00    -0.337 N 
ATOM     23  C   UNL     1      -6.365   3.347  -2.542  0.00  0.00    +0.106 A 
ATOM     24  C   UNL     1      -6.978   2.182  -2.827  0.00  0.00    +0.130 A 
ATOM     25  N   UNL     1      -6.221   1.186  -2.342  0.00  0.00    -0.240 NA
ATOM     26  C   UNL     1      -5.161   1.689  -1.772  0.00  0.00    +0.114 A 
ENDBRANCH  20  26
ENDBRANCH  13  20
ENDBRANCH  11  16
ENDBRANCH   1  11
BRANCH  10  27
ATOM     27  C   UNL     1      -3.912  -2.223   5.086  0.00  0.00    +0.103 C 
ATOM     28  N   UNL     1      -2.777  -2.275   5.051  0.00  0.00    -0.191 NA
ENDBRANCH  10  27
BRANCH   4  29
ATOM     29  O   UNL     1     -10.230   1.255   4.207  0.00  0.00    -0.491 OA
ATOM     30  C   UNL     1      -9.484   2.402   3.796  0.00  0.00    +0.277 C 
ENDBRANCH   4  29
BRANCH   5  31
ATOM     31  O   UNL     1     -11.552  -1.015   5.014  0.00  0.00    -0.488 OA
BRANCH  31  32
ATOM     32  C   UNL     1     -12.181  -2.224   5.442  0.00  0.00    +0.230 C 
BRANCH  32  33
ATOM     33  C   UNL     1     -13.700  -2.037   5.442  0.00  0.00    +0.056 C 
BRANCH  33  34
ATOM     34  C   UNL     1     -14.374  -3.332   5.900  0.00  0.00    +0.088 C 
BRANCH  34  35
ATOM     35  N   UNL     1     -15.832  -3.151   5.900  0.00  0.00    -0.298 NA
ATOM     36  C   UNL     1     -16.241  -2.173   6.918  0.00  0.00    +0.112 C 
ATOM     37  C   UNL     1     -17.757  -1.972   6.844  0.00  0.00    +0.175 C 
ATOM     38  O   UNL     1     -18.409  -3.233   7.012  0.00  0.00    -0.377 OA
ATOM     39  C   UNL     1     -18.034  -4.210   6.037  0.00  0.00    +0.175 C 
ATOM     40  C   UNL     1     -16.521  -4.434   6.103  0.00  0.00    +0.112 C 
ENDBRANCH  34  35
ENDBRANCH  33  34
ENDBRANCH  32  33
ENDBRANCH  31  32
ENDBRANCH   5  31
TORSDOF 11
