REMARK  Name = CHEMBL422940
REMARK  8 active torsions:
REMARK  status: ('A' for Active; 'I' for Inactive)
REMARK    1  A    between atoms: C_4  and  C_7
REMARK    2  A    between atoms: C_7  and  C_9
REMARK    3  A    between atoms: C_13  and  C_15
REMARK    4  A    between atoms: C_15  and  C_26
REMARK    5  A    between atoms: C_16  and  N_17
REMARK    6  A    between atoms: C_16  and  S_18
REMARK    7  A    between atoms: S_18  and  C_19
REMARK    8  A    between atoms: C_24  and  N_25
REMARK                            x       y       z     vdW  Elec       q    Type
REMARK                         _______ _______ _______ _____ _____    ______ ____
ROOT
ATOM      1  C   UNL     1       6.446  -4.720   0.279  0.00  0.00    +0.086 C 
ATOM      2  C   UNL     1       6.825  -5.644  -0.685  0.00  0.00    +0.082 C 
ENDROOT
BRANCH   1   7
ATOM      3  C   UNL     1       3.784  -2.081  -0.094  0.00  0.00    +0.023 A 
ATOM      4  C   UNL     1       2.626  -2.851   0.043  0.00  0.00    +0.012 A 
ATOM      5  C   UNL     1       2.719  -4.212   0.254  0.00  0.00    +0.001 A 
ATOM      6  C   UNL     1       3.956  -4.822   0.330  0.00  0.00    +0.009 A 
ATOM      7  C   UNL     1       5.122  -4.064   0.196  0.00  0.00    -0.005 A 
ATOM      8  C   UNL     1       5.035  -2.692  -0.023  0.00  0.00    +0.021 A 
BRANCH   3   9
ATOM      9  C   UNL     1       3.683  -0.624  -0.319  0.00  0.00    +0.193 C 
ATOM     10  O   UNL     1       4.587  -0.030  -0.874  0.00  0.00    -0.287 OA
BRANCH   9  14
ATOM     11  C   UNL     1       0.231   1.488   0.970  0.00  0.00    +0.000 A 
ATOM     12  C   UNL     1       1.051   2.037  -0.001  0.00  0.00    +0.001 A 
ATOM     13  C   UNL     1       2.174   1.356  -0.424  0.00  0.00    +0.012 A 
ATOM     14  C   UNL     1       2.482   0.111   0.130  0.00  0.00    +0.022 A 
ATOM     15  C   UNL     1       1.650  -0.436   1.109  0.00  0.00    +0.012 A 
ATOM     16  C   UNL     1       0.530   0.256   1.523  0.00  0.00    +0.001 A 
ENDBRANCH   9  14
ENDBRANCH   3   9
ENDBRANCH   1   7
BRANCH   2  17
ATOM     17  N   UNL     1       5.971  -5.950  -1.715  0.00  0.00    -0.352 N 
ATOM     18  H   UNL     1       5.142  -5.458  -1.820  0.00  0.00    +0.143 HD
ATOM     19  H   UNL     1       6.197  -6.657  -2.339  0.00  0.00    +0.143 HD
ENDBRANCH   2  17
BRANCH   1  20
ATOM     20  C   UNL     1       7.337  -4.402   1.354  0.00  0.00    +0.102 C 
ATOM     21  N   UNL     1       8.043  -4.149   2.207  0.00  0.00    -0.191 NA
ENDBRANCH   1  20
BRANCH   2  22
ATOM     22  S   UNL     1       8.401  -6.425  -0.586  0.00  0.00    -0.072 S 
BRANCH  22  23
ATOM     23  C   UNL     1       9.268  -5.815  -1.994  0.00  0.00    +0.035 A 
ATOM     24  C   UNL     1       8.679  -4.865  -2.815  0.00  0.00    +0.017 A 
ATOM     25  C   UNL     1       9.361  -4.388  -3.919  0.00  0.00    +0.001 A 
ATOM     26  C   UNL     1      10.630  -4.856  -4.208  0.00  0.00    +0.002 A 
ATOM     27  C   UNL     1      11.225  -5.803  -3.395  0.00  0.00    +0.024 A 
ATOM     28  C   UNL     1      10.551  -6.282  -2.282  0.00  0.00    +0.039 A 
BRANCH  28  29
ATOM     29  N   UNL     1      11.153  -7.236  -1.454  0.00  0.00    -0.357 N 
ATOM     30  H   UNL     1      10.678  -7.573  -0.678  0.00  0.00    +0.142 HD
ATOM     31  H   UNL     1      12.045  -7.559  -1.655  0.00  0.00    +0.142 HD
ENDBRANCH  28  29
ENDBRANCH  22  23
ENDBRANCH   2  22
TORSDOF 8
