REMARK  Name = CHEMBL1169631
REMARK  7 active torsions:
REMARK  status: ('A' for Active; 'I' for Inactive)
REMARK    1  A    between atoms: C_1  and  C_2
REMARK    2  A    between atoms: C_2  and  C_4
REMARK    3  A    between atoms: C_6  and  C_19
REMARK    4  A    between atoms: C_7  and  N_10
REMARK    5  A    between atoms: N_8  and  C_9
REMARK    6  A    between atoms: N_10  and  C_11
REMARK    7  A    between atoms: C_24  and  O_27
REMARK                            x       y       z     vdW  Elec       q    Type
REMARK                         _______ _______ _______ _____ _____    ______ ____
ROOT
ATOM      1  C   UNL     1      -1.333  -0.658  -0.717  0.00  0.00    +0.086 A 
ATOM      2  C   UNL     1      -2.455  -0.127  -0.114  0.00  0.00    +0.045 A 
ATOM      3  C   UNL     1      -3.335  -1.197   0.140  0.00  0.00    +0.077 A 
ATOM      4  C   UNL     1      -2.714  -2.362  -0.322  0.00  0.00    +0.116 A 
ATOM      5  N   UNL     1      -1.514  -2.028  -0.841  0.00  0.00    -0.329 N 
ATOM      6  C   UNL     1      -0.556  -2.962  -1.436  0.00  0.00    +0.150 C 
ENDROOT
BRANCH   3   7
ATOM      7  C   UNL     1      -4.657  -1.106   0.773  0.00  0.00    +0.250 C 
ATOM      8  O   UNL     1      -5.139  -2.082   1.318  0.00  0.00    -0.270 OA
ATOM      9  N   UNL     1      -5.337   0.057   0.750  0.00  0.00    -0.295 N 
ATOM     10  C   UNL     1      -4.925   1.279   0.033  0.00  0.00    +0.111 C 
ATOM     11  C   UNL     1      -6.242   2.058  -0.209  0.00  0.00    +0.052 C 
ATOM     12  C   UNL     1      -7.021   1.769   1.101  0.00  0.00    +0.133 C 
ATOM     13  C   UNL     1      -6.614   0.317   1.429  0.00  0.00    +0.139 C 
BRANCH  12  14
ATOM     14  O   UNL     1      -8.430   1.863   0.882  0.00  0.00    -0.390 OA
ATOM     15  H   UNL     1      -8.963   1.691   1.670  0.00  0.00    +0.210 HD
ENDBRANCH  12  14
ENDBRANCH   3   7
BRANCH   1  17
ATOM     16  C   UNL     1      -0.144   1.559  -0.938  0.00  0.00    +0.093 C 
ATOM     17  C   UNL     1      -0.201   0.067  -1.139  0.00  0.00    +0.176 C 
ATOM     18  O   UNL     1       0.729  -0.511  -1.666  0.00  0.00    -0.291 OA
ENDBRANCH   1  17
BRANCH   4  19
ATOM     19  N   UNL     1      -3.239  -3.629  -0.263  0.00  0.00    -0.298 N 
ATOM     20  H   UNL     1      -4.075  -3.829  -0.713  0.00  0.00    +0.154 HD
BRANCH  19  21
ATOM     21  C   UNL     1      -2.568  -4.632   0.445  0.00  0.00    +0.068 A 
ATOM     22  C   UNL     1      -1.389  -4.340   1.117  0.00  0.00    +0.027 A 
ATOM     23  C   UNL     1      -0.729  -5.332   1.815  0.00  0.00    +0.016 A 
ATOM     24  C   UNL     1      -1.241  -6.617   1.847  0.00  0.00    +0.016 A 
ATOM     25  C   UNL     1      -2.415  -6.913   1.179  0.00  0.00    +0.054 A 
ATOM     26  C   UNL     1      -3.084  -5.923   0.482  0.00  0.00    +0.145 A 
ATOM     27  F   UNL     1      -4.234  -6.211  -0.165  0.00  0.00    -0.204 F 
ATOM     28  I   UNL     1      -0.234  -8.117   2.907  0.00  0.00    -0.044 I 
ENDBRANCH  19  21
ENDBRANCH   4  19
TORSDOF 5
