REMARK  Name = CHEMBL201716
REMARK  10 active torsions:
REMARK  status: ('A' for Active; 'I' for Inactive)
REMARK    1  A    between atoms: C_1  and  C_2
REMARK    2  A    between atoms: C_3  and  O_27
REMARK    3  A    between atoms: C_7  and  N_13
REMARK    4  A    between atoms: C_8  and  C_11
REMARK    5  A    between atoms: N_13  and  C_14
REMARK    6  A    between atoms: C_17  and  O_20
REMARK    7  A    between atoms: O_20  and  C_21
REMARK    8  A    between atoms: O_27  and  C_28
REMARK    9  A    between atoms: C_28  and  C_29
REMARK   10  A    between atoms: C_29  and  N_30
REMARK                            x       y       z     vdW  Elec       q    Type
REMARK                         _______ _______ _______ _____ _____    ______ ____
ROOT
ATOM      1  C   UNL     1      -0.580   2.158   0.060  0.00  0.00    +0.050 C 
ATOM      2  C   UNL     1      -0.755   0.667  -0.072  0.00  0.00    +0.020 A 
ATOM      3  C   UNL     1      -1.331  -0.010  -1.150  0.00  0.00    +0.144 A 
ATOM      4  C   UNL     1      -1.296  -1.343  -0.874  0.00  0.00    +0.159 A 
ATOM      5  N   UNL     1      -0.717  -1.528   0.343  0.00  0.00    -0.234 N 
ATOM      6  C   UNL     1      -0.370  -0.293   0.850  0.00  0.00    +0.094 A 
ATOM      7  C   UNL     1       0.259  -0.211   2.111  0.00  0.00    +0.077 A 
ATOM      8  C   UNL     1       0.516  -1.397   2.810  0.00  0.00    +0.095 A 
ATOM      9  C   UNL     1       0.142  -2.635   2.238  0.00  0.00    +0.154 A 
ATOM     10  N   UNL     1      -0.445  -2.688   1.078  0.00  0.00    -0.173 NA
ENDROOT
BRANCH   8  11
ATOM     11  C   UNL     1       1.153  -1.356   4.092  0.00  0.00    +0.103 C 
ATOM     12  N   UNL     1       1.658  -1.324   5.109  0.00  0.00    -0.191 NA
ENDBRANCH   8  11
BRANCH   7  13
ATOM     13  N   UNL     1       0.613   1.014   2.643  0.00  0.00    -0.312 N 
ATOM     14  H   UNL     1       0.200   1.323   3.464  0.00  0.00    +0.152 HD
BRANCH  13  15
ATOM     15  C   UNL     1       1.569   1.807   1.999  0.00  0.00    +0.032 A 
ATOM     16  C   UNL     1       2.276   1.300   0.915  0.00  0.00    +0.027 A 
ATOM     17  C   UNL     1       3.218   2.084   0.280  0.00  0.00    +0.048 A 
ATOM     18  C   UNL     1       3.460   3.376   0.723  0.00  0.00    +0.129 A 
ATOM     19  C   UNL     1       2.755   3.882   1.806  0.00  0.00    +0.048 A 
ATOM     20  C   UNL     1       1.807   3.103   2.438  0.00  0.00    +0.027 A 
BRANCH  18  21
ATOM     21  O   UNL     1       4.388   4.147   0.097  0.00  0.00    -0.456 OA
BRANCH  21  22
ATOM     22  C   UNL     1       4.537   5.432   0.513  0.00  0.00    +0.128 A 
ATOM     23  C   UNL     1       5.253   5.709   1.670  0.00  0.00    +0.046 A 
ATOM     24  C   UNL     1       5.403   7.016   2.091  0.00  0.00    +0.004 A 
ATOM     25  C   UNL     1       4.841   8.047   1.361  0.00  0.00    +0.000 A 
ATOM     26  C   UNL     1       4.128   7.774   0.209  0.00  0.00    +0.004 A 
ATOM     27  C   UNL     1       3.979   6.469  -0.220  0.00  0.00    +0.046 A 
ENDBRANCH  21  22
ENDBRANCH  18  21
ENDBRANCH  13  15
ENDBRANCH   7  13
BRANCH   3  28
ATOM     28  O   UNL     1      -1.839   0.562  -2.277  0.00  0.00    -0.489 OA
BRANCH  28  29
ATOM     29  C   UNL     1      -2.385  -0.319  -3.261  0.00  0.00    +0.244 C 
BRANCH  29  30
ATOM     30  C   UNL     1      -2.902   0.500  -4.446  0.00  0.00    +0.125 C 
BRANCH  30  31
ATOM     31  N   UNL     1      -1.780   1.203  -5.083  0.00  0.00    -0.295 NA
ATOM     32  C   UNL     1      -2.258   2.332  -5.894  0.00  0.00    +0.112 C 
ATOM     33  C   UNL     1      -1.056   3.071  -6.489  0.00  0.00    +0.175 C 
ATOM     34  O   UNL     1      -0.268   2.152  -7.251  0.00  0.00    -0.377 OA
ATOM     35  C   UNL     1       0.214   1.040  -6.492  0.00  0.00    +0.175 C 
ATOM     36  C   UNL     1      -0.975   0.281  -5.897  0.00  0.00    +0.112 C 
ENDBRANCH  30  31
ENDBRANCH  29  30
ENDBRANCH  28  29
ENDBRANCH   3  28
TORSDOF 9
