REMARK  Name = CHEMBL34436
REMARK  10 active torsions:
REMARK  status: ('A' for Active; 'I' for Inactive)
REMARK    1  A    between atoms: C_4  and  C_7
REMARK    2  A    between atoms: C_7  and  C_8
REMARK    3  A    between atoms: C_8  and  C_9
REMARK    4  A    between atoms: C_8  and  O_28
REMARK    5  A    between atoms: C_13  and  C_15
REMARK    6  A    between atoms: C_15  and  C_26
REMARK    7  A    between atoms: C_16  and  N_17
REMARK    8  A    between atoms: C_16  and  S_18
REMARK    9  A    between atoms: S_18  and  C_19
REMARK   10  A    between atoms: C_24  and  N_25
REMARK                            x       y       z     vdW  Elec       q    Type
REMARK                         _______ _______ _______ _____ _____    ______ ____
ROOT
ATOM      1  C   UNL     1       9.104  -0.476   1.842  0.00  0.00    +0.086 C 
ATOM      2  C   UNL     1      10.075  -0.359   0.857  0.00  0.00    +0.082 C 
ENDROOT
BRANCH   1   7
ATOM      3  C   UNL     1       5.481  -1.306   1.300  0.00  0.00    -0.018 A 
ATOM      4  C   UNL     1       5.548  -2.669   1.069  0.00  0.00    +0.006 A 
ATOM      5  C   UNL     1       6.768  -3.320   1.090  0.00  0.00    +0.001 A 
ATOM      6  C   UNL     1       7.926  -2.614   1.340  0.00  0.00    +0.009 A 
ATOM      7  C   UNL     1       7.865  -1.240   1.573  0.00  0.00    -0.005 A 
ATOM      8  C   UNL     1       6.632  -0.588   1.546  0.00  0.00    +0.015 A 
BRANCH   3   9
ATOM      9  C   UNL     1       4.147  -0.604   1.276  0.00  0.00    +0.149 C 
BRANCH   9  10
ATOM     10  O   UNL     1       3.166  -1.424   1.914  0.00  0.00    -0.387 OA
ATOM     11  H   UNL     1       3.042  -2.287   1.496  0.00  0.00    +0.210 HD
ENDBRANCH   9  10
BRANCH   9  12
ATOM     12  C   UNL     1       3.732  -0.348  -0.174  0.00  0.00    +0.071 C 
BRANCH  12  16
ATOM     13  C   UNL     1       0.128   1.946  -0.241  0.00  0.00    +0.000 A 
ATOM     14  C   UNL     1       1.354   2.584  -0.235  0.00  0.00    +0.000 A 
ATOM     15  C   UNL     1       2.520   1.842  -0.213  0.00  0.00    +0.004 A 
ATOM     16  C   UNL     1       2.461   0.461  -0.197  0.00  0.00    -0.045 A 
ATOM     17  C   UNL     1       1.235  -0.177  -0.203  0.00  0.00    +0.004 A 
ATOM     18  C   UNL     1       0.069   0.565  -0.226  0.00  0.00    +0.000 A 
ENDBRANCH  12  16
ENDBRANCH   9  12
ENDBRANCH   3   9
ENDBRANCH   1   7
BRANCH   2  19
ATOM     19  N   UNL     1      11.224   0.350   1.107  0.00  0.00    -0.352 N 
ATOM     20  H   UNL     1      11.326   0.829   1.944  0.00  0.00    +0.143 HD
ATOM     21  H   UNL     1      11.934   0.371   0.446  0.00  0.00    +0.143 HD
ENDBRANCH   2  19
BRANCH   1  22
ATOM     22  C   UNL     1       9.302   0.142   3.119  0.00  0.00    +0.102 C 
ATOM     23  N   UNL     1       9.458   0.632   4.131  0.00  0.00    -0.191 NA
ENDBRANCH   1  22
BRANCH   2  24
ATOM     24  S   UNL     1       9.833  -1.119  -0.714  0.00  0.00    -0.072 S 
BRANCH  24  25
ATOM     25  C   UNL     1      11.077  -2.364  -0.781  0.00  0.00    +0.035 A 
ATOM     26  C   UNL     1      11.874  -2.612   0.327  0.00  0.00    +0.017 A 
ATOM     27  C   UNL     1      12.849  -3.590   0.272  0.00  0.00    +0.001 A 
ATOM     28  C   UNL     1      13.035  -4.323  -0.886  0.00  0.00    +0.002 A 
ATOM     29  C   UNL     1      12.245  -4.083  -1.996  0.00  0.00    +0.024 A 
ATOM     30  C   UNL     1      11.260  -3.108  -1.948  0.00  0.00    +0.039 A 
BRANCH  30  31
ATOM     31  N   UNL     1      10.457  -2.866  -3.067  0.00  0.00    -0.357 N 
ATOM     32  H   UNL     1       9.771  -2.182  -3.033  0.00  0.00    +0.142 HD
ATOM     33  H   UNL     1      10.585  -3.384  -3.877  0.00  0.00    +0.142 HD
ENDBRANCH  30  31
ENDBRANCH  24  25
ENDBRANCH   2  24
TORSDOF 10
