REMARK  Name = CHEMBL105642
REMARK  13 active torsions:
REMARK  status: ('A' for Active; 'I' for Inactive)
REMARK    1  A    between atoms: C_1  and  N_2
REMARK    2  A    between atoms: C_6  and  S_7
REMARK    3  A    between atoms: S_7  and  C_8
REMARK    4  A    between atoms: C_11  and  N_15
REMARK    5  A    between atoms: N_15  and  C_16
REMARK    6  A    between atoms: C_19  and  O_39
REMARK    7  A    between atoms: C_20  and  O_28
REMARK    8  A    between atoms: C_25  and  C_26
REMARK    9  A    between atoms: O_28  and  C_29
REMARK   10  A    between atoms: C_29  and  C_30
REMARK   11  A    between atoms: C_30  and  C_31
REMARK   12  A    between atoms: C_31  and  N_32
REMARK   13  A    between atoms: O_39  and  C_40
REMARK                            x       y       z     vdW  Elec       q    Type
REMARK                         _______ _______ _______ _____ _____    ______ ____
ROOT
ATOM      1  C   UNL     1      -0.655  -5.293   7.535  0.00  0.00    +0.060 A 
ATOM      2  C   UNL     1      -0.200  -6.287   8.432  0.00  0.00    +0.026 A 
ATOM      3  C   UNL     1       0.524  -7.398   7.973  0.00  0.00    +0.061 A 
ATOM      4  C   UNL     1       0.952  -8.343   8.860  0.00  0.00    +0.162 A 
ATOM      5  C   UNL     1       0.674  -8.216  10.229  0.00  0.00    +0.164 A 
ATOM      6  C   UNL     1      -0.035  -7.136  10.704  0.00  0.00    +0.077 A 
ATOM      7  C   UNL     1      -0.485  -6.151   9.812  0.00  0.00    +0.077 A 
ATOM      8  N   UNL     1      -1.176  -5.091  10.257  0.00  0.00    -0.253 NA
ATOM      9  C   UNL     1      -1.609  -4.156   9.450  0.00  0.00    +0.132 A 
ATOM     10  C   UNL     1      -1.367  -4.208   8.068  0.00  0.00    +0.091 A 
ENDROOT
BRANCH   1  11
ATOM     11  N   UNL     1      -0.401  -5.384   6.182  0.00  0.00    -0.313 N 
ATOM     12  H   UNL     1      -0.953  -5.951   5.622  0.00  0.00    +0.152 HD
BRANCH  11  16
ATOM     13  C   UNL     1       2.739  -3.217   4.498  0.00  0.00    +0.034 A 
ATOM     14  C   UNL     1       1.702  -3.676   3.696  0.00  0.00    +0.018 A 
ATOM     15  C   UNL     1       0.663  -4.394   4.253  0.00  0.00    +0.024 A 
ATOM     16  C   UNL     1       0.653  -4.657   5.617  0.00  0.00    +0.033 A 
ATOM     17  C   UNL     1       1.689  -4.198   6.421  0.00  0.00    +0.044 A 
ATOM     18  C   UNL     1       2.733  -3.486   5.862  0.00  0.00    +0.057 A 
ATOM     19 CL   UNL     1       4.031  -2.918   6.865  0.00  0.00    -0.082 Cl
BRANCH  13  20
ATOM     20  S   UNL     1       4.065  -2.301   3.787  0.00  0.00    -0.050 S 
BRANCH  20  26
ATOM     21  C   UNL     1       5.865   0.401   3.372  0.00  0.00    +0.151 C 
ATOM     22  N   UNL     1       4.586   0.420   4.086  0.00  0.00    -0.328 N 
ATOM     23  C   UNL     1       3.981   1.518   4.653  0.00  0.00    +0.107 A 
ATOM     24  C   UNL     1       2.830   1.093   5.202  0.00  0.00    +0.131 A 
ATOM     25  N   UNL     1       2.722  -0.229   4.985  0.00  0.00    -0.230 NA
ATOM     26  C   UNL     1       3.768  -0.645   4.310  0.00  0.00    +0.173 A 
ENDBRANCH  20  26
ENDBRANCH  13  20
ENDBRANCH  11  16
ENDBRANCH   1  11
BRANCH  10  27
ATOM     27  C   UNL     1      -1.848  -3.166   7.210  0.00  0.00    +0.103 C 
ATOM     28  N   UNL     1      -2.229  -2.340   6.530  0.00  0.00    -0.191 NA
ENDBRANCH  10  27
BRANCH   4  29
ATOM     29  O   UNL     1       1.653  -9.419   8.413  0.00  0.00    -0.491 OA
ATOM     30  C   UNL     1       1.903  -9.491   7.008  0.00  0.00    +0.277 C 
ENDBRANCH   4  29
BRANCH   5  31
ATOM     31  O   UNL     1       1.109  -9.168  11.094  0.00  0.00    -0.488 OA
BRANCH  31  32
ATOM     32  C   UNL     1       0.794  -8.982  12.476  0.00  0.00    +0.227 C 
BRANCH  32  33
ATOM     33  C   UNL     1       1.362 -10.146  13.290  0.00  0.00    +0.022 C 
BRANCH  33  34
ATOM     34  C   UNL     1       1.025  -9.946  14.769  0.00  0.00    -0.075 C 
BRANCH  34  35
ATOM     35  N   UNL     1       1.454 -11.126  15.532  0.00  0.00    +0.381 N 
ATOM     36  C   UNL     1       0.994 -10.995  16.916  0.00  0.00    -0.066 C 
ATOM     37  C   UNL     1       1.095 -12.349  17.629  0.00  0.00    +0.085 C 
ATOM     38  S   UNL     1       2.845 -12.848  17.659  0.00  0.00    +0.019 S 
ATOM     39  O   UNL     1       3.579 -11.952  18.482  0.00  0.00    -0.257 OA
ATOM     40  C   UNL     1       3.351 -12.632  15.924  0.00  0.00    +0.085 C 
ATOM     41  C   UNL     1       2.912 -11.236  15.467  0.00  0.00    -0.066 C 
ATOM     42  H   UNL     1       1.041 -11.951  15.124  0.00  0.00    -0.082 HD
ENDBRANCH  34  35
ENDBRANCH  33  34
ENDBRANCH  32  33
ENDBRANCH  31  32
ENDBRANCH   5  31
TORSDOF 11
