REMARK  Name = CHEMBL573577
REMARK  9 active torsions:
REMARK  status: ('A' for Active; 'I' for Inactive)
REMARK    1  A    between atoms: C_1  and  C_2
REMARK    2  A    between atoms: C_3  and  C_22
REMARK    3  A    between atoms: C_6  and  C_21
REMARK    4  A    between atoms: C_7  and  C_8
REMARK    5  A    between atoms: N_10  and  C_11
REMARK    6  A    between atoms: C_11  and  C_12
REMARK    7  A    between atoms: C_12  and  C_13
REMARK    8  A    between atoms: C_12  and  O_20
REMARK    9  A    between atoms: C_13  and  N_14
REMARK                            x       y       z     vdW  Elec       q    Type
REMARK                         _______ _______ _______ _____ _____    ______ ____
ROOT
ATOM      1  C   UNL     1      -0.394   0.953   0.040  0.00  0.00    +0.047 C 
ATOM      2  C   UNL     1       0.337  -0.355  -0.121  0.00  0.00    -0.013 A 
ATOM      3  C   UNL     1       0.676  -0.968  -1.311  0.00  0.00    +0.044 A 
ATOM      4  N   UNL     1       1.334  -2.143  -1.014  0.00  0.00    -0.358 N 
ATOM      5  H   UNL     1       1.683  -2.771  -1.665  0.00  0.00    +0.166 HD
ATOM      6  C   UNL     1       1.415  -2.279   0.321  0.00  0.00    +0.026 A 
ATOM      7  C   UNL     1       0.812  -1.186   0.916  0.00  0.00    +0.060 A 
ATOM      8  C   UNL     1       2.061  -3.430   1.048  0.00  0.00    +0.064 C 
ENDROOT
BRANCH   3   9
ATOM      9  C   UNL     1       0.397  -0.477  -2.606  0.00  0.00    +0.039 C 
ATOM     10  C   UNL     1       0.023  -1.350  -3.608  0.00  0.00    +0.048 C 
ATOM     11  C   UNL     1      -0.156  -1.045  -5.046  0.00  0.00    +0.011 A 
ATOM     12  C   UNL     1      -0.019   0.117  -5.798  0.00  0.00    +0.048 A 
ATOM     13  C   UNL     1      -0.263   0.084  -7.158  0.00  0.00    +0.124 A 
ATOM     14  C   UNL     1      -0.641  -1.103  -7.768  0.00  0.00    +0.040 A 
ATOM     15  C   UNL     1      -0.779  -2.260  -7.028  0.00  0.00    +0.027 A 
ATOM     16  C   UNL     1      -0.538  -2.246  -5.659  0.00  0.00    +0.042 A 
ATOM     17  N   UNL     1      -0.603  -3.249  -4.698  0.00  0.00    -0.281 N 
ATOM     18  C   UNL     1      -0.278  -2.782  -3.481  0.00  0.00    +0.249 C 
ATOM     19  O   UNL     1      -0.242  -3.432  -2.451  0.00  0.00    -0.270 OA
ATOM     20  F   UNL     1      -0.132   1.210  -7.894  0.00  0.00    -0.205 F 
ATOM     21  H   UNL     1      -0.847  -4.169  -4.884  0.00  0.00    +0.155 HD
ENDBRANCH   3   9
BRANCH   7  22
ATOM     22  C   UNL     1       0.687  -0.937   2.364  0.00  0.00    +0.246 C 
ATOM     23  O   UNL     1      -0.283  -1.348   2.970  0.00  0.00    -0.270 OA
ATOM     24  N   UNL     1       1.649  -0.253   3.015  0.00  0.00    -0.309 N 
ATOM     25  H   UNL     1       2.423   0.075   2.531  0.00  0.00    +0.149 HD
BRANCH  24  26
ATOM     26  C   UNL     1       1.524  -0.005   4.454  0.00  0.00    +0.137 C 
BRANCH  26  27
ATOM     27  C   UNL     1       2.740   0.785   4.942  0.00  0.00    +0.145 C 
BRANCH  27  28
ATOM     28  O   UNL     1       3.929   0.034   4.689  0.00  0.00    -0.389 OA
ATOM     29  H   UNL     1       3.953  -0.826   5.130  0.00  0.00    +0.210 HD
ENDBRANCH  27  28
BRANCH  27  30
ATOM     30  C   UNL     1       2.610   1.044   6.444  0.00  0.00    +0.117 C 
BRANCH  30  31
ATOM     31  N   UNL     1       3.742   1.861   6.900  0.00  0.00    -0.296 NA
ATOM     32  C   UNL     1       3.917   1.755   8.356  0.00  0.00    +0.112 C 
ATOM     33  C   UNL     1       5.140   2.572   8.779  0.00  0.00    +0.175 C 
ATOM     34  O   UNL     1       4.973   3.927   8.351  0.00  0.00    -0.377 OA
ATOM     35  C   UNL     1       4.801   4.068   6.939  0.00  0.00    +0.175 C 
ATOM     36  C   UNL     1       3.574   3.265   6.497  0.00  0.00    +0.112 C 
ENDBRANCH  30  31
ENDBRANCH  27  30
ENDBRANCH  26  27
ENDBRANCH  24  26
ENDBRANCH   7  22
TORSDOF 7
