REMARK  Name = CHEMBL316510
REMARK  3 active torsions:
REMARK  status: ('A' for Active; 'I' for Inactive)
REMARK    1  A    between atoms: C_9  and  C_10
REMARK    2  A    between atoms: C_9  and  C_22
REMARK    3  A    between atoms: C_10  and  C_20
REMARK                            x       y       z     vdW  Elec       q    Type
REMARK                         _______ _______ _______ _____ _____    ______ ____
ROOT
ATOM      1  C   UNL     1       7.452   0.666  -6.164  0.00  0.00    +0.002 A 
ATOM      2  C   UNL     1       7.389   1.507  -5.078  0.00  0.00    +0.024 A 
ATOM      3  C   UNL     1       6.908   1.052  -3.839  0.00  0.00    +0.046 A 
ATOM      4  C   UNL     1       6.502  -0.290  -3.780  0.00  0.00    +0.035 A 
ATOM      5  C   UNL     1       6.564  -1.130  -4.866  0.00  0.00    +0.017 A 
ATOM      6  C   UNL     1       7.044  -0.653  -6.074  0.00  0.00    +0.001 A 
ATOM      7  S   UNL     1       5.969  -0.489  -2.097  0.00  0.00    -0.071 S 
ATOM      8  C   UNL     1       6.293   1.174  -1.535  0.00  0.00    +0.089 C 
ATOM      9  C   UNL     1       6.096   1.720  -0.274  0.00  0.00    +0.099 C 
ATOM     10  N   UNL     1       6.787   1.776  -2.666  0.00  0.00    -0.307 N 
ATOM     11  H   UNL     1       7.051   2.709  -2.642  0.00  0.00    +0.153 HD
ENDROOT
BRANCH   9  12
ATOM     12  C   UNL     1       6.544   3.106   0.013  0.00  0.00    +0.099 C 
ATOM     13  C   UNL     1       7.896   3.420  -0.025  0.00  0.00    +0.089 C 
ATOM     14  S   UNL     1       8.680   5.013   0.161  0.00  0.00    -0.071 S 
ATOM     15  C   UNL     1      10.365   4.483  -0.023  0.00  0.00    +0.035 A 
ATOM     16  C   UNL     1      10.253   3.098  -0.220  0.00  0.00    +0.046 A 
ATOM     17  C   UNL     1      11.455   2.392  -0.400  0.00  0.00    +0.024 A 
ATOM     18  C   UNL     1      12.666   3.042  -0.380  0.00  0.00    +0.002 A 
ATOM     19  C   UNL     1      12.743   4.410  -0.183  0.00  0.00    +0.001 A 
ATOM     20  C   UNL     1      11.576   5.132  -0.004  0.00  0.00    +0.017 A 
ATOM     21  N   UNL     1       8.969   2.584  -0.210  0.00  0.00    -0.307 N 
ATOM     22  H   UNL     1       8.826   1.633  -0.335  0.00  0.00    +0.153 HD
BRANCH  12  23
ATOM     23  C   UNL     1       5.582   4.119   0.330  0.00  0.00    +0.103 C 
ATOM     24  N   UNL     1       4.819   4.922   0.581  0.00  0.00    -0.191 NA
ENDBRANCH  12  23
ENDBRANCH   9  12
BRANCH   9  25
ATOM     25  C   UNL     1       5.460   0.946   0.750  0.00  0.00    +0.103 C 
ATOM     26  N   UNL     1       4.956   0.332   1.562  0.00  0.00    -0.191 NA
ENDBRANCH   9  25
TORSDOF 3
