REMARK  Name = CHEMBL323515
REMARK  13 active torsions:
REMARK  status: ('A' for Active; 'I' for Inactive)
REMARK    1  A    between atoms: C_1  and  N_2
REMARK    2  A    between atoms: C_6  and  S_7
REMARK    3  A    between atoms: S_7  and  C_8
REMARK    4  A    between atoms: C_11  and  N_15
REMARK    5  A    between atoms: N_15  and  C_16
REMARK    6  A    between atoms: C_19  and  O_37
REMARK    7  A    between atoms: C_20  and  O_28
REMARK    8  A    between atoms: C_25  and  C_26
REMARK    9  A    between atoms: O_28  and  C_29
REMARK   10  A    between atoms: C_29  and  C_30
REMARK   11  A    between atoms: C_30  and  C_31
REMARK   12  A    between atoms: C_31  and  N_32
REMARK   13  A    between atoms: O_37  and  C_38
REMARK                            x       y       z     vdW  Elec       q    Type
REMARK                         _______ _______ _______ _____ _____    ______ ____
ROOT
ATOM      1  C   UNL     1       0.098  -4.955   7.626  0.00  0.00    +0.060 A 
ATOM      2  C   UNL     1       0.359  -6.036   8.499  0.00  0.00    +0.026 A 
ATOM      3  C   UNL     1       0.793  -7.276   8.006  0.00  0.00    +0.061 A 
ATOM      4  C   UNL     1       1.038  -8.303   8.871  0.00  0.00    +0.162 A 
ATOM      5  C   UNL     1       0.860  -8.131  10.251  0.00  0.00    +0.164 A 
ATOM      6  C   UNL     1       0.435  -6.925  10.761  0.00  0.00    +0.077 A 
ATOM      7  C   UNL     1       0.177  -5.854   9.891  0.00  0.00    +0.077 A 
ATOM      8  N   UNL     1      -0.237  -4.671  10.370  0.00  0.00    -0.253 NA
ATOM      9  C   UNL     1      -0.486  -3.654   9.585  0.00  0.00    +0.132 A 
ATOM     10  C   UNL     1      -0.327  -3.743   8.192  0.00  0.00    +0.091 A 
ENDROOT
BRANCH   1  11
ATOM     11  N   UNL     1       0.261  -5.085   6.261  0.00  0.00    -0.313 N 
ATOM     12  H   UNL     1      -0.493  -5.334   5.704  0.00  0.00    +0.152 HD
BRANCH  11  16
ATOM     13  C   UNL     1       3.996  -4.411   4.534  0.00  0.00    +0.034 A 
ATOM     14  C   UNL     1       2.886  -4.629   3.727  0.00  0.00    +0.018 A 
ATOM     15  C   UNL     1       1.650  -4.852   4.299  0.00  0.00    +0.024 A 
ATOM     16  C   UNL     1       1.515  -4.859   5.682  0.00  0.00    +0.033 A 
ATOM     17  C   UNL     1       2.624  -4.642   6.489  0.00  0.00    +0.044 A 
ATOM     18  C   UNL     1       3.862  -4.425   5.917  0.00  0.00    +0.057 A 
ATOM     19 CL   UNL     1       5.250  -4.160   6.926  0.00  0.00    -0.082 Cl
BRANCH  13  20
ATOM     20  S   UNL     1       5.574  -4.126   3.803  0.00  0.00    -0.050 S 
BRANCH  20  26
ATOM     21  C   UNL     1       8.185  -2.280   3.104  0.00  0.00    +0.151 C 
ATOM     22  N   UNL     1       6.962  -1.713   3.678  0.00  0.00    -0.328 N 
ATOM     23  C   UNL     1       6.739  -0.390   3.986  0.00  0.00    +0.107 A 
ATOM     24  C   UNL     1       5.494  -0.309   4.488  0.00  0.00    +0.131 A 
ATOM     25  N   UNL     1       4.959  -1.541   4.492  0.00  0.00    -0.230 NA
ATOM     26  C   UNL     1       5.828  -2.394   4.002  0.00  0.00    +0.173 A 
ENDBRANCH  20  26
ENDBRANCH  13  20
ENDBRANCH  11  16
ENDBRANCH   1  11
BRANCH  10  27
ATOM     27  C   UNL     1      -0.600  -2.611   7.359  0.00  0.00    +0.103 C 
ATOM     28  N   UNL     1      -0.817  -1.713   6.698  0.00  0.00    -0.191 NA
ENDBRANCH  10  27
BRANCH   4  29
ATOM     29  O   UNL     1       1.458  -9.503   8.390  0.00  0.00    -0.491 OA
ATOM     30  C   UNL     1       1.619  -9.614   6.975  0.00  0.00    +0.277 C 
ENDBRANCH   4  29
BRANCH   5  31
ATOM     31  O   UNL     1       1.109  -9.166  11.095  0.00  0.00    -0.488 OA
BRANCH  31  32
ATOM     32  C   UNL     1       0.910  -8.929  12.490  0.00  0.00    +0.227 C 
BRANCH  32  33
ATOM     33  C   UNL     1       1.238 -10.200  13.275  0.00  0.00    +0.022 C 
BRANCH  33  34
ATOM     34  C   UNL     1       1.025  -9.946  14.769  0.00  0.00    -0.076 C 
BRANCH  34  35
ATOM     35  N   UNL     1       1.340 -11.167  15.523  0.00  0.00    +0.380 N 
ATOM     36  C   UNL     1       2.799 -11.444  15.463  0.00  0.00    -0.079 C 
ATOM     37  C   UNL     1       3.039 -12.349  16.697  0.00  0.00    -0.020 C 
ATOM     38  C   UNL     1       2.091 -11.745  17.759  0.00  0.00    -0.020 C 
ATOM     39  C   UNL     1       1.025 -10.977  16.956  0.00  0.00    -0.079 C 
ATOM     40  H   UNL     1       0.821 -11.949  15.153  0.00  0.00    -0.082 HD
ENDBRANCH  34  35
ENDBRANCH  33  34
ENDBRANCH  32  33
ENDBRANCH  31  32
ENDBRANCH   5  31
TORSDOF 11
