REMARK  Name = CHEMBL288081
REMARK  12 active torsions:
REMARK  status: ('A' for Active; 'I' for Inactive)
REMARK    1  A    between atoms: C_1  and  O_2
REMARK    2  A    between atoms: O_2  and  C_3
REMARK    3  A    between atoms: C_8  and  O_9
REMARK    4  A    between atoms: O_9  and  C_10
REMARK    5  A    between atoms: C_10  and  C_11
REMARK    6  A    between atoms: C_11  and  C_12
REMARK    7  A    between atoms: C_12  and  N_13
REMARK    8  A    between atoms: C_21  and  C_36
REMARK    9  A    between atoms: C_22  and  N_23
REMARK   10  A    between atoms: N_23  and  C_24
REMARK   11  A    between atoms: C_27  and  C_30
REMARK   12  A    between atoms: C_30  and  C_31
REMARK                            x       y       z     vdW  Elec       q    Type
REMARK                         _______ _______ _______ _____ _____    ______ ____
ROOT
ATOM      1  C   UNL     1      -0.867  -0.596  -5.647  0.00  0.00    +0.162 A 
ATOM      2  C   UNL     1       0.160   0.163  -5.165  0.00  0.00    +0.061 A 
ATOM      3  C   UNL     1       1.315  -0.460  -4.670  0.00  0.00    +0.026 A 
ATOM      4  C   UNL     1       1.413  -1.873  -4.673  0.00  0.00    +0.077 A 
ATOM      5  C   UNL     1       0.344  -2.631  -5.175  0.00  0.00    +0.077 A 
ATOM      6  C   UNL     1      -0.781  -1.995  -5.649  0.00  0.00    +0.164 A 
ATOM      7  N   UNL     1       2.514  -2.475  -4.200  0.00  0.00    -0.253 NA
ATOM      8  C   UNL     1       3.526  -1.795  -3.725  0.00  0.00    +0.132 A 
ATOM      9  C   UNL     1       3.515  -0.391  -3.683  0.00  0.00    +0.091 A 
ATOM     10  C   UNL     1       2.393   0.301  -4.163  0.00  0.00    +0.060 A 
ENDROOT
BRANCH   1  12
ATOM     11  C   UNL     1      -2.012   1.439  -6.098  0.00  0.00    +0.277 C 
ATOM     12  O   UNL     1      -1.986   0.011  -6.127  0.00  0.00    -0.491 OA
ENDBRANCH   1  12
BRANCH  10  13
ATOM     13  N   UNL     1       2.344   1.681  -4.140  0.00  0.00    -0.313 N 
ATOM     14  H   UNL     1       2.036   2.142  -3.344  0.00  0.00    +0.152 HD
BRANCH  13  15
ATOM     15  C   UNL     1       2.736   2.413  -5.264  0.00  0.00    +0.031 A 
ATOM     16  C   UNL     1       3.048   1.757  -6.448  0.00  0.00    +0.023 A 
ATOM     17  C   UNL     1       3.436   2.483  -7.557  0.00  0.00    +0.006 A 
ATOM     18  C   UNL     1       3.514   3.862  -7.489  0.00  0.00    -0.042 A 
ATOM     19  C   UNL     1       3.205   4.519  -6.312  0.00  0.00    +0.006 A 
ATOM     20  C   UNL     1       2.810   3.799  -5.201  0.00  0.00    +0.023 A 
BRANCH  18  21
ATOM     21  C   UNL     1       3.939   4.652  -8.700  0.00  0.00    +0.077 C 
BRANCH  21  22
ATOM     22  C   UNL     1       2.724   5.012  -9.516  0.00  0.00    -0.006 A 
ATOM     23  C   UNL     1       1.937   6.113  -9.435  0.00  0.00    +0.011 A 
ATOM     24  C   UNL     1       0.863   6.234 -10.296  0.00  0.00    +0.008 A 
ATOM     25  C   UNL     1       0.628   5.249 -11.196  0.00  0.00    +0.045 A 
ATOM     26  S   UNL     1       1.952   4.104 -10.845  0.00  0.00    -0.101 S 
ENDBRANCH  21  22
ENDBRANCH  18  21
ENDBRANCH  13  15
ENDBRANCH  10  13
BRANCH   9  27
ATOM     27  C   UNL     1       4.638   0.326  -3.157  0.00  0.00    +0.103 C 
ATOM     28  N   UNL     1       5.528   0.894  -2.740  0.00  0.00    -0.191 NA
ENDBRANCH   9  27
BRANCH   6  29
ATOM     29  O   UNL     1      -1.817  -2.731  -6.129  0.00  0.00    -0.488 OA
BRANCH  29  30
ATOM     30  C   UNL     1      -1.670  -4.153  -6.103  0.00  0.00    +0.227 C 
BRANCH  30  31
ATOM     31  C   UNL     1      -2.927  -4.806  -6.679  0.00  0.00    +0.022 C 
BRANCH  31  32
ATOM     32  C   UNL     1      -2.769  -6.328  -6.652  0.00  0.00    -0.075 C 
BRANCH  32  33
ATOM     33  N   UNL     1      -3.977  -6.956  -7.205  0.00  0.00    +0.383 N 
ATOM     34  C   UNL     1      -5.122  -6.669  -6.330  0.00  0.00    -0.050 C 
ATOM     35  C   UNL     1      -6.379  -7.324  -6.908  0.00  0.00    +0.141 C 
ATOM     36  O   UNL     1      -6.159  -8.731  -7.042  0.00  0.00    -0.383 OA
ATOM     37  C   UNL     1      -5.038  -9.061  -7.866  0.00  0.00    +0.141 C 
ATOM     38  C   UNL     1      -3.779  -8.409  -7.290  0.00  0.00    -0.050 C 
ATOM     39  H   UNL     1      -4.157  -6.586  -8.126  0.00  0.00    -0.082 HD
ENDBRANCH  32  33
ENDBRANCH  31  32
ENDBRANCH  30  31
ENDBRANCH  29  30
ENDBRANCH   6  29
TORSDOF 11
