REMARK  Name = CHEMBL253116
REMARK  8 active torsions:
REMARK  status: ('A' for Active; 'I' for Inactive)
REMARK    1  A    between atoms: CB_1  and  CA_2
REMARK    2  A    between atoms: CA_2  and  C_3
REMARK    3  A    between atoms: CA_2  and  N_5
REMARK    4  A    between atoms: C_3  and  O_4
REMARK    5  A    between atoms: C_6  and  C_8
REMARK    6  A    between atoms: N_13  and  C_14
REMARK    7  A    between atoms: C_17  and  N_20
REMARK    8  A    between atoms: N_20  and  C_21
REMARK                            x       y       z     vdW  Elec       q    Type
REMARK                         _______ _______ _______ _____ _____    ______ ____
ROOT
ATOM      1  C   UNK A   0       1.033  -1.233   3.793  0.00  0.00    +0.193 C 
ATOM      2  C   UNK A   0       1.046  -2.725   3.837  0.00  0.00    +0.239 C 
ATOM      3  N   UNK A   0       0.452  -3.325   4.869  0.00  0.00    -0.254 N 
ATOM      4  S   UNK A   0      -0.168  -2.142   5.870  0.00  0.00    -0.006 S 
ATOM      5  C   UNK A   0       0.308  -0.664   4.999  0.00  0.00    +0.112 C 
ATOM      6  N   UNK A   0       0.090   0.584   5.316  0.00  0.00    -0.243 NA
ATOM      7  O   UNK A   0       1.579  -3.372   2.959  0.00  0.00    -0.274 OA
ATOM      8  H   UNK A   0       0.391  -4.283   5.013  0.00  0.00    +0.163 HD
ENDROOT
BRANCH   1  10
ATOM      9  N   ALA A   1       1.044  -0.650   1.370  0.00  0.00    -0.329 N 
ATOM     10  C   UNK A   0       0.337  -0.779   2.536  0.00  0.00    +0.084 C 
ATOM     11  N   UNK A   0      -0.928  -0.510   2.558  0.00  0.00    -0.390 N 
ATOM     12  H   ALA A   1       1.993  -0.852   1.353  0.00  0.00    +0.147 HD
ATOM     13  H   UNK A   0      -1.428  -0.601   3.384  0.00  0.00    +0.157 HD
ATOM     14  H   UNK A   0      -1.376  -0.218   1.749  0.00  0.00    +0.157 HD
BRANCH   9  16
ATOM     15  CB  ALA A   1       0.320   1.320   0.115  0.00  0.00    +0.030 C 
ATOM     16  CA  ALA A   1       0.368  -0.209   0.148  0.00  0.00    +0.094 C 
BRANCH  16  17
ATOM     17  C   ALA A   1       1.135  -0.721  -1.073  0.00  0.00    +0.177 C 
BRANCH  17  18
ATOM     18  O   ALA A   1       2.426  -0.111  -1.115  0.00  0.00    -0.393 OA
ATOM     19  H   ALA A   1       2.969  -0.390  -1.865  0.00  0.00    +0.209 HD
ENDBRANCH  17  18
ENDBRANCH  16  17
ENDBRANCH   9  16
ENDBRANCH   1  10
BRANCH   6  20
ATOM     20  C   UNK A   0      -0.594   0.890   6.464  0.00  0.00    +0.065 A 
ATOM     21  C   UNK A   0      -1.758   0.192   6.792  0.00  0.00    +0.029 A 
ATOM     22  C   UNK A   0      -2.444   0.502   7.947  0.00  0.00    +0.025 A 
ATOM     23  C   UNK A   0      -1.978   1.510   8.784  0.00  0.00    +0.031 A 
ATOM     24  C   UNK A   0      -0.820   2.207   8.460  0.00  0.00    +0.025 A 
ATOM     25  C   UNK A   0      -0.126   1.897   7.309  0.00  0.00    +0.029 A 
BRANCH  23  26
ATOM     26  N   UNK A   0      -2.677   1.823   9.954  0.00  0.00    -0.314 N 
ATOM     27  H   UNK A   0      -2.601   2.708  10.342  0.00  0.00    +0.152 HD
BRANCH  26  28
ATOM     28  C   UNK A   0      -3.483   0.860  10.565  0.00  0.00    +0.031 A 
ATOM     29  C   UNK A   0      -3.135  -0.484  10.499  0.00  0.00    +0.023 A 
ATOM     30  C   UNK A   0      -3.935  -1.433  11.104  0.00  0.00    +0.002 A 
ATOM     31  C   UNK A   0      -5.082  -1.048  11.774  0.00  0.00    +0.000 A 
ATOM     32  C   UNK A   0      -5.432   0.288  11.841  0.00  0.00    +0.002 A 
ATOM     33  C   UNK A   0      -4.633   1.243  11.244  0.00  0.00    +0.023 A 
ENDBRANCH  26  28
ENDBRANCH  23  26
ENDBRANCH   6  20
TORSDOF 7
