REMARK  Name = CHEMBL29714
REMARK  12 active torsions:
REMARK  status: ('A' for Active; 'I' for Inactive)
REMARK    1  A    between atoms: C_1  and  O_2
REMARK    2  A    between atoms: O_2  and  C_3
REMARK    3  A    between atoms: C_8  and  O_9
REMARK    4  A    between atoms: O_9  and  C_10
REMARK    5  A    between atoms: C_10  and  C_11
REMARK    6  A    between atoms: C_11  and  C_12
REMARK    7  A    between atoms: C_12  and  N_13
REMARK    8  A    between atoms: C_21  and  C_37
REMARK    9  A    between atoms: C_22  and  N_23
REMARK   10  A    between atoms: N_23  and  C_24
REMARK   11  A    between atoms: C_27  and  S_30
REMARK   12  A    between atoms: S_30  and  C_31
REMARK                            x       y       z     vdW  Elec       q    Type
REMARK                         _______ _______ _______ _____ _____    ______ ____
ROOT
ATOM      1  C   UNL     1       4.769  -1.020  -1.915  0.00  0.00    +0.162 A 
ATOM      2  C   UNL     1       4.007  -0.128  -2.612  0.00  0.00    +0.061 A 
ATOM      3  C   UNL     1       3.071  -0.592  -3.548  0.00  0.00    +0.026 A 
ATOM      4  C   UNL     1       2.920  -1.983  -3.766  0.00  0.00    +0.077 A 
ATOM      5  C   UNL     1       3.715  -2.880  -3.037  0.00  0.00    +0.077 A 
ATOM      6  C   UNL     1       4.631  -2.398  -2.128  0.00  0.00    +0.164 A 
ATOM      7  N   UNL     1       2.028  -2.434  -4.660  0.00  0.00    -0.253 NA
ATOM      8  C   UNL     1       1.273  -1.623  -5.356  0.00  0.00    +0.132 A 
ATOM      9  C   UNL     1       1.355  -0.229  -5.205  0.00  0.00    +0.091 A 
ATOM     10  C   UNL     1       2.268   0.309  -4.285  0.00  0.00    +0.060 A 
ENDROOT
BRANCH   1  12
ATOM     11  C   UNL     1       5.769   0.849  -0.836  0.00  0.00    +0.277 C 
ATOM     12  O   UNL     1       5.676  -0.567  -1.008  0.00  0.00    -0.491 OA
ENDBRANCH   1  12
BRANCH  10  13
ATOM     13  N   UNL     1       2.380   1.673  -4.106  0.00  0.00    -0.313 N 
ATOM     14  H   UNL     1       1.833   2.121  -3.442  0.00  0.00    +0.152 HD
BRANCH  13  15
ATOM     15  C   UNL     1       3.281   2.409  -4.883  0.00  0.00    +0.031 A 
ATOM     16  C   UNL     1       4.142   1.755  -5.755  0.00  0.00    +0.024 A 
ATOM     17  C   UNL     1       5.032   2.481  -6.521  0.00  0.00    +0.017 A 
ATOM     18  C   UNL     1       5.064   3.867  -6.421  0.00  0.00    +0.013 A 
ATOM     19  C   UNL     1       4.202   4.521  -5.550  0.00  0.00    +0.017 A 
ATOM     20  C   UNL     1       3.310   3.795  -4.787  0.00  0.00    +0.024 A 
BRANCH  18  21
ATOM     21  S   UNL     1       6.200   4.794  -7.399  0.00  0.00    -0.089 S 
BRANCH  21  22
ATOM     22  C   UNL     1       6.948   3.587  -8.442  0.00  0.00    +0.013 A 
ATOM     23  C   UNL     1       6.339   3.228  -9.639  0.00  0.00    +0.015 A 
ATOM     24  C   UNL     1       6.928   2.283 -10.455  0.00  0.00    +0.001 A 
ATOM     25  C   UNL     1       8.123   1.693 -10.082  0.00  0.00    +0.000 A 
ATOM     26  C   UNL     1       8.731   2.048  -8.892  0.00  0.00    +0.001 A 
ATOM     27  C   UNL     1       8.151   2.997  -8.074  0.00  0.00    +0.015 A 
ENDBRANCH  21  22
ENDBRANCH  18  21
ENDBRANCH  13  15
ENDBRANCH  10  13
BRANCH   9  28
ATOM     28  C   UNL     1       0.517   0.634  -5.981  0.00  0.00    +0.103 C 
ATOM     29  N   UNL     1      -0.149   1.318  -6.597  0.00  0.00    -0.191 NA
ENDBRANCH   9  28
BRANCH   6  30
ATOM     30  O   UNL     1       5.404  -3.268  -1.427  0.00  0.00    -0.488 OA
BRANCH  30  31
ATOM     31  C   UNL     1       5.215  -4.660  -1.690  0.00  0.00    +0.227 C 
BRANCH  31  32
ATOM     32  C   UNL     1       6.166  -5.478  -0.814  0.00  0.00    +0.022 C 
BRANCH  32  33
ATOM     33  C   UNL     1       5.965  -6.968  -1.095  0.00  0.00    -0.075 C 
BRANCH  33  34
ATOM     34  N   UNL     1       6.877  -7.753  -0.253  0.00  0.00    +0.383 N 
ATOM     35  C   UNL     1       8.266  -7.470  -0.640  0.00  0.00    -0.050 C 
ATOM     36  C   UNL     1       9.215  -8.289   0.239  0.00  0.00    +0.141 C 
ATOM     37  O   UNL     1       8.905  -9.678   0.101  0.00  0.00    -0.383 OA
ATOM     38  C   UNL     1       7.554 -10.001   0.444  0.00  0.00    +0.141 C 
ATOM     39  C   UNL     1       6.602  -9.185  -0.434  0.00  0.00    -0.050 C 
ATOM     40  H   UNL     1       6.740  -7.504   0.715  0.00  0.00    -0.082 HD
ENDBRANCH  33  34
ENDBRANCH  32  33
ENDBRANCH  31  32
ENDBRANCH  30  31
ENDBRANCH   6  30
TORSDOF 11
