REMARK  Name = CHEMBL34072
REMARK  9 active torsions:
REMARK  status: ('A' for Active; 'I' for Inactive)
REMARK    1  A    between atoms: C_4  and  S_8
REMARK    2  A    between atoms: C_5  and  N_7
REMARK    3  A    between atoms: S_8  and  C_9
REMARK    4  A    between atoms: C_9  and  N_31
REMARK    5  A    between atoms: C_10  and  C_11
REMARK    6  A    between atoms: C_10  and  C_13
REMARK    7  A    between atoms: C_17  and  C_19
REMARK    8  A    between atoms: C_19  and  C_20
REMARK    9  A    between atoms: C_19  and  O_30
REMARK                            x       y       z     vdW  Elec       q    Type
REMARK                         _______ _______ _______ _____ _____    ______ ____
ROOT
ATOM      1  C   UNL     1       7.578   0.973  -0.722  0.00  0.00    -0.005 A 
ATOM      2  C   UNL     1       7.461   1.816  -1.827  0.00  0.00    +0.009 A 
ATOM      3  C   UNL     1       8.443   2.750  -2.085  0.00  0.00    +0.001 A 
ATOM      4  C   UNL     1       9.542   2.852  -1.250  0.00  0.00    +0.006 A 
ATOM      5  C   UNL     1       9.664   2.019  -0.153  0.00  0.00    -0.014 A 
ATOM      6  C   UNL     1       8.685   1.085   0.120  0.00  0.00    +0.015 A 
ENDROOT
BRANCH   1   8
ATOM      7  C   UNL     1       5.245   0.379  -0.110  0.00  0.00    +0.082 C 
ATOM      8  C   UNL     1       6.529  -0.033  -0.439  0.00  0.00    +0.086 C 
BRANCH   7   9
ATOM      9  N   UNL     1       4.948   1.717  -0.047  0.00  0.00    -0.352 N 
ATOM     10  H   UNL     1       4.035   2.004   0.108  0.00  0.00    +0.143 HD
ATOM     11  H   UNL     1       5.652   2.376  -0.158  0.00  0.00    +0.143 HD
ENDBRANCH   7   9
BRANCH   8  12
ATOM     12  C   UNL     1       6.838  -1.429  -0.505  0.00  0.00    +0.102 C 
ATOM     13  N   UNL     1       7.084  -2.537  -0.557  0.00  0.00    -0.191 NA
ENDBRANCH   8  12
BRANCH   7  14
ATOM     14  S   UNL     1       3.996  -0.818   0.226  0.00  0.00    -0.072 S 
BRANCH  14  18
ATOM     15  C   UNL     1       1.040  -0.300  -3.172  0.00  0.00    +0.002 A 
ATOM     16  C   UNL     1       2.234   0.397  -3.180  0.00  0.00    +0.001 A 
ATOM     17  C   UNL     1       3.137   0.241  -2.145  0.00  0.00    +0.017 A 
ATOM     18  C   UNL     1       2.846  -0.616  -1.094  0.00  0.00    +0.035 A 
ATOM     19  C   UNL     1       1.641  -1.319  -1.086  0.00  0.00    +0.039 A 
ATOM     20  C   UNL     1       0.741  -1.157  -2.129  0.00  0.00    +0.024 A 
BRANCH  19  21
ATOM     21  N   UNL     1       1.341  -2.185  -0.029  0.00  0.00    -0.357 N 
ATOM     22  H   UNL     1       1.972  -2.298   0.700  0.00  0.00    +0.142 HD
ATOM     23  H   UNL     1       0.503  -2.673  -0.025  0.00  0.00    +0.142 HD
ENDBRANCH  19  21
ENDBRANCH  14  18
ENDBRANCH   7  14
ENDBRANCH   1   8
BRANCH   5  24
ATOM     24  C   UNL     1      10.864   2.137   0.751  0.00  0.00    +0.175 C 
BRANCH  24  25
ATOM     25  C   UNL     1      10.617   3.213   1.776  0.00  0.00    -0.011 A 
ATOM     26  C   UNL     1      10.780   4.543   1.434  0.00  0.00    +0.010 A 
ATOM     27  C   UNL     1      10.556   5.533   2.372  0.00  0.00    +0.050 A 
ATOM     28  C   UNL     1      10.166   5.195   3.659  0.00  0.00    +0.162 A 
ATOM     29  C   UNL     1      10.000   3.859   4.003  0.00  0.00    +0.162 A 
ATOM     30  C   UNL     1      10.222   2.870   3.055  0.00  0.00    +0.056 A 
ATOM     31  O   UNL     1       9.610   3.506   5.258  0.00  0.00    -0.485 OA
ATOM     32  C   UNL     1       9.752   4.499   6.279  0.00  0.00    +0.270 C 
ATOM     33  C   UNL     1       9.202   5.826   5.739  0.00  0.00    +0.270 C 
ATOM     34  O   UNL     1       9.953   6.181   4.573  0.00  0.00    -0.485 OA
ENDBRANCH  24  25
BRANCH  24  35
ATOM     35  O   UNL     1      12.014   2.474  -0.026  0.00  0.00    -0.383 OA
ATOM     36  H   UNL     1      11.934   3.311  -0.505  0.00  0.00    +0.211 HD
ENDBRANCH  24  35
ENDBRANCH   5  24
TORSDOF 9
