REMARK  Name = CHEMBL35988
REMARK  9 active torsions:
REMARK  status: ('A' for Active; 'I' for Inactive)
REMARK    1  A    between atoms: C_1  and  C_2
REMARK    2  A    between atoms: C_2  and  C_3
REMARK    3  A    between atoms: C_2  and  O_22
REMARK    4  A    between atoms: C_7  and  C_9
REMARK    5  A    between atoms: C_9  and  C_20
REMARK    6  A    between atoms: C_10  and  N_11
REMARK    7  A    between atoms: C_10  and  S_12
REMARK    8  A    between atoms: S_12  and  C_13
REMARK    9  A    between atoms: C_18  and  N_19
REMARK                            x       y       z     vdW  Elec       q    Type
REMARK                         _______ _______ _______ _____ _____    ______ ____
ROOT
ATOM      1  C   UNL     1       4.079  -1.812  -2.335  0.00  0.00    +0.086 C 
ATOM      2  C   UNL     1       5.093  -1.067  -2.921  0.00  0.00    +0.082 C 
ENDROOT
BRANCH   1   7
ATOM      3  C   UNL     1       0.687  -0.542  -1.335  0.00  0.00    -0.019 A 
ATOM      4  C   UNL     1       0.053  -0.469  -2.564  0.00  0.00    +0.006 A 
ATOM      5  C   UNL     1       0.725  -0.832  -3.717  0.00  0.00    +0.001 A 
ATOM      6  C   UNL     1       2.032  -1.269  -3.650  0.00  0.00    +0.009 A 
ATOM      7  C   UNL     1       2.677  -1.344  -2.415  0.00  0.00    -0.005 A 
ATOM      8  C   UNL     1       1.995  -0.972  -1.255  0.00  0.00    +0.015 A 
BRANCH   3  10
ATOM      9  C   UNL     1      -0.057   1.379   0.044  0.00  0.00    +0.043 C 
ATOM     10  C   UNL     1      -0.052  -0.145  -0.084  0.00  0.00    +0.141 C 
BRANCH  10  11
ATOM     11  O   UNL     1      -1.398  -0.621  -0.154  0.00  0.00    -0.387 OA
ATOM     12  H   UNL     1      -1.934  -0.402   0.621  0.00  0.00    +0.210 HD
ENDBRANCH  10  11
ENDBRANCH   3  10
ENDBRANCH   1   7
BRANCH   2  13
ATOM     13  N   UNL     1       4.795   0.102  -3.575  0.00  0.00    -0.352 N 
ATOM     14  H   UNL     1       3.871   0.373  -3.687  0.00  0.00    +0.143 HD
ATOM     15  H   UNL     1       5.510   0.657  -3.925  0.00  0.00    +0.143 HD
ENDBRANCH   2  13
BRANCH   1  16
ATOM     16  C   UNL     1       4.389  -3.032  -1.653  0.00  0.00    +0.102 C 
ATOM     17  N   UNL     1       4.635  -4.000  -1.112  0.00  0.00    -0.191 NA
ENDBRANCH   1  16
BRANCH   2  18
ATOM     18  S   UNL     1       6.762  -1.624  -2.827  0.00  0.00    -0.072 S 
BRANCH  18  19
ATOM     19  C   UNL     1       7.559  -0.413  -1.826  0.00  0.00    +0.035 A 
ATOM     20  C   UNL     1       6.816   0.597  -1.231  0.00  0.00    +0.017 A 
ATOM     21  C   UNL     1       7.444   1.546  -0.446  0.00  0.00    +0.001 A 
ATOM     22  C   UNL     1       8.812   1.493  -0.252  0.00  0.00    +0.002 A 
ATOM     23  C   UNL     1       9.560   0.491  -0.841  0.00  0.00    +0.024 A 
ATOM     24  C   UNL     1       8.938  -0.469  -1.625  0.00  0.00    +0.039 A 
BRANCH  24  25
ATOM     25  N   UNL     1       9.693  -1.487  -2.217  0.00  0.00    -0.357 N 
ATOM     26  H   UNL     1       9.257  -2.156  -2.769  0.00  0.00    +0.142 HD
ATOM     27  H   UNL     1      10.652  -1.525  -2.077  0.00  0.00    +0.142 HD
ENDBRANCH  24  25
ENDBRANCH  18  19
ENDBRANCH   2  18
TORSDOF 8
