REMARK  Name = CHEMBL33906
REMARK  9 active torsions:
REMARK  status: ('A' for Active; 'I' for Inactive)
REMARK    1  A    between atoms: C_10  and  C_11
REMARK    2  A    between atoms: C_11  and  C_12
REMARK    3  A    between atoms: C_11  and  O_31
REMARK    4  A    between atoms: C_16  and  C_18
REMARK    5  A    between atoms: C_18  and  C_29
REMARK    6  A    between atoms: C_19  and  N_20
REMARK    7  A    between atoms: C_19  and  S_21
REMARK    8  A    between atoms: S_21  and  C_22
REMARK    9  A    between atoms: C_27  and  N_28
REMARK                            x       y       z     vdW  Elec       q    Type
REMARK                         _______ _______ _______ _____ _____    ______ ____
ROOT
ATOM      1  C   UNL     1       5.318   0.714   1.140  0.00  0.00    -0.014 A 
ATOM      2  C   UNL     1       5.997  -0.245   1.871  0.00  0.00    +0.006 A 
ATOM      3  C   UNL     1       6.336  -0.007   3.190  0.00  0.00    +0.001 A 
ATOM      4  C   UNL     1       5.998   1.191   3.787  0.00  0.00    +0.009 A 
ATOM      5  C   UNL     1       5.315   2.163   3.056  0.00  0.00    -0.005 A 
ATOM      6  C   UNL     1       4.980   1.918   1.723  0.00  0.00    +0.015 A 
ENDROOT
BRANCH   5   7
ATOM      7  C   UNL     1       4.950   3.450   3.689  0.00  0.00    +0.086 C 
ATOM      8  C   UNL     1       5.944   4.327   4.100  0.00  0.00    +0.082 C 
BRANCH   8   9
ATOM      9  N   UNL     1       5.605   5.521   4.687  0.00  0.00    -0.352 N 
ATOM     10  H   UNL     1       4.674   5.784   4.749  0.00  0.00    +0.143 HD
ATOM     11  H   UNL     1       6.298   6.101   5.040  0.00  0.00    +0.143 HD
ENDBRANCH   8   9
BRANCH   7  12
ATOM     12  C   UNL     1       3.572   3.789   3.878  0.00  0.00    +0.102 C 
ATOM     13  N   UNL     1       2.478   4.059   4.029  0.00  0.00    -0.191 NA
ENDBRANCH   7  12
BRANCH   8  14
ATOM     14  S   UNL     1       7.639   3.909   3.867  0.00  0.00    -0.072 S 
BRANCH  14  15
ATOM     15  C   UNL     1       8.262   3.724   5.505  0.00  0.00    +0.035 A 
ATOM     16  C   UNL     1       7.399   3.798   6.589  0.00  0.00    +0.017 A 
ATOM     17  C   UNL     1       7.890   3.652   7.873  0.00  0.00    +0.001 A 
ATOM     18  C   UNL     1       9.239   3.433   8.081  0.00  0.00    +0.002 A 
ATOM     19  C   UNL     1      10.106   3.358   7.007  0.00  0.00    +0.024 A 
ATOM     20  C   UNL     1       9.622   3.498   5.715  0.00  0.00    +0.039 A 
BRANCH  20  21
ATOM     21  N   UNL     1      10.496   3.417   4.625  0.00  0.00    -0.357 N 
ATOM     22  H   UNL     1      10.157   3.518   3.723  0.00  0.00    +0.142 HD
ATOM     23  H   UNL     1      11.442   3.259   4.773  0.00  0.00    +0.142 HD
ENDBRANCH  20  21
ENDBRANCH  14  15
ENDBRANCH   8  14
ENDBRANCH   5   7
BRANCH   1  24
ATOM     24  C   UNL     1       4.953   0.446  -0.297  0.00  0.00    +0.175 C 
BRANCH  24  34
ATOM     25  C   UNL     1      -0.002   1.730  -0.245  0.00  0.00    +0.001 A 
ATOM     26  C   UNL     1       1.196   2.441  -0.192  0.00  0.00    +0.001 A 
ATOM     27  C   UNL     1       2.395   1.798  -0.226  0.00  0.00    +0.009 A 
ATOM     28  C   UNL     1       2.429   0.395  -0.315  0.00  0.00    -0.012 A 
ATOM     29  C   UNL     1       1.211  -0.328  -0.368  0.00  0.00    -0.018 A 
ATOM     30  C   UNL     1      -0.008   0.372  -0.331  0.00  0.00    +0.008 A 
ATOM     31  C   UNL     1       1.245  -1.729  -0.457  0.00  0.00    +0.008 A 
ATOM     32  C   UNL     1       2.444  -2.373  -0.490  0.00  0.00    +0.001 A 
ATOM     33  C   UNL     1       3.641  -1.662  -0.438  0.00  0.00    +0.007 A 
ATOM     34  C   UNL     1       3.647  -0.304  -0.352  0.00  0.00    -0.007 A 
ENDBRANCH  24  34
BRANCH  24  35
ATOM     35  O   UNL     1       5.978  -0.337  -0.911  0.00  0.00    -0.383 OA
ATOM     36  H   UNL     1       6.124  -1.195  -0.489  0.00  0.00    +0.211 HD
ENDBRANCH  24  35
ENDBRANCH   1  24
TORSDOF 9
