REMARK  Name = CHEMBL202356
REMARK  12 active torsions:
REMARK  status: ('A' for Active; 'I' for Inactive)
REMARK    1  A    between atoms: C_1  and  C_2
REMARK    2  A    between atoms: C_3  and  N_29
REMARK    3  A    between atoms: C_7  and  N_13
REMARK    4  A    between atoms: C_8  and  C_11
REMARK    5  A    between atoms: N_13  and  C_14
REMARK    6  A    between atoms: C_17  and  O_20
REMARK    7  A    between atoms: O_20  and  C_21
REMARK    8  A    between atoms: C_26  and  O_27
REMARK    9  A    between atoms: O_27  and  C_28
REMARK   10  A    between atoms: N_32  and  C_33
REMARK   11  A    between atoms: C_33  and  C_34
REMARK   12  A    between atoms: C_34  and  N_35
REMARK                            x       y       z     vdW  Elec       q    Type
REMARK                         _______ _______ _______ _____ _____    ______ ____
ROOT
ATOM      1  C   UNL     1      -0.998   1.762   0.350  0.00  0.00    +0.048 C 
ATOM      2  C   UNL     1      -0.946   0.261   0.231  0.00  0.00    -0.001 A 
ATOM      3  C   UNL     1      -1.357  -0.502  -0.867  0.00  0.00    +0.058 A 
ATOM      4  C   UNL     1      -1.141  -1.815  -0.568  0.00  0.00    +0.136 A 
ATOM      5  N   UNL     1      -0.609  -1.903   0.680  0.00  0.00    -0.236 N 
ATOM      6  C   UNL     1      -0.476  -0.627   1.186  0.00  0.00    +0.092 A 
ATOM      7  C   UNL     1       0.064  -0.443   2.477  0.00  0.00    +0.077 A 
ATOM      8  C   UNL     1       0.455  -1.573   3.208  0.00  0.00    +0.095 A 
ATOM      9  C   UNL     1       0.298  -2.857   2.635  0.00  0.00    +0.154 A 
ATOM     10  N   UNL     1      -0.210  -3.005   1.446  0.00  0.00    -0.173 NA
ENDROOT
BRANCH   3  11
ATOM     11  N   UNL     1      -1.897  -0.004  -2.065  0.00  0.00    -0.268 N 
ATOM     12  C   UNL     1      -2.254  -0.854  -3.048  0.00  0.00    +0.304 C 
ATOM     13  O   UNL     1      -2.109  -2.052  -2.899  0.00  0.00    -0.253 OA
ATOM     14  N   UNL     1      -2.772  -0.377  -4.197  0.00  0.00    -0.298 N 
ATOM     15  H   UNL     1      -2.013   0.952  -2.185  0.00  0.00    +0.156 HD
ATOM     16  H   UNL     1      -2.888   0.579  -4.317  0.00  0.00    +0.150 HD
BRANCH  14  17
ATOM     17  C   UNL     1      -3.160  -1.301  -5.266  0.00  0.00    +0.121 C 
BRANCH  17  18
ATOM     18  C   UNL     1      -3.714  -0.507  -6.450  0.00  0.00    +0.103 C 
BRANCH  18  19
ATOM     19  N   UNL     1      -4.103  -1.433  -7.522  0.00  0.00    -0.297 NA
ATOM     20  C   UNL     1      -2.927  -2.112  -8.084  0.00  0.00    +0.112 C 
ATOM     21  C   UNL     1      -3.382  -3.110  -9.153  0.00  0.00    +0.175 C 
ATOM     22  O   UNL     1      -4.137  -2.418 -10.152  0.00  0.00    -0.377 OA
ATOM     23  C   UNL     1      -5.291  -1.746  -9.639  0.00  0.00    +0.175 C 
ATOM     24  C   UNL     1      -4.855  -0.735  -8.575  0.00  0.00    +0.112 C 
ENDBRANCH  18  19
ENDBRANCH  17  18
ENDBRANCH  14  17
ENDBRANCH   3  11
BRANCH   8  25
ATOM     25  C   UNL     1       1.008  -1.430   4.521  0.00  0.00    +0.103 C 
ATOM     26  N   UNL     1       1.446  -1.316   5.562  0.00  0.00    -0.191 NA
ENDBRANCH   8  25
BRANCH   7  27
ATOM     27  N   UNL     1       0.205   0.824   3.010  0.00  0.00    -0.312 N 
ATOM     28  H   UNL     1      -0.307   1.081   3.792  0.00  0.00    +0.152 HD
BRANCH  27  29
ATOM     29  C   UNL     1       1.087   1.736   2.420  0.00  0.00    +0.032 A 
ATOM     30  C   UNL     1       1.891   1.339   1.359  0.00  0.00    +0.027 A 
ATOM     31  C   UNL     1       2.761   2.240   0.778  0.00  0.00    +0.048 A 
ATOM     32  C   UNL     1       2.833   3.541   1.253  0.00  0.00    +0.129 A 
ATOM     33  C   UNL     1       2.030   3.939   2.312  0.00  0.00    +0.048 A 
ATOM     34  C   UNL     1       1.155   3.041   2.891  0.00  0.00    +0.027 A 
BRANCH  32  35
ATOM     35  O   UNL     1       3.690   4.428   0.680  0.00  0.00    -0.452 OA
BRANCH  35  36
ATOM     36  C   UNL     1       4.754   4.851   1.413  0.00  0.00    +0.170 A 
ATOM     37  C   UNL     1       5.018   4.281   2.648  0.00  0.00    +0.050 A 
ATOM     38  C   UNL     1       6.101   4.712   3.391  0.00  0.00    +0.004 A 
ATOM     39  C   UNL     1       6.923   5.712   2.905  0.00  0.00    +0.004 A 
ATOM     40  C   UNL     1       6.665   6.285   1.674  0.00  0.00    +0.049 A 
ATOM     41  C   UNL     1       5.585   5.854   0.921  0.00  0.00    +0.162 A 
BRANCH  41  42
ATOM     42  O   UNL     1       5.333   6.413  -0.293  0.00  0.00    -0.491 OA
ATOM     43  C   UNL     1       6.228   7.436  -0.734  0.00  0.00    +0.277 C 
ENDBRANCH  41  42
ENDBRANCH  35  36
ENDBRANCH  32  35
ENDBRANCH  27  29
ENDBRANCH   7  27
TORSDOF 10
