REMARK  Name = CHEMBL33906
REMARK  9 active torsions:
REMARK  status: ('A' for Active; 'I' for Inactive)
REMARK    1  A    between atoms: C_10  and  C_11
REMARK    2  A    between atoms: C_11  and  C_12
REMARK    3  A    between atoms: C_11  and  O_31
REMARK    4  A    between atoms: C_16  and  C_18
REMARK    5  A    between atoms: C_18  and  C_29
REMARK    6  A    between atoms: C_19  and  N_20
REMARK    7  A    between atoms: C_19  and  S_21
REMARK    8  A    between atoms: S_21  and  C_22
REMARK    9  A    between atoms: C_27  and  N_28
REMARK                            x       y       z     vdW  Elec       q    Type
REMARK                         _______ _______ _______ _____ _____    ______ ____
ROOT
ATOM      1  C   UNL     1       5.360   0.471   1.468  0.00  0.00    -0.014 A 
ATOM      2  C   UNL     1       6.161  -0.384   2.205  0.00  0.00    +0.006 A 
ATOM      3  C   UNL     1       6.587  -0.023   3.470  0.00  0.00    +0.001 A 
ATOM      4  C   UNL     1       6.214   1.193   4.006  0.00  0.00    +0.009 A 
ATOM      5  C   UNL     1       5.407   2.059   3.268  0.00  0.00    -0.005 A 
ATOM      6  C   UNL     1       4.985   1.692   1.990  0.00  0.00    +0.015 A 
ENDROOT
BRANCH   5   7
ATOM      7  C   UNL     1       5.004   3.365   3.837  0.00  0.00    +0.086 C 
ATOM      8  C   UNL     1       5.963   4.334   4.098  0.00  0.00    +0.082 C 
BRANCH   8   9
ATOM      9  N   UNL     1       7.285   4.082   3.828  0.00  0.00    -0.352 N 
ATOM     10  H   UNL     1       7.558   3.203   3.521  0.00  0.00    +0.143 HD
ATOM     11  H   UNL     1       7.946   4.782   3.945  0.00  0.00    +0.143 HD
ENDBRANCH   8   9
BRANCH   7  12
ATOM     12  C   UNL     1       3.625   3.629   4.118  0.00  0.00    +0.102 C 
ATOM     13  N   UNL     1       2.531   3.838   4.341  0.00  0.00    -0.191 NA
ENDBRANCH   7  12
BRANCH   8  14
ATOM     14  S   UNL     1       5.483   5.889   4.774  0.00  0.00    -0.072 S 
BRANCH  14  15
ATOM     15  C   UNL     1       5.840   7.041   3.490  0.00  0.00    +0.035 A 
ATOM     16  C   UNL     1       6.266   6.590   2.249  0.00  0.00    +0.017 A 
ATOM     17  C   UNL     1       6.545   7.496   1.243  0.00  0.00    +0.001 A 
ATOM     18  C   UNL     1       6.400   8.853   1.469  0.00  0.00    +0.002 A 
ATOM     19  C   UNL     1       5.975   9.311   2.702  0.00  0.00    +0.024 A 
ATOM     20  C   UNL     1       5.688   8.409   3.716  0.00  0.00    +0.039 A 
BRANCH  20  21
ATOM     21  N   UNL     1       5.252   8.871   4.963  0.00  0.00    -0.357 N 
ATOM     22  H   UNL     1       5.055   8.239   5.672  0.00  0.00    +0.142 HD
ATOM     23  H   UNL     1       5.147   9.822   5.118  0.00  0.00    +0.142 HD
ENDBRANCH  20  21
ENDBRANCH  14  15
ENDBRANCH   8  14
ENDBRANCH   5   7
BRANCH   1  24
ATOM     24  C   UNL     1       4.900   0.070   0.090  0.00  0.00    +0.175 C 
BRANCH  24  34
ATOM     25  C   UNL     1      -0.113   1.032   0.472  0.00  0.00    +0.001 A 
ATOM     26  C   UNL     1       1.032   1.820   0.371  0.00  0.00    +0.001 A 
ATOM     27  C   UNL     1       2.267   1.255   0.282  0.00  0.00    +0.009 A 
ATOM     28  C   UNL     1       2.393  -0.145   0.290  0.00  0.00    -0.012 A 
ATOM     29  C   UNL     1       1.229  -0.947   0.393  0.00  0.00    -0.018 A 
ATOM     30  C   UNL     1      -0.029  -0.327   0.483  0.00  0.00    +0.008 A 
ATOM     31  C   UNL     1       1.355  -2.346   0.402  0.00  0.00    +0.008 A 
ATOM     32  C   UNL     1       2.590  -2.912   0.313  0.00  0.00    +0.001 A 
ATOM     33  C   UNL     1       3.734  -2.124   0.212  0.00  0.00    +0.007 A 
ATOM     34  C   UNL     1       3.651  -0.765   0.200  0.00  0.00    -0.007 A 
ENDBRANCH  24  34
BRANCH  24  35
ATOM     35  O   UNL     1       5.926  -0.691  -0.552  0.00  0.00    -0.383 OA
ATOM     36  H   UNL     1       6.165  -1.502  -0.083  0.00  0.00    +0.211 HD
ENDBRANCH  24  35
ENDBRANCH   1  24
TORSDOF 9
