REMARK  Name = CHEMBL29714
REMARK  12 active torsions:
REMARK  status: ('A' for Active; 'I' for Inactive)
REMARK    1  A    between atoms: C_1  and  O_2
REMARK    2  A    between atoms: O_2  and  C_3
REMARK    3  A    between atoms: C_8  and  O_9
REMARK    4  A    between atoms: O_9  and  C_10
REMARK    5  A    between atoms: C_10  and  C_11
REMARK    6  A    between atoms: C_11  and  C_12
REMARK    7  A    between atoms: C_12  and  N_13
REMARK    8  A    between atoms: C_21  and  C_37
REMARK    9  A    between atoms: C_22  and  N_23
REMARK   10  A    between atoms: N_23  and  C_24
REMARK   11  A    between atoms: C_27  and  S_30
REMARK   12  A    between atoms: S_30  and  C_31
REMARK                            x       y       z     vdW  Elec       q    Type
REMARK                         _______ _______ _______ _____ _____    ______ ____
ROOT
ATOM      1  C   UNL     1      -4.014  -1.132  -3.165  0.00  0.00    +0.162 A 
ATOM      2  C   UNL     1      -4.259  -0.243  -2.159  0.00  0.00    +0.061 A 
ATOM      3  C   UNL     1      -4.590  -0.711  -0.879  0.00  0.00    +0.026 A 
ATOM      4  C   UNL     1      -4.669  -2.103  -0.634  0.00  0.00    +0.077 A 
ATOM      5  C   UNL     1      -4.412  -2.998  -1.685  0.00  0.00    +0.077 A 
ATOM      6  C   UNL     1      -4.095  -2.512  -2.933  0.00  0.00    +0.164 A 
ATOM      7  N   UNL     1      -4.986  -2.558   0.587  0.00  0.00    -0.253 NA
ATOM      8  C   UNL     1      -5.231  -1.749   1.586  0.00  0.00    +0.132 A 
ATOM      9  C   UNL     1      -5.177  -0.354   1.434  0.00  0.00    +0.091 A 
ATOM     10  C   UNL     1      -4.850   0.188   0.182  0.00  0.00    +0.060 A 
ENDROOT
BRANCH   1  12
ATOM     11  C   UNL     1      -3.627   0.742  -4.577  0.00  0.00    +0.277 C 
ATOM     12  O   UNL     1      -3.693  -0.675  -4.405  0.00  0.00    -0.491 OA
ENDBRANCH   1  12
BRANCH  10  13
ATOM     13  N   UNL     1      -4.785   1.553  -0.009  0.00  0.00    -0.313 N 
ATOM     14  H   UNL     1      -3.948   2.023   0.130  0.00  0.00    +0.152 HD
BRANCH  13  15
ATOM     15  C   UNL     1      -5.927   2.260  -0.404  0.00  0.00    +0.031 A 
ATOM     16  C   UNL     1      -7.095   1.575  -0.712  0.00  0.00    +0.024 A 
ATOM     17  C   UNL     1      -8.221   2.272  -1.101  0.00  0.00    +0.017 A 
ATOM     18  C   UNL     1      -8.186   3.658  -1.185  0.00  0.00    +0.013 A 
ATOM     19  C   UNL     1      -7.017   4.343  -0.876  0.00  0.00    +0.017 A 
ATOM     20  C   UNL     1      -5.893   3.647  -0.481  0.00  0.00    +0.024 A 
BRANCH  18  21
ATOM     21  S   UNL     1      -9.623   4.548  -1.682  0.00  0.00    -0.089 S 
BRANCH  21  22
ATOM     22  C   UNL     1     -10.870   3.309  -1.804  0.00  0.00    +0.013 A 
ATOM     23  C   UNL     1     -11.593   2.936  -0.677  0.00  0.00    +0.015 A 
ATOM     24  C   UNL     1     -12.570   1.965  -0.777  0.00  0.00    +0.001 A 
ATOM     25  C   UNL     1     -12.830   1.365  -1.995  0.00  0.00    +0.000 A 
ATOM     26  C   UNL     1     -12.112   1.734  -3.119  0.00  0.00    +0.001 A 
ATOM     27  C   UNL     1     -11.138   2.708  -3.028  0.00  0.00    +0.015 A 
ENDBRANCH  21  22
ENDBRANCH  18  21
ENDBRANCH  13  15
ENDBRANCH  10  13
BRANCH   9  28
ATOM     28  C   UNL     1      -5.452   0.506   2.546  0.00  0.00    +0.103 C 
ATOM     29  N   UNL     1      -5.670   1.188   3.427  0.00  0.00    -0.191 NA
ENDBRANCH   9  28
BRANCH   6  30
ATOM     30  O   UNL     1      -3.853  -3.380  -3.950  0.00  0.00    -0.488 OA
BRANCH  30  31
ATOM     31  C   UNL     1      -3.951  -4.774  -3.651  0.00  0.00    +0.230 C 
BRANCH  31  32
ATOM     32  C   UNL     1      -3.647  -5.588  -4.910  0.00  0.00    +0.056 C 
BRANCH  32  33
ATOM     33  C   UNL     1      -3.752  -7.081  -4.589  0.00  0.00    +0.088 C 
BRANCH  33  34
ATOM     34  N   UNL     1      -3.460  -7.863  -5.798  0.00  0.00    -0.298 NA
ATOM     35  C   UNL     1      -4.495  -7.658  -6.821  0.00  0.00    +0.112 C 
ATOM     36  C   UNL     1      -4.121  -8.442  -8.082  0.00  0.00    +0.175 C 
ATOM     37  O   UNL     1      -3.957  -9.822  -7.747  0.00  0.00    -0.377 OA
ATOM     38  C   UNL     1      -2.956 -10.059  -6.754  0.00  0.00    +0.175 C 
ATOM     39  C   UNL     1      -3.318  -9.291  -5.479  0.00  0.00    +0.112 C 
ENDBRANCH  33  34
ENDBRANCH  32  33
ENDBRANCH  31  32
ENDBRANCH  30  31
ENDBRANCH   6  30
TORSDOF 11
