REMARK  Name = CHEMBL316510
REMARK  4 active torsions:
REMARK  status: ('A' for Active; 'I' for Inactive)
REMARK    1  A    between atoms: C_9  and  C_10
REMARK    2  A    between atoms: C_9  and  C_22
REMARK    3  A    between atoms: C_10  and  C_11
REMARK    4  A    between atoms: C_10  and  C_20
REMARK                            x       y       z     vdW  Elec       q    Type
REMARK                         _______ _______ _______ _____ _____    ______ ____
ROOT
ATOM      1  C   UNL     1       0.727   0.973  -2.930  0.00  0.00    +0.002 A 
ATOM      2  C   UNL     1       1.754   1.773  -2.493  0.00  0.00    +0.024 A 
ATOM      3  C   UNL     1       2.847   1.222  -1.806  0.00  0.00    +0.046 A 
ATOM      4  C   UNL     1       2.831  -0.172  -1.594  0.00  0.00    +0.035 A 
ATOM      5  C   UNL     1       1.794  -0.971  -2.035  0.00  0.00    +0.017 A 
ATOM      6  C   UNL     1       0.734  -0.397  -2.709  0.00  0.00    +0.001 A 
ATOM      7  S   UNL     1       4.345  -0.462  -0.717  0.00  0.00    -0.071 S 
ATOM      8  C   UNL     1       4.914   1.118  -0.656  0.00  0.00    +0.086 C 
ATOM      9  C   UNL     1       6.160   1.603  -0.051  0.00  0.00    +0.086 C 
ATOM     10  N   UNL     1       3.958   1.847  -1.296  0.00  0.00    -0.307 N 
ATOM     11  H   UNL     1       4.062   2.807  -1.392  0.00  0.00    +0.153 HD
ENDROOT
BRANCH   9  12
ATOM     12  C   UNL     1       7.020   0.694   0.645  0.00  0.00    +0.099 C 
ATOM     13  N   UNL     1       7.702  -0.028   1.196  0.00  0.00    -0.191 NA
ENDBRANCH   9  12
BRANCH   9  14
ATOM     14  C   UNL     1       6.506   2.947  -0.152  0.00  0.00    +0.171 C 
BRANCH  14  15
ATOM     15  C   UNL     1       7.919   3.336  -0.276  0.00  0.00    +0.107 A 
ATOM     16  S   UNL     1       9.370   2.292  -0.328  0.00  0.00    -0.070 S 
ATOM     17  C   UNL     1      10.570   3.592  -0.483  0.00  0.00    +0.039 A 
ATOM     18  C   UNL     1       9.757   4.754  -0.484  0.00  0.00    +0.079 A 
ATOM     19  C   UNL     1      10.438   5.992  -0.597  0.00  0.00    +0.029 A 
ATOM     20  C   UNL     1      11.793   6.034  -0.698  0.00  0.00    +0.002 A 
ATOM     21  C   UNL     1      12.562   4.877  -0.695  0.00  0.00    +0.001 A 
ATOM     22  C   UNL     1      11.939   3.648  -0.586  0.00  0.00    +0.017 A 
ATOM     23  N   UNL     1       8.440   4.542  -0.382  0.00  0.00    -0.242 NA
ENDBRANCH  14  15
BRANCH  14  24
ATOM     24  C   UNL     1       5.486   3.952  -0.137  0.00  0.00    +0.084 C 
ATOM     25  N   UNL     1       4.677   4.749  -0.124  0.00  0.00    -0.195 NA
ENDBRANCH  14  24
ENDBRANCH   9  14
TORSDOF 4
