REMARK  Name = CHEMBL35029
REMARK  10 active torsions:
REMARK  status: ('A' for Active; 'I' for Inactive)
REMARK    1  A    between atoms: C_4  and  S_8
REMARK    2  A    between atoms: C_5  and  N_7
REMARK    3  A    between atoms: S_8  and  C_9
REMARK    4  A    between atoms: C_9  and  N_32
REMARK    5  A    between atoms: C_10  and  C_11
REMARK    6  A    between atoms: C_10  and  C_13
REMARK    7  A    between atoms: C_17  and  C_19
REMARK    8  A    between atoms: C_19  and  C_20
REMARK    9  A    between atoms: C_19  and  O_31
REMARK   10  A    between atoms: C_23  and  C_26
REMARK                            x       y       z     vdW  Elec       q    Type
REMARK                         _______ _______ _______ _____ _____    ______ ____
ROOT
ATOM      1  C   UNL     1       6.887  -1.480  -0.247  0.00  0.00    -0.005 A 
ATOM      2  C   UNL     1       6.580  -2.317   0.826  0.00  0.00    +0.009 A 
ATOM      3  C   UNL     1       6.880  -3.662   0.757  0.00  0.00    +0.001 A 
ATOM      4  C   UNL     1       7.487  -4.180  -0.374  0.00  0.00    +0.006 A 
ATOM      5  C   UNL     1       7.795  -3.355  -1.441  0.00  0.00    -0.014 A 
ATOM      6  C   UNL     1       7.493  -2.010  -1.386  0.00  0.00    +0.015 A 
ENDROOT
BRANCH   1   8
ATOM      7  C   UNL     1       5.245   0.379  -0.110  0.00  0.00    +0.082 C 
ATOM      8  C   UNL     1       6.567  -0.036  -0.179  0.00  0.00    +0.086 C 
BRANCH   7   9
ATOM      9  N   UNL     1       4.948   1.717  -0.047  0.00  0.00    -0.352 N 
ATOM     10  H   UNL     1       4.035   2.004   0.108  0.00  0.00    +0.143 HD
ATOM     11  H   UNL     1       5.652   2.376  -0.158  0.00  0.00    +0.143 HD
ENDBRANCH   7   9
BRANCH   8  12
ATOM     12  C   UNL     1       7.622   0.932  -0.183  0.00  0.00    +0.102 C 
ATOM     13  N   UNL     1       8.459   1.700  -0.187  0.00  0.00    -0.191 NA
ENDBRANCH   8  12
BRANCH   7  14
ATOM     14  S   UNL     1       3.947  -0.813  -0.105  0.00  0.00    -0.072 S 
BRANCH  14  18
ATOM     15  C   UNL     1       1.782  -0.093  -4.022  0.00  0.00    +0.002 A 
ATOM     16  C   UNL     1       2.947   0.596  -3.737  0.00  0.00    +0.001 A 
ATOM     17  C   UNL     1       3.609   0.378  -2.543  0.00  0.00    +0.017 A 
ATOM     18  C   UNL     1       3.105  -0.533  -1.627  0.00  0.00    +0.035 A 
ATOM     19  C   UNL     1       1.929  -1.227  -1.914  0.00  0.00    +0.039 A 
ATOM     20  C   UNL     1       1.272  -1.002  -3.114  0.00  0.00    +0.024 A 
BRANCH  19  21
ATOM     21  N   UNL     1       1.415  -2.147  -0.994  0.00  0.00    -0.357 N 
ATOM     22  H   UNL     1       1.876  -2.303  -0.155  0.00  0.00    +0.142 HD
ATOM     23  H   UNL     1       0.598  -2.629  -1.195  0.00  0.00    +0.142 HD
ENDBRANCH  19  21
ENDBRANCH  14  18
ENDBRANCH   7  14
ENDBRANCH   1   8
BRANCH   5  24
ATOM     24  C   UNL     1       8.456  -3.928  -2.668  0.00  0.00    +0.175 C 
BRANCH  24  25
ATOM     25  C   UNL     1       7.404  -4.488  -3.590  0.00  0.00    -0.015 A 
ATOM     26  C   UNL     1       6.857  -5.733  -3.337  0.00  0.00    +0.007 A 
ATOM     27  C   UNL     1       5.893  -6.250  -4.178  0.00  0.00    +0.012 A 
ATOM     28  C   UNL     1       5.469  -5.515  -5.285  0.00  0.00    +0.023 A 
ATOM     29  C   UNL     1       6.024  -4.260  -5.535  0.00  0.00    +0.012 A 
ATOM     30  C   UNL     1       6.984  -3.751  -4.684  0.00  0.00    +0.007 A 
BRANCH  28  31
ATOM     31  C   UNL     1       4.435  -6.064  -6.191  0.00  0.00    +0.207 A 
ATOM     32  N   UNL     1       3.936  -5.479  -7.280  0.00  0.00    -0.106 NA
ATOM     33  N   UNL     1       3.063  -6.281  -7.786  0.00  0.00    -0.021 NA
ATOM     34  N   UNL     1       2.993  -7.343  -7.062  0.00  0.00    -0.021 NA
ATOM     35  N   UNL     1       3.824  -7.245  -6.081  0.00  0.00    -0.106 NA
ENDBRANCH  28  31
ENDBRANCH  24  25
BRANCH  24  36
ATOM     36  O   UNL     1       9.354  -4.971  -2.283  0.00  0.00    -0.383 OA
ATOM     37  H   UNL     1       8.929  -5.705  -1.818  0.00  0.00    +0.211 HD
ENDBRANCH  24  36
ENDBRANCH   5  24
TORSDOF 10
