REMARK  Name = CHEMBL573577
REMARK  9 active torsions:
REMARK  status: ('A' for Active; 'I' for Inactive)
REMARK    1  A    between atoms: C_1  and  C_2
REMARK    2  A    between atoms: C_3  and  C_22
REMARK    3  A    between atoms: C_6  and  C_21
REMARK    4  A    between atoms: C_7  and  C_8
REMARK    5  A    between atoms: N_10  and  C_11
REMARK    6  A    between atoms: C_11  and  C_12
REMARK    7  A    between atoms: C_12  and  C_13
REMARK    8  A    between atoms: C_12  and  O_20
REMARK    9  A    between atoms: C_13  and  N_14
REMARK                            x       y       z     vdW  Elec       q    Type
REMARK                         _______ _______ _______ _____ _____    ______ ____
ROOT
ATOM      1  C   UNL     1      -0.415   1.414   0.042  0.00  0.00    +0.047 C 
ATOM      2  C   UNL     1      -0.121  -0.063   0.008  0.00  0.00    -0.013 A 
ATOM      3  C   UNL     1       0.058  -0.841  -1.119  0.00  0.00    +0.044 A 
ATOM      4  N   UNL     1       0.305  -2.135  -0.709  0.00  0.00    -0.358 N 
ATOM      5  H   UNL     1       0.468  -2.889  -1.298  0.00  0.00    +0.166 HD
ATOM      6  C   UNL     1       0.286  -2.186   0.633  0.00  0.00    +0.026 A 
ATOM      7  C   UNL     1       0.030  -0.917   1.121  0.00  0.00    +0.060 A 
ATOM      8  C   UNL     1       0.513  -3.419   1.469  0.00  0.00    +0.064 C 
ENDROOT
BRANCH   3   9
ATOM      9  C   UNL     1      -0.003  -0.391  -2.456  0.00  0.00    +0.039 C 
ATOM     10  C   UNL     1      -0.501  -1.220  -3.441  0.00  0.00    +0.048 C 
ATOM     11  C   UNL     1      -0.495  -0.986  -4.903  0.00  0.00    +0.011 A 
ATOM     12  C   UNL     1      -0.027   0.054  -5.700  0.00  0.00    +0.048 A 
ATOM     13  C   UNL     1      -0.170  -0.018  -7.072  0.00  0.00    +0.124 A 
ATOM     14  C   UNL     1      -0.777  -1.122  -7.651  0.00  0.00    +0.040 A 
ATOM     15  C   UNL     1      -1.244  -2.158  -6.867  0.00  0.00    +0.027 A 
ATOM     16  C   UNL     1      -1.109  -2.103  -5.484  0.00  0.00    +0.042 A 
ATOM     17  N   UNL     1      -1.485  -2.991  -4.482  0.00  0.00    -0.281 N 
ATOM     18  C   UNL     1      -1.147  -2.528  -3.266  0.00  0.00    +0.249 C 
ATOM     19  O   UNL     1      -1.345  -3.092  -2.205  0.00  0.00    -0.270 OA
ATOM     20  F   UNL     1       0.282   0.989  -7.851  0.00  0.00    -0.205 F 
ATOM     21  H   UNL     1      -1.929  -3.839  -4.641  0.00  0.00    +0.155 HD
ENDBRANCH   3   9
BRANCH   7  22
ATOM     22  C   UNL     1      -0.069  -0.530   2.540  0.00  0.00    +0.246 C 
ATOM     23  O   UNL     1      -1.143  -0.574   3.109  0.00  0.00    -0.270 OA
ATOM     24  N   UNL     1       1.031  -0.126   3.207  0.00  0.00    -0.309 N 
ATOM     25  H   UNL     1       1.887  -0.090   2.753  0.00  0.00    +0.149 HD
BRANCH  24  26
ATOM     26  C   UNL     1       0.932   0.259   4.617  0.00  0.00    +0.133 C 
BRANCH  26  27
ATOM     27  C   UNL     1       2.313   0.673   5.130  0.00  0.00    +0.115 C 
BRANCH  27  28
ATOM     28  O   UNL     1       2.742   1.852   4.446  0.00  0.00    -0.392 OA
ATOM     29  H   UNL     1       2.154   2.611   4.563  0.00  0.00    +0.210 HD
ENDBRANCH  27  28
BRANCH  27  30
ATOM     30  C   UNL     1       2.235   0.956   6.632  0.00  0.00    -0.045 C 
BRANCH  30  31
ATOM     31  N   UNL     1       3.561   1.353   7.125  0.00  0.00    +0.384 N 
ATOM     32  C   UNL     1       4.492   0.225   6.990  0.00  0.00    -0.050 C 
ATOM     33  C   UNL     1       5.873   0.642   7.504  0.00  0.00    +0.141 C 
ATOM     34  O   UNL     1       5.760   1.070   8.864  0.00  0.00    -0.383 OA
ATOM     35  C   UNL     1       4.845   2.153   9.050  0.00  0.00    +0.141 C 
ATOM     36  C   UNL     1       3.462   1.739   8.539  0.00  0.00    -0.050 C 
ATOM     37  H   UNL     1       3.900   2.136   6.585  0.00  0.00    -0.082 HD
ENDBRANCH  30  31
ENDBRANCH  27  30
ENDBRANCH  26  27
ENDBRANCH  24  26
ENDBRANCH   7  22
TORSDOF 7
