REMARK  Name = CHEMBL375609
REMARK  7 active torsions:
REMARK  status: ('A' for Active; 'I' for Inactive)
REMARK    1  A    between atoms: CB_1  and  CA_2
REMARK    2  A    between atoms: CA_2  and  C_3
REMARK    3  A    between atoms: CA_2  and  N_5
REMARK    4  A    between atoms: C_3  and  O_4
REMARK    5  A    between atoms: C_6  and  C_7
REMARK    6  A    between atoms: C_11  and  N_12
REMARK    7  A    between atoms: N_12  and  C_13
REMARK                            x       y       z     vdW  Elec       q    Type
REMARK                         _______ _______ _______ _____ _____    ______ ____
ROOT
ATOM      1  C   UNK A   0       2.537  -0.889   2.385  0.00  0.00    +0.106 A 
ATOM      2  C   UNK A   0       1.855  -1.079   3.586  0.00  0.00    +0.268 A 
ATOM      3  N   UNK A   0       2.589  -1.506   4.631  0.00  0.00    -0.291 N 
ATOM      4  S   UNK A   0       4.143  -1.648   4.031  0.00  0.00    +0.005 S 
ATOM      5  C   UNK A   0       3.904  -1.177   2.439  0.00  0.00    +0.102 A 
ATOM      6  O   UNK A   0       0.656  -0.871   3.685  0.00  0.00    -0.267 OA
ATOM      7  H   UNK A   0       2.284  -1.689   5.533  0.00  0.00    +0.177 HD
ENDROOT
BRANCH   1   9
ATOM      8  N   ALA A   1       0.571  -0.282   1.135  0.00  0.00    -0.368 N 
ATOM      9  C   UNK A   0       1.871  -0.427   1.159  0.00  0.00    +0.105 C 
ATOM     10  N   UNK A   0       2.617  -0.145   0.033  0.00  0.00    -0.344 N 
ATOM     11  H   UNK A   0       2.189   0.240  -0.749  0.00  0.00    +0.144 HD
ATOM     12  H   UNK A   0       3.568  -0.333   0.022  0.00  0.00    +0.144 HD
ATOM     13  H   ALA A   1       0.047  -0.480   1.927  0.00  0.00    +0.161 HD
BRANCH   8  15
ATOM     14  CB  ALA A   1      -0.069   1.707  -0.136  0.00  0.00    +0.032 C 
ATOM     15  CA  ALA A   1      -0.092   0.178  -0.087  0.00  0.00    +0.103 C 
BRANCH  15  16
ATOM     16  C   ALA A   1      -1.542  -0.310  -0.095  0.00  0.00    +0.180 C 
BRANCH  16  17
ATOM     17  O   ALA A   1      -2.258   0.305   0.978  0.00  0.00    -0.393 OA
ATOM     18  H   ALA A   1      -3.186   0.041   1.034  0.00  0.00    +0.209 HD
ENDBRANCH  16  17
ENDBRANCH  15  16
ENDBRANCH   8  15
ENDBRANCH   1   9
BRANCH   5  19
ATOM     19  N   UNK A   0       4.832  -1.093   1.428  0.00  0.00    -0.306 N 
ATOM     20  H   UNK A   0       4.980  -0.248   0.975  0.00  0.00    +0.153 HD
BRANCH  19  21
ATOM     21  C   UNK A   0       5.562  -2.225   1.053  0.00  0.00    +0.052 A 
ATOM     22  C   UNK A   0       5.405  -3.417   1.749  0.00  0.00    +0.025 A 
ATOM     23  C   UNK A   0       6.127  -4.534   1.377  0.00  0.00    +0.003 A 
ATOM     24  C   UNK A   0       7.007  -4.468   0.312  0.00  0.00    +0.021 A 
ATOM     25  C   UNK A   0       7.168  -3.282  -0.384  0.00  0.00    +0.061 A 
ATOM     26  C   UNK A   0       6.443  -2.162  -0.020  0.00  0.00    +0.080 A 
ATOM     27 CL   UNK A   0       6.638  -0.677  -0.898  0.00  0.00    -0.080 Cl
ATOM     28 CL   UNK A   0       8.275  -3.203  -1.718  0.00  0.00    -0.082 Cl
ENDBRANCH  19  21
ENDBRANCH   5  19
TORSDOF 6
