REMARK  Name = CHEMBL253116
REMARK  9 active torsions:
REMARK  status: ('A' for Active; 'I' for Inactive)
REMARK    1  A    between atoms: CB_1  and  CA_2
REMARK    2  A    between atoms: CA_2  and  C_3
REMARK    3  A    between atoms: CA_2  and  N_5
REMARK    4  A    between atoms: C_3  and  O_4
REMARK    5  A    between atoms: N_5  and  C_6
REMARK    6  A    between atoms: C_6  and  N_7
REMARK    7  A    between atoms: N_13  and  C_14
REMARK    8  A    between atoms: C_17  and  N_20
REMARK    9  A    between atoms: N_20  and  C_21
REMARK                            x       y       z     vdW  Elec       q    Type
REMARK                         _______ _______ _______ _____ _____    ______ ____
ROOT
ATOM      1  C   UNK A   0      -2.036  -0.656   1.197  0.00  0.00    +0.097 C 
ATOM      2  C   UNK A   0      -3.372  -1.065   1.204  0.00  0.00    +0.110 C 
ATOM      3  C   UNK A   0      -4.091  -1.460   0.012  0.00  0.00    +0.290 C 
ATOM      4  N   UNK A   0      -5.334  -1.827   0.113  0.00  0.00    -0.168 NA
ATOM      5  S   UNK A   0      -5.723  -1.709   1.735  0.00  0.00    +0.036 S 
ATOM      6  C   UNK A   0      -4.165  -1.141   2.387  0.00  0.00    +0.135 C 
ATOM      7  N   UNK A   0      -3.831  -0.861   3.642  0.00  0.00    -0.238 NA
ATOM      8  O   UNK A   0      -3.475  -1.447  -1.197  0.00  0.00    -0.264 OA
ENDROOT
BRANCH   7   9
ATOM      9  C   UNK A   0      -4.752  -1.002   4.641  0.00  0.00    +0.065 A 
ATOM     10  C   UNK A   0      -6.055  -0.529   4.466  0.00  0.00    +0.029 A 
ATOM     11  C   UNK A   0      -6.981  -0.674   5.477  0.00  0.00    +0.025 A 
ATOM     12  C   UNK A   0      -6.620  -1.290   6.670  0.00  0.00    +0.031 A 
ATOM     13  C   UNK A   0      -5.325  -1.762   6.849  0.00  0.00    +0.025 A 
ATOM     14  C   UNK A   0      -4.395  -1.626   5.841  0.00  0.00    +0.029 A 
BRANCH  12  15
ATOM     15  N   UNK A   0      -7.564  -1.434   7.694  0.00  0.00    -0.314 N 
ATOM     16  H   UNK A   0      -7.284  -1.389   8.622  0.00  0.00    +0.152 HD
BRANCH  15  17
ATOM     17  C   UNK A   0      -8.909  -1.643   7.380  0.00  0.00    +0.031 A 
ATOM     18  C   UNK A   0      -9.259  -2.221   6.166  0.00  0.00    +0.023 A 
ATOM     19  C   UNK A   0     -10.589  -2.426   5.859  0.00  0.00    +0.002 A 
ATOM     20  C   UNK A   0     -11.573  -2.058   6.759  0.00  0.00    +0.000 A 
ATOM     21  C   UNK A   0     -11.228  -1.483   7.969  0.00  0.00    +0.002 A 
ATOM     22  C   UNK A   0      -9.899  -1.280   8.284  0.00  0.00    +0.023 A 
ENDBRANCH  15  17
ENDBRANCH  12  15
ENDBRANCH   7   9
BRANCH   1  23
ATOM     23  N   UNK A   0      -1.386  -0.428   2.375  0.00  0.00    -0.346 N 
ATOM     24  H   UNK A   0      -0.458  -0.144   2.370  0.00  0.00    +0.143 HD
ATOM     25  H   UNK A   0      -1.851  -0.550   3.217  0.00  0.00    +0.143 HD
ENDBRANCH   1  23
BRANCH   1  26
ATOM     26  N   ALA A   1      -1.381  -0.485   0.011  0.00  0.00    -0.327 N 
ATOM     27  H   ALA A   1      -1.819  -0.714  -0.823  0.00  0.00    +0.148 HD
BRANCH  26  29
ATOM     28  CB  ALA A   1      -0.062   1.575   0.026  0.00  0.00    +0.030 C 
ATOM     29  CA  ALA A   1      -0.015   0.046  -0.001  0.00  0.00    +0.094 C 
BRANCH  29  30
ATOM     30  C   ALA A   1       0.702  -0.420  -1.269  0.00  0.00    +0.177 C 
BRANCH  30  31
ATOM     31  O   ALA A   1       0.064   0.151  -2.414  0.00  0.00    -0.393 OA
ATOM     32  H   ALA A   1       0.467  -0.102  -3.256  0.00  0.00    +0.209 HD
ENDBRANCH  30  31
ENDBRANCH  29  30
ENDBRANCH  26  29
ENDBRANCH   1  26
TORSDOF 8
