REMARK  Name = CHEMBL285905
REMARK  8 active torsions:
REMARK  status: ('A' for Active; 'I' for Inactive)
REMARK    1  A    between atoms: C_4  and  O_7
REMARK    2  A    between atoms: O_7  and  C_8
REMARK    3  A    between atoms: C_13  and  C_14
REMARK    4  A    between atoms: C_14  and  C_25
REMARK    5  A    between atoms: C_15  and  N_16
REMARK    6  A    between atoms: C_15  and  S_17
REMARK    7  A    between atoms: S_17  and  C_18
REMARK    8  A    between atoms: C_23  and  N_24
REMARK                            x       y       z     vdW  Elec       q    Type
REMARK                         _______ _______ _______ _____ _____    ______ ____
ROOT
ATOM      1  C   UNL     1       6.149  -2.083   0.197  0.00  0.00    +0.090 C 
ATOM      2  C   UNL     1       6.860  -2.004  -0.992  0.00  0.00    +0.082 C 
ENDROOT
BRANCH   1   8
ATOM      3  C   UNL     1       3.666  -2.330   0.286  0.00  0.00    +0.137 A 
ATOM      4  C   UNL     1       2.535  -3.125   0.357  0.00  0.00    +0.047 A 
ATOM      5  C   UNL     1       2.658  -4.501   0.425  0.00  0.00    +0.004 A 
ATOM      6  C   UNL     1       3.909  -5.092   0.422  0.00  0.00    +0.001 A 
ATOM      7  C   UNL     1       5.046  -4.312   0.353  0.00  0.00    +0.013 A 
ATOM      8  C   UNL     1       4.933  -2.924   0.278  0.00  0.00    +0.037 A 
BRANCH   3   9
ATOM      9  O   UNL     1       3.546  -0.978   0.220  0.00  0.00    -0.455 OA
BRANCH   9  13
ATOM     10  C   UNL     1      -0.234   0.649   0.499  0.00  0.00    +0.000 A 
ATOM     11  C   UNL     1       0.399   0.175   1.634  0.00  0.00    +0.004 A 
ATOM     12  C   UNL     1       1.665  -0.370   1.543  0.00  0.00    +0.046 A 
ATOM     13  C   UNL     1       2.301  -0.442   0.312  0.00  0.00    +0.128 A 
ATOM     14  C   UNL     1       1.664   0.034  -0.825  0.00  0.00    +0.046 A 
ATOM     15  C   UNL     1       0.398   0.578  -0.729  0.00  0.00    +0.004 A 
ENDBRANCH   9  13
ENDBRANCH   3   9
ENDBRANCH   1   8
BRANCH   2  16
ATOM     16  N   UNL     1       7.987  -1.224  -1.068  0.00  0.00    -0.352 N 
ATOM     17  H   UNL     1       8.331  -0.790  -0.271  0.00  0.00    +0.143 HD
ATOM     18  H   UNL     1       8.439  -1.106  -1.918  0.00  0.00    +0.143 HD
ENDBRANCH   2  16
BRANCH   1  19
ATOM     19  C   UNL     1       6.591  -1.350   1.345  0.00  0.00    +0.102 C 
ATOM     20  N   UNL     1       6.942  -0.769   2.256  0.00  0.00    -0.191 NA
ENDBRANCH   1  19
BRANCH   2  21
ATOM     21  S   UNL     1       6.316  -2.905  -2.405  0.00  0.00    -0.072 S 
BRANCH  21  22
ATOM     22  C   UNL     1       7.576  -4.111  -2.653  0.00  0.00    +0.035 A 
ATOM     23  C   UNL     1       8.610  -4.235  -1.736  0.00  0.00    +0.017 A 
ATOM     24  C   UNL     1       9.598  -5.181  -1.933  0.00  0.00    +0.001 A 
ATOM     25  C   UNL     1       9.559  -6.008  -3.041  0.00  0.00    +0.002 A 
ATOM     26  C   UNL     1       8.533  -5.891  -3.960  0.00  0.00    +0.024 A 
ATOM     27  C   UNL     1       7.534  -4.948  -3.768  0.00  0.00    +0.039 A 
BRANCH  27  28
ATOM     28  N   UNL     1       6.491  -4.833  -4.693  0.00  0.00    -0.357 N 
ATOM     29  H   UNL     1       5.795  -4.171  -4.559  0.00  0.00    +0.142 HD
ATOM     30  H   UNL     1       6.463  -5.416  -5.467  0.00  0.00    +0.142 HD
ENDBRANCH  27  28
ENDBRANCH  21  22
ENDBRANCH   2  21
TORSDOF 8
