REMARK  Name = CHEMBL214587
REMARK  8 active torsions:
REMARK  status: ('A' for Active; 'I' for Inactive)
REMARK    1  A    between atoms: C_3  and  O_25
REMARK    2  A    between atoms: C_6  and  N_7
REMARK    3  A    between atoms: N_7  and  C_8
REMARK    4  A    between atoms: C_9  and  C_14
REMARK    5  A    between atoms: N_15  and  C_16
REMARK    6  A    between atoms: C_16  and  C_17
REMARK    7  A    between atoms: C_17  and  N_18
REMARK    8  A    between atoms: O_25  and  C_26
REMARK                            x       y       z     vdW  Elec       q    Type
REMARK                         _______ _______ _______ _____ _____    ______ ____
ROOT
ATOM      1  C   UNL     1      -2.093  -2.376  -0.124  0.00  0.00    +0.102 A 
ATOM      2  C   UNL     1      -3.173  -3.262  -0.179  0.00  0.00    +0.106 A 
ATOM      3  C   UNL     1      -2.881  -4.561   0.234  0.00  0.00    +0.268 A 
ATOM      4  N   UNL     1      -1.615  -4.794   0.627  0.00  0.00    -0.291 N 
ATOM      5  S   UNL     1      -0.835  -3.327   0.444  0.00  0.00    +0.005 S 
ATOM      6  O   UNL     1      -3.728  -5.440   0.239  0.00  0.00    -0.267 OA
ATOM      7  H   UNL     1      -1.238  -5.630   0.943  0.00  0.00    +0.177 HD
ENDROOT
BRANCH   2   8
ATOM      8  C   UNL     1      -4.511  -2.855  -0.635  0.00  0.00    +0.105 C 
ATOM      9  N   UNL     1      -5.452  -3.751  -0.781  0.00  0.00    -0.371 N 
ATOM     10  N   UNL     1      -4.773  -1.529  -0.910  0.00  0.00    -0.344 N 
ATOM     11  H   UNL     1      -4.059  -0.874  -0.864  0.00  0.00    +0.144 HD
ATOM     12  H   UNL     1      -5.671  -1.251  -1.148  0.00  0.00    +0.144 HD
ATOM     13  H   UNL     1      -5.269  -4.684  -0.588  0.00  0.00    +0.161 HD
BRANCH   9  14
ATOM     14  C   UNL     1      -6.785  -3.346  -1.235  0.00  0.00    +0.129 C 
BRANCH  14  15
ATOM     15  C   UNL     1      -7.691  -4.577  -1.320  0.00  0.00    +0.105 C 
BRANCH  15  16
ATOM     16  N   UNL     1      -9.027  -4.170  -1.776  0.00  0.00    -0.296 NA
ATOM     17  C   UNL     1      -9.691  -3.325  -0.773  0.00  0.00    +0.112 C 
ATOM     18  C   UNL     1     -11.052  -2.876  -1.313  0.00  0.00    +0.175 C 
ATOM     19  O   UNL     1     -11.829  -4.029  -1.649  0.00  0.00    -0.377 OA
ATOM     20  C   UNL     1     -11.212  -4.875  -2.623  0.00  0.00    +0.175 C 
ATOM     21  C   UNL     1      -9.853  -5.343  -2.097  0.00  0.00    +0.112 C 
ENDBRANCH  15  16
ENDBRANCH  14  15
ENDBRANCH   9  14
ENDBRANCH   2   8
BRANCH   1  22
ATOM     22  N   UNL     1      -2.067  -1.044  -0.462  0.00  0.00    -0.307 N 
ATOM     23  H   UNL     1      -2.301  -0.767  -1.362  0.00  0.00    +0.153 HD
BRANCH  22  29
ATOM     24  C   UNL     1      -1.727   1.264   0.166  0.00  0.00    +0.027 A 
ATOM     25  C   UNL     1      -1.369   2.207   1.109  0.00  0.00    +0.048 A 
ATOM     26  C   UNL     1      -0.985   1.807   2.381  0.00  0.00    +0.129 A 
ATOM     27  C   UNL     1      -0.961   0.459   2.707  0.00  0.00    +0.048 A 
ATOM     28  C   UNL     1      -1.320  -0.486   1.766  0.00  0.00    +0.027 A 
ATOM     29  C   UNL     1      -1.704  -0.086   0.492  0.00  0.00    +0.032 A 
BRANCH  26  30
ATOM     30  O   UNL     1      -0.631   2.737   3.307  0.00  0.00    -0.455 OA
BRANCH  30  31
ATOM     31  C   UNL     1      -1.602   3.557   3.791  0.00  0.00    +0.148 A 
ATOM     32  C   UNL     1      -2.923   3.369   3.412  0.00  0.00    +0.067 A 
ATOM     33  C   UNL     1      -3.908   4.204   3.905  0.00  0.00    +0.045 A 
ATOM     34  C   UNL     1      -3.576   5.227   4.776  0.00  0.00    +0.021 A 
ATOM     35  C   UNL     1      -2.261   5.417   5.155  0.00  0.00    +0.025 A 
ATOM     36  C   UNL     1      -1.273   4.581   4.669  0.00  0.00    +0.083 A 
ATOM     37 CL   UNL     1       0.379   4.816   5.150  0.00  0.00    -0.080 Cl
ATOM     38 CL   UNL     1      -5.561   3.970   3.431  0.00  0.00    -0.083 Cl
ENDBRANCH  30  31
ENDBRANCH  26  30
ENDBRANCH  22  29
ENDBRANCH   1  22
TORSDOF 8
