REMARK  Name = CHEMBL31806
REMARK  9 active torsions:
REMARK  status: ('A' for Active; 'I' for Inactive)
REMARK    1  A    between atoms: C_1  and  O_2
REMARK    2  A    between atoms: O_2  and  C_3
REMARK    3  A    between atoms: C_8  and  O_9
REMARK    4  A    between atoms: O_9  and  C_10
REMARK    5  A    between atoms: C_13  and  C_29
REMARK    6  A    between atoms: C_14  and  N_15
REMARK    7  A    between atoms: N_15  and  C_16
REMARK    8  A    between atoms: C_19  and  C_22
REMARK    9  A    between atoms: C_22  and  C_23
REMARK                            x       y       z     vdW  Elec       q    Type
REMARK                         _______ _______ _______ _____ _____    ______ ____
ROOT
ATOM      1  C   UNL     1      -6.262  -0.688   3.289  0.00  0.00    +0.162 A 
ATOM      2  C   UNL     1      -5.793   0.062   2.249  0.00  0.00    +0.061 A 
ATOM      3  C   UNL     1      -5.286  -0.571   1.105  0.00  0.00    +0.026 A 
ATOM      4  C   UNL     1      -5.263  -1.985   1.032  0.00  0.00    +0.077 A 
ATOM      5  C   UNL     1      -5.751  -2.734   2.114  0.00  0.00    +0.077 A 
ATOM      6  C   UNL     1      -6.237  -2.088   3.228  0.00  0.00    +0.164 A 
ATOM      7  N   UNL     1      -4.779  -2.597  -0.059  0.00  0.00    -0.253 NA
ATOM      8  C   UNL     1      -4.317  -1.926  -1.083  0.00  0.00    +0.132 A 
ATOM      9  C   UNL     1      -4.301  -0.522  -1.096  0.00  0.00    +0.091 A 
ATOM     10  C   UNL     1      -4.794   0.181   0.013  0.00  0.00    +0.060 A 
ENDROOT
BRANCH   1  12
ATOM     11  C   UNL     1      -6.750   1.359   4.399  0.00  0.00    +0.277 C 
ATOM     12  O   UNL     1      -6.753  -0.070   4.397  0.00  0.00    -0.491 OA
ENDBRANCH   1  12
BRANCH   6  13
ATOM     13  O   UNL     1      -6.703  -2.815   4.276  0.00  0.00    -0.491 OA
ATOM     14  C   UNL     1      -6.651  -4.237   4.154  0.00  0.00    +0.277 C 
ENDBRANCH   6  13
BRANCH  10  15
ATOM     15  N   UNL     1      -4.797   1.561   0.039  0.00  0.00    -0.313 N 
ATOM     16  H   UNL     1      -4.010   2.042   0.338  0.00  0.00    +0.152 HD
BRANCH  15  17
ATOM     17  C   UNL     1      -5.934   2.265  -0.366  0.00  0.00    +0.031 A 
ATOM     18  C   UNL     1      -7.106   1.581  -0.666  0.00  0.00    +0.023 A 
ATOM     19  C   UNL     1      -8.227   2.280  -1.067  0.00  0.00    +0.006 A 
ATOM     20  C   UNL     1      -8.185   3.659  -1.169  0.00  0.00    -0.043 A 
ATOM     21  C   UNL     1      -7.021   4.342  -0.871  0.00  0.00    +0.006 A 
ATOM     22  C   UNL     1      -5.897   3.650  -0.464  0.00  0.00    +0.023 A 
BRANCH  20  23
ATOM     23  C   UNL     1      -9.412   4.418  -1.607  0.00  0.00    +0.070 C 
BRANCH  23  24
ATOM     24  C   UNL     1     -10.234   4.784  -0.399  0.00  0.00    -0.043 A 
ATOM     25  C   UNL     1     -11.210   3.920   0.061  0.00  0.00    +0.004 A 
ATOM     26  C   UNL     1     -11.964   4.256   1.170  0.00  0.00    +0.000 A 
ATOM     27  C   UNL     1     -11.742   5.456   1.819  0.00  0.00    +0.000 A 
ATOM     28  C   UNL     1     -10.766   6.320   1.360  0.00  0.00    +0.000 A 
ATOM     29  C   UNL     1     -10.009   5.982   0.254  0.00  0.00    +0.004 A 
ENDBRANCH  23  24
ENDBRANCH  20  23
ENDBRANCH  15  17
ENDBRANCH  10  15
BRANCH   9  30
ATOM     30  C   UNL     1      -3.788   0.185  -2.231  0.00  0.00    +0.103 C 
ATOM     31  N   UNL     1      -3.381   0.745  -3.131  0.00  0.00    -0.191 NA
ENDBRANCH   9  30
TORSDOF 7
