REMARK  Name = CHEMBL202385
REMARK  10 active torsions:
REMARK  status: ('A' for Active; 'I' for Inactive)
REMARK    1  A    between atoms: C_1  and  C_2
REMARK    2  A    between atoms: C_2  and  O_3
REMARK    3  A    between atoms: O_3  and  C_4
REMARK    4  A    between atoms: C_4  and  C_6
REMARK    5  A    between atoms: C_10  and  C_11
REMARK    6  A    between atoms: C_12  and  N_18
REMARK    7  A    between atoms: C_13  and  C_16
REMARK    8  A    between atoms: N_18  and  C_19
REMARK    9  A    between atoms: C_22  and  C_25
REMARK   10  A    between atoms: C_25  and  C_26
REMARK                            x       y       z     vdW  Elec       q    Type
REMARK                         _______ _______ _______ _____ _____    ______ ____
ROOT
ATOM      1  C   UNL     1       1.992  -2.554  -2.260  0.00  0.00    +0.082 A 
ATOM      2  C   UNL     1       2.647  -1.830  -3.242  0.00  0.00    +0.128 A 
ATOM      3  N   UNL     1       3.023  -2.670  -4.224  0.00  0.00    -0.237 N 
ATOM      4  C   UNL     1       2.619  -3.949  -3.896  0.00  0.00    +0.091 A 
ATOM      5  C   UNL     1       1.980  -3.902  -2.674  0.00  0.00    -0.008 A 
ATOM      6  C   UNL     1       1.381  -5.066  -1.928  0.00  0.00    +0.047 C 
ATOM      7  C   UNL     1       2.903  -5.017  -4.780  0.00  0.00    +0.076 A 
ATOM      8  C   UNL     1       3.590  -4.739  -5.968  0.00  0.00    +0.095 A 
ATOM      9  C   UNL     1       3.978  -3.408  -6.250  0.00  0.00    +0.154 A 
ATOM     10  N   UNL     1       3.708  -2.440  -5.425  0.00  0.00    -0.173 NA
ENDROOT
BRANCH   1  11
ATOM     11  C   UNL     1       1.420  -2.018  -1.013  0.00  0.00    +0.341 C 
ATOM     12  O   UNL     1       0.872  -2.764  -0.225  0.00  0.00    -0.245 OA
BRANCH  11  13
ATOM     13  O   UNL     1       1.505  -0.700  -0.745  0.00  0.00    -0.461 OA
BRANCH  13  15
ATOM     14  C   UNL     1       1.122   1.263   0.611  0.00  0.00    +0.048 C 
ATOM     15  C   UNL     1       0.929  -0.249   0.483  0.00  0.00    +0.229 C 
ENDBRANCH  13  15
ENDBRANCH  11  13
ENDBRANCH   1  11
BRANCH   8  16
ATOM     16  C   UNL     1       3.896  -5.792  -6.889  0.00  0.00    +0.103 C 
ATOM     17  N   UNL     1       4.139  -6.627  -7.620  0.00  0.00    -0.191 NA
ENDBRANCH   8  16
BRANCH   7  18
ATOM     18  N   UNL     1       2.512  -6.305  -4.478  0.00  0.00    -0.312 N 
ATOM     19  H   UNL     1       3.180  -6.993  -4.330  0.00  0.00    +0.152 HD
BRANCH  18  20
ATOM     20  C   UNL     1       1.154  -6.619  -4.383  0.00  0.00    +0.031 A 
ATOM     21  C   UNL     1       0.196  -5.687  -4.761  0.00  0.00    +0.023 A 
ATOM     22  C   UNL     1      -1.146  -6.000  -4.667  0.00  0.00    +0.006 A 
ATOM     23  C   UNL     1      -1.536  -7.241  -4.197  0.00  0.00    -0.043 A 
ATOM     24  C   UNL     1      -0.585  -8.171  -3.819  0.00  0.00    +0.006 A 
ATOM     25  C   UNL     1       0.758  -7.866  -3.916  0.00  0.00    +0.023 A 
BRANCH  23  26
ATOM     26  C   UNL     1      -3.001  -7.579  -4.095  0.00  0.00    +0.070 C 
BRANCH  26  27
ATOM     27  C   UNL     1      -3.464  -8.203  -5.386  0.00  0.00    -0.043 A 
ATOM     28  C   UNL     1      -3.950  -7.403  -6.404  0.00  0.00    +0.004 A 
ATOM     29  C   UNL     1      -4.375  -7.975  -7.589  0.00  0.00    +0.000 A 
ATOM     30  C   UNL     1      -4.312  -9.346  -7.756  0.00  0.00    +0.000 A 
ATOM     31  C   UNL     1      -3.824 -10.145  -6.739  0.00  0.00    +0.000 A 
ATOM     32  C   UNL     1      -3.396  -9.573  -5.556  0.00  0.00    +0.004 A 
ENDBRANCH  26  27
ENDBRANCH  23  26
ENDBRANCH  18  20
ENDBRANCH   7  18
TORSDOF 8
