REMARK  Name = CHEMBL435734
REMARK  11 active torsions:
REMARK  status: ('A' for Active; 'I' for Inactive)
REMARK    1  A    between atoms: C_1  and  O_2
REMARK    2  A    between atoms: O_2  and  C_3
REMARK    3  A    between atoms: C_6  and  C_11
REMARK    4  A    between atoms: C_8  and  O_9
REMARK    5  A    between atoms: O_9  and  C_10
REMARK    6  A    between atoms: C_11  and  C_12
REMARK    7  A    between atoms: C_18  and  C_20
REMARK    8  A    between atoms: C_20  and  C_21
REMARK    9  A    between atoms: C_24  and  O_29
REMARK   10  A    between atoms: C_25  and  O_27
REMARK   11  A    between atoms: O_27  and  C_28
REMARK                            x       y       z     vdW  Elec       q    Type
REMARK                         _______ _______ _______ _____ _____    ______ ____
ROOT
ATOM      1  C   UNL     1      -5.449  -2.862  -1.404  0.00  0.00    +0.045 C 
ATOM      2  C   UNL     1      -4.558  -3.918  -2.103  0.00  0.00    +0.236 C 
ATOM      3  O   UNL     1      -5.491  -4.693  -2.887  0.00  0.00    -0.464 OA
ATOM      4  C   UNL     1      -6.589  -4.868  -2.112  0.00  0.00    +0.311 C 
ATOM      5  O   UNL     1      -7.234  -5.882  -1.986  0.00  0.00    -0.251 OA
ATOM      6  C   UNL     1      -6.846  -3.527  -1.432  0.00  0.00    +0.109 C 
ENDROOT
BRANCH   1   7
ATOM      7  C   UNL     1      -4.987  -2.627   0.035  0.00  0.00    +0.043 C 
BRANCH   7  11
ATOM      8  C   UNL     1      -1.201  -0.638   0.010  0.00  0.00    +0.161 A 
ATOM      9  C   UNL     1      -2.374   0.099   0.019  0.00  0.00    +0.049 A 
ATOM     10  C   UNL     1      -3.596  -0.546   0.027  0.00  0.00    +0.007 A 
ATOM     11  C   UNL     1      -3.652  -1.928   0.026  0.00  0.00    -0.043 A 
ATOM     12  C   UNL     1      -2.485  -2.669   0.017  0.00  0.00    +0.053 A 
ATOM     13  C   UNL     1      -1.257  -2.028   0.003  0.00  0.00    +0.162 A 
BRANCH   8  15
ATOM     14  C   UNL     1      -0.017   1.425   0.010  0.00  0.00    +0.277 C 
ATOM     15  O   UNL     1       0.002  -0.004   0.002  0.00  0.00    -0.491 OA
ENDBRANCH   8  15
BRANCH  13  16
ATOM     16  O   UNL     1      -0.108  -2.756  -0.012  0.00  0.00    -0.491 OA
ATOM     17  C   UNL     1      -0.242  -4.179  -0.018  0.00  0.00    +0.277 C 
ENDBRANCH  13  16
ENDBRANCH   7  11
ENDBRANCH   1   7
BRANCH   6  18
ATOM     18  C   UNL     1      -7.827  -2.685  -2.250  0.00  0.00    +0.050 C 
BRANCH  18  19
ATOM     19  C   UNL     1      -9.205  -3.288  -2.159  0.00  0.00    -0.043 A 
ATOM     20  C   UNL     1      -9.604  -4.239  -3.079  0.00  0.00    +0.007 A 
ATOM     21  C   UNL     1     -10.867  -4.796  -3.000  0.00  0.00    +0.049 A 
ATOM     22  C   UNL     1     -11.736  -4.401  -1.996  0.00  0.00    +0.158 A 
ATOM     23  C   UNL     1     -11.334  -3.444  -1.069  0.00  0.00    +0.162 A 
ATOM     24  C   UNL     1     -10.065  -2.894  -1.151  0.00  0.00    +0.053 A 
BRANCH  23  25
ATOM     25  O   UNL     1     -12.184  -3.053  -0.081  0.00  0.00    -0.491 OA
ATOM     26  C   UNL     1     -11.704  -2.067   0.835  0.00  0.00    +0.277 C 
ENDBRANCH  23  25
BRANCH  22  27
ATOM     27  O   UNL     1     -12.979  -4.947  -1.917  0.00  0.00    -0.503 OA
ATOM     28  H   UNL     1     -13.024  -5.744  -1.371  0.00  0.00    +0.292 HD
ENDBRANCH  22  27
ENDBRANCH  18  19
ENDBRANCH   6  18
TORSDOF 8
