REMARK  Name = CHEMBL37646
REMARK  8 active torsions:
REMARK  status: ('A' for Active; 'I' for Inactive)
REMARK    1  A    between atoms: C_4  and  O_7
REMARK    2  A    between atoms: O_7  and  C_8
REMARK    3  A    between atoms: C_11  and  C_14
REMARK    4  A    between atoms: C_14  and  C_25
REMARK    5  A    between atoms: C_15  and  N_16
REMARK    6  A    between atoms: C_15  and  S_17
REMARK    7  A    between atoms: S_17  and  C_18
REMARK    8  A    between atoms: C_23  and  N_24
REMARK                            x       y       z     vdW  Elec       q    Type
REMARK                         _______ _______ _______ _____ _____    ______ ____
ROOT
ATOM      1  C   UNL     1       3.959  -6.204   0.045  0.00  0.00    +0.086 C 
ATOM      2  C   UNL     1       4.466  -6.919  -1.030  0.00  0.00    +0.082 C 
ENDROOT
BRANCH   1   6
ATOM      3  C   UNL     1       3.724  -1.963  -0.142  0.00  0.00    +0.128 A 
ATOM      4  C   UNL     1       2.562  -2.718  -0.068  0.00  0.00    +0.047 A 
ATOM      5  C   UNL     1       2.634  -4.094  -0.007  0.00  0.00    +0.013 A 
ATOM      6  C   UNL     1       3.877  -4.727  -0.021  0.00  0.00    -0.005 A 
ATOM      7  C   UNL     1       5.043  -3.965  -0.096  0.00  0.00    +0.013 A 
ATOM      8  C   UNL     1       4.963  -2.589  -0.162  0.00  0.00    +0.047 A 
BRANCH   3   9
ATOM      9  O   UNL     1       3.650  -0.607  -0.202  0.00  0.00    -0.456 OA
BRANCH   9  13
ATOM     10  C   UNL     1       2.904   1.446   3.298  0.00  0.00    +0.000 A 
ATOM     11  C   UNL     1       2.905   0.064   3.296  0.00  0.00    +0.004 A 
ATOM     12  C   UNL     1       3.154  -0.626   2.126  0.00  0.00    +0.046 A 
ATOM     13  C   UNL     1       3.404   0.070   0.951  0.00  0.00    +0.128 A 
ATOM     14  C   UNL     1       3.402   1.457   0.956  0.00  0.00    +0.046 A 
ATOM     15  C   UNL     1       3.152   2.142   2.129  0.00  0.00    +0.004 A 
ENDBRANCH   9  13
ENDBRANCH   3   9
ENDBRANCH   1   6
BRANCH   2  16
ATOM     16  N   UNL     1       4.893  -6.257  -2.155  0.00  0.00    -0.352 N 
ATOM     17  H   UNL     1       4.906  -5.288  -2.171  0.00  0.00    +0.143 HD
ATOM     18  H   UNL     1       5.180  -6.760  -2.933  0.00  0.00    +0.143 HD
ENDBRANCH   2  16
BRANCH   1  19
ATOM     19  C   UNL     1       3.514  -6.895   1.218  0.00  0.00    +0.102 C 
ATOM     20  N   UNL     1       3.161  -7.442   2.148  0.00  0.00    -0.191 NA
ENDBRANCH   1  19
BRANCH   2  21
ATOM     21  S   UNL     1       4.563  -8.677  -0.952  0.00  0.00    -0.072 S 
BRANCH  21  22
ATOM     22  C   UNL     1       6.292  -9.012  -1.028  0.00  0.00    +0.035 A 
ATOM     23  C   UNL     1       7.205  -7.969  -0.987  0.00  0.00    +0.017 A 
ATOM     24  C   UNL     1       8.560  -8.234  -1.046  0.00  0.00    +0.001 A 
ATOM     25  C   UNL     1       9.010  -9.538  -1.146  0.00  0.00    +0.002 A 
ATOM     26  C   UNL     1       8.107 -10.584  -1.187  0.00  0.00    +0.024 A 
ATOM     27  C   UNL     1       6.746 -10.328  -1.123  0.00  0.00    +0.039 A 
BRANCH  27  28
ATOM     28  N   UNL     1       5.830 -11.385  -1.159  0.00  0.00    -0.357 N 
ATOM     29  H   UNL     1       4.878 -11.204  -1.118  0.00  0.00    +0.142 HD
ATOM     30  H   UNL     1       6.147 -12.299  -1.226  0.00  0.00    +0.142 HD
ENDBRANCH  27  28
ENDBRANCH  21  22
ENDBRANCH   2  21
TORSDOF 8
