REMARK  Name = CHEMBL37548
REMARK  8 active torsions:
REMARK  status: ('A' for Active; 'I' for Inactive)
REMARK    1  A    between atoms: C_4  and  C_7
REMARK    2  A    between atoms: C_7  and  C_9
REMARK    3  A    between atoms: C_12  and  C_15
REMARK    4  A    between atoms: C_15  and  C_26
REMARK    5  A    between atoms: C_16  and  N_17
REMARK    6  A    between atoms: C_16  and  S_18
REMARK    7  A    between atoms: S_18  and  C_19
REMARK    8  A    between atoms: C_24  and  N_25
REMARK                            x       y       z     vdW  Elec       q    Type
REMARK                         _______ _______ _______ _____ _____    ______ ____
ROOT
ATOM      1  C   UNL     1       3.882  -6.354   0.243  0.00  0.00    +0.086 C 
ATOM      2  C   UNL     1       4.583  -7.075  -0.718  0.00  0.00    +0.082 C 
ENDROOT
BRANCH   1   6
ATOM      3  C   UNL     1       3.321  -2.179  -0.230  0.00  0.00    +0.022 A 
ATOM      4  C   UNL     1       2.217  -3.042  -0.253  0.00  0.00    +0.012 A 
ATOM      5  C   UNL     1       2.398  -4.385  -0.102  0.00  0.00    +0.010 A 
ATOM      6  C   UNL     1       3.687  -4.902   0.078  0.00  0.00    -0.005 A 
ATOM      7  C   UNL     1       4.790  -4.040   0.102  0.00  0.00    +0.010 A 
ATOM      8  C   UNL     1       4.610  -2.697  -0.056  0.00  0.00    +0.012 A 
BRANCH   3   9
ATOM      9  C   UNL     1       3.126  -0.729  -0.394  0.00  0.00    +0.193 C 
ATOM     10  O   UNL     1       4.030  -0.039  -0.824  0.00  0.00    -0.287 OA
BRANCH   9  14
ATOM     11  C   UNL     1      -0.595   1.043   0.634  0.00  0.00    +0.000 A 
ATOM     12  C   UNL     1       0.269   1.703  -0.222  0.00  0.00    +0.001 A 
ATOM     13  C   UNL     1       1.479   1.133  -0.560  0.00  0.00    +0.012 A 
ATOM     14  C   UNL     1       1.831  -0.112  -0.036  0.00  0.00    +0.022 A 
ATOM     15  C   UNL     1       0.955  -0.772   0.828  0.00  0.00    +0.012 A 
ATOM     16  C   UNL     1      -0.252  -0.191   1.157  0.00  0.00    +0.001 A 
ENDBRANCH   9  14
ENDBRANCH   3   9
ENDBRANCH   1   6
BRANCH   2  17
ATOM     17  N   UNL     1       4.765  -8.425  -0.565  0.00  0.00    -0.352 N 
ATOM     18  H   UNL     1       4.338  -8.891   0.171  0.00  0.00    +0.143 HD
ATOM     19  H   UNL     1       5.320  -8.914  -1.192  0.00  0.00    +0.143 HD
ENDBRANCH   2  17
BRANCH   1  20
ATOM     20  C   UNL     1       3.349  -7.022   1.392  0.00  0.00    +0.102 C 
ATOM     21  N   UNL     1       2.926  -7.552   2.304  0.00  0.00    -0.191 NA
ENDBRANCH   1  20
BRANCH   2  22
ATOM     22  S   UNL     1       5.239  -6.253  -2.132  0.00  0.00    -0.072 S 
BRANCH  22  23
ATOM     23  C   UNL     1       4.316  -6.918  -3.478  0.00  0.00    +0.035 A 
ATOM     24  C   UNL     1       3.282  -7.811  -3.238  0.00  0.00    +0.017 A 
ATOM     25  C   UNL     1       2.558  -8.331  -4.295  0.00  0.00    +0.001 A 
ATOM     26  C   UNL     1       2.862  -7.963  -5.593  0.00  0.00    +0.002 A 
ATOM     27  C   UNL     1       3.890  -7.073  -5.842  0.00  0.00    +0.024 A 
ATOM     28  C   UNL     1       4.618  -6.542  -4.787  0.00  0.00    +0.039 A 
BRANCH  28  29
ATOM     29  N   UNL     1       5.656  -5.638  -5.035  0.00  0.00    -0.357 N 
ATOM     30  H   UNL     1       6.166  -5.271  -4.297  0.00  0.00    +0.142 HD
ATOM     31  H   UNL     1       5.865  -5.378  -5.946  0.00  0.00    +0.142 HD
ENDBRANCH  28  29
ENDBRANCH  22  23
ENDBRANCH   2  22
TORSDOF 8
