REMARK  Name = CHEMBL404939
REMARK  1 active torsions:
REMARK  status: ('A' for Active; 'I' for Inactive)
REMARK    1  A    between atoms: C_9  and  N_14
REMARK                            x       y       z     vdW  Elec       q    Type
REMARK                         _______ _______ _______ _____ _____    ______ ____
ROOT
ATOM      1  C   UNL     1       0.036   1.381   0.494  0.00  0.00    +0.001 A 
ATOM      2  C   UNL     1       1.192   2.097   0.249  0.00  0.00    +0.001 A 
ATOM      3  C   UNL     1       2.386   1.439  -0.003  0.00  0.00    +0.012 A 
ATOM      4  C   UNL     1       2.422   0.051  -0.009  0.00  0.00    +0.034 A 
ATOM      5  C   UNL     1       1.246  -0.678   0.241  0.00  0.00    +0.034 A 
ATOM      6  C   UNL     1       0.056  -0.005   0.491  0.00  0.00    +0.012 A 
ATOM      7  C   UNL     1       1.292  -2.156   0.233  0.00  0.00    +0.210 C 
ATOM      8  O   UNL     1       0.285  -2.800   0.446  0.00  0.00    -0.285 OA
ATOM      9  C   UNL     1       2.573  -2.847  -0.037  0.00  0.00    +0.113 C 
ATOM     10  C   UNL     1       3.700  -2.142  -0.276  0.00  0.00    +0.114 C 
ATOM     11  C   UNL     1       3.685  -0.673  -0.275  0.00  0.00    +0.207 C 
ATOM     12  O   UNL     1       4.708  -0.054  -0.493  0.00  0.00    -0.286 OA
ATOM     13 CL   UNL     1       5.186  -2.983  -0.588  0.00  0.00    -0.077 Cl
ENDROOT
BRANCH   9  14
ATOM     14  N   UNL     1       2.617  -4.237  -0.044  0.00  0.00    -0.205 N 
ATOM     15  C   UNL     1       3.289  -4.946   0.871  0.00  0.00    +0.227 C 
ATOM     16  O   UNL     1       3.923  -4.479   1.793  0.00  0.00    -0.275 OA
ATOM     17  C   UNL     1       3.131  -6.421   0.574  0.00  0.00    +0.106 C 
ATOM     18  C   UNL     1       2.241  -6.442  -0.686  0.00  0.00    +0.106 C 
ATOM     19  C   UNL     1       1.986  -4.977  -0.964  0.00  0.00    +0.227 C 
ATOM     20  O   UNL     1       1.317  -4.542  -1.877  0.00  0.00    -0.275 OA
ENDBRANCH   9  14
TORSDOF 1
