REMARK  Name = CHEMBL31149
REMARK  12 active torsions:
REMARK  status: ('A' for Active; 'I' for Inactive)
REMARK    1  A    between atoms: C_1  and  O_2
REMARK    2  A    between atoms: O_2  and  C_3
REMARK    3  A    between atoms: C_8  and  O_9
REMARK    4  A    between atoms: O_9  and  C_10
REMARK    5  A    between atoms: C_10  and  C_11
REMARK    6  A    between atoms: C_11  and  C_12
REMARK    7  A    between atoms: C_12  and  N_13
REMARK    8  A    between atoms: C_21  and  C_37
REMARK    9  A    between atoms: C_22  and  N_23
REMARK   10  A    between atoms: N_23  and  C_24
REMARK   11  A    between atoms: C_27  and  O_30
REMARK   12  A    between atoms: O_30  and  C_31
REMARK                            x       y       z     vdW  Elec       q    Type
REMARK                         _______ _______ _______ _____ _____    ______ ____
ROOT
ATOM      1  C   UNL     1      -4.756  -0.310   4.643  0.00  0.00    +0.162 A 
ATOM      2  C   UNL     1      -4.718   0.366   3.457  0.00  0.00    +0.061 A 
ATOM      3  C   UNL     1      -4.639  -0.346   2.251  0.00  0.00    +0.026 A 
ATOM      4  C   UNL     1      -4.599  -1.761   2.267  0.00  0.00    +0.077 A 
ATOM      5  C   UNL     1      -4.640  -2.433   3.498  0.00  0.00    +0.077 A 
ATOM      6  C   UNL     1      -4.711  -1.711   4.668  0.00  0.00    +0.164 A 
ATOM      7  N   UNL     1      -4.523  -2.447   1.117  0.00  0.00    -0.253 NA
ATOM      8  C   UNL     1      -4.483  -1.849  -0.046  0.00  0.00    +0.132 A 
ATOM      9  C   UNL     1      -4.519  -0.450  -0.156  0.00  0.00    +0.091 A 
ATOM     10  C   UNL     1      -4.598   0.328   1.008  0.00  0.00    +0.060 A 
ENDROOT
BRANCH   1  12
ATOM     11  C   UNL     1      -4.874   1.808   5.718  0.00  0.00    +0.277 C 
ATOM     12  O   UNL     1      -4.832   0.383   5.811  0.00  0.00    -0.491 OA
ENDBRANCH   1  12
BRANCH  10  13
ATOM     13  N   UNL     1      -4.636   1.707   0.944  0.00  0.00    -0.313 N 
ATOM     14  H   UNL     1      -3.809   2.213   0.905  0.00  0.00    +0.152 HD
BRANCH  13  15
ATOM     15  C   UNL     1      -5.866   2.374   0.934  0.00  0.00    +0.032 A 
ATOM     16  C   UNL     1      -7.043   1.663   1.124  0.00  0.00    +0.027 A 
ATOM     17  C   UNL     1      -8.257   2.322   1.115  0.00  0.00    +0.047 A 
ATOM     18  C   UNL     1      -8.300   3.694   0.916  0.00  0.00    +0.121 A 
ATOM     19  C   UNL     1      -7.124   4.405   0.725  0.00  0.00    +0.047 A 
ATOM     20  C   UNL     1      -5.909   3.748   0.740  0.00  0.00    +0.027 A 
BRANCH  18  21
ATOM     21  O   UNL     1      -9.495   4.342   0.907  0.00  0.00    -0.489 OA
BRANCH  21  22
ATOM     22  C   UNL     1      -9.466   5.752   0.675  0.00  0.00    +0.173 C 
ATOM     23  C   UNL     1      -9.196   6.481   1.993  0.00  0.00    +0.044 C 
ATOM     24  C   UNL     1      -9.165   7.990   1.744  0.00  0.00    +0.004 C 
ATOM     25  C   UNL     1     -10.514   8.441   1.180  0.00  0.00    +0.000 C 
ATOM     26  C   UNL     1     -10.785   7.713  -0.138  0.00  0.00    +0.004 C 
ATOM     27  C   UNL     1     -10.815   6.203   0.111  0.00  0.00    +0.044 C 
ENDBRANCH  21  22
ENDBRANCH  18  21
ENDBRANCH  13  15
ENDBRANCH  10  13
BRANCH   9  28
ATOM     28  C   UNL     1      -4.473   0.176  -1.443  0.00  0.00    +0.103 C 
ATOM     29  N   UNL     1      -4.437   0.673  -2.464  0.00  0.00    -0.191 NA
ENDBRANCH   9  28
BRANCH   6  30
ATOM     30  O   UNL     1      -4.744  -2.363   5.859  0.00  0.00    -0.488 OA
BRANCH  30  31
ATOM     31  C   UNL     1      -4.696  -3.791   5.819  0.00  0.00    +0.227 C 
BRANCH  31  32
ATOM     32  C   UNL     1      -4.743  -4.343   7.244  0.00  0.00    +0.022 C 
BRANCH  32  33
ATOM     33  C   UNL     1      -4.691  -5.872   7.201  0.00  0.00    -0.075 C 
BRANCH  33  34
ATOM     34  N   UNL     1      -4.736  -6.402   8.570  0.00  0.00    +0.383 N 
ATOM     35  C   UNL     1      -3.524  -5.994   9.294  0.00  0.00    -0.050 C 
ATOM     36  C   UNL     1      -3.574  -6.547  10.720  0.00  0.00    +0.141 C 
ATOM     37  O   UNL     1      -3.700  -7.971  10.669  0.00  0.00    -0.383 OA
ATOM     38  C   UNL     1      -4.854  -8.419   9.953  0.00  0.00    +0.141 C 
ATOM     39  C   UNL     1      -4.807  -7.869   8.525  0.00  0.00    -0.050 C 
ATOM     40  H   UNL     1      -5.550  -6.040   9.044  0.00  0.00    -0.082 HD
ENDBRANCH  33  34
ENDBRANCH  32  33
ENDBRANCH  31  32
ENDBRANCH  30  31
ENDBRANCH   6  30
TORSDOF 11
