REMARK  Name = CHEMBL282361
REMARK  12 active torsions:
REMARK  status: ('A' for Active; 'I' for Inactive)
REMARK    1  A    between atoms: C_1  and  O_2
REMARK    2  A    between atoms: O_2  and  C_3
REMARK    3  A    between atoms: C_8  and  O_9
REMARK    4  A    between atoms: O_9  and  C_10
REMARK    5  A    between atoms: C_10  and  C_11
REMARK    6  A    between atoms: C_11  and  C_12
REMARK    7  A    between atoms: C_12  and  N_13
REMARK    8  A    between atoms: C_21  and  C_37
REMARK    9  A    between atoms: C_22  and  N_23
REMARK   10  A    between atoms: N_23  and  C_24
REMARK   11  A    between atoms: C_27  and  S_30
REMARK   12  A    between atoms: S_30  and  C_31
REMARK                            x       y       z     vdW  Elec       q    Type
REMARK                         _______ _______ _______ _____ _____    ______ ____
ROOT
ATOM      1  C   UNL     1      -0.770  -0.854  -5.990  0.00  0.00    +0.162 A 
ATOM      2  C   UNL     1       0.228  -0.094  -5.451  0.00  0.00    +0.061 A 
ATOM      3  C   UNL     1       1.388  -0.711  -4.960  0.00  0.00    +0.026 A 
ATOM      4  C   UNL     1       1.521  -2.119  -5.025  0.00  0.00    +0.077 A 
ATOM      5  C   UNL     1       0.482  -2.879  -5.584  0.00  0.00    +0.077 A 
ATOM      6  C   UNL     1      -0.649  -2.249  -6.053  0.00  0.00    +0.164 A 
ATOM      7  N   UNL     1       2.627  -2.716  -4.557  0.00  0.00    -0.253 NA
ATOM      8  C   UNL     1       3.612  -2.034  -4.030  0.00  0.00    +0.132 A 
ATOM      9  C   UNL     1       3.566  -0.635  -3.925  0.00  0.00    +0.091 A 
ATOM     10  C   UNL     1       2.437   0.052  -4.396  0.00  0.00    +0.060 A 
ENDROOT
BRANCH   1  12
ATOM     11  C   UNL     1      -1.956   1.172  -6.371  0.00  0.00    +0.277 C 
ATOM     12  O   UNL     1      -1.893  -0.253  -6.464  0.00  0.00    -0.491 OA
ENDBRANCH   1  12
BRANCH  10  13
ATOM     13  N   UNL     1       2.353   1.427  -4.312  0.00  0.00    -0.313 N 
ATOM     14  H   UNL     1       2.022   1.844  -3.501  0.00  0.00    +0.152 HD
BRANCH  13  15
ATOM     15  C   UNL     1       2.744   2.220  -5.397  0.00  0.00    +0.031 A 
ATOM     16  C   UNL     1       3.096   1.624  -6.602  0.00  0.00    +0.024 A 
ATOM     17  C   UNL     1       3.482   2.406  -7.672  0.00  0.00    +0.016 A 
ATOM     18  C   UNL     1       3.518   3.789  -7.545  0.00  0.00    +0.008 A 
ATOM     19  C   UNL     1       3.166   4.385  -6.340  0.00  0.00    +0.016 A 
ATOM     20  C   UNL     1       2.775   3.603  -5.271  0.00  0.00    +0.024 A 
BRANCH  18  21
ATOM     21  S   UNL     1       4.011   4.787  -8.910  0.00  0.00    -0.122 S 
BRANCH  21  22
ATOM     22  C   UNL     1       2.446   5.266  -9.692  0.00  0.00    +0.051 C 
ATOM     23  C   UNL     1       1.775   4.028 -10.291  0.00  0.00    +0.014 C 
ATOM     24  C   UNL     1       0.455   4.432 -10.950  0.00  0.00    +0.001 C 
ATOM     25  C   UNL     1       0.729   5.450 -12.059  0.00  0.00    +0.000 C 
ATOM     26  C   UNL     1       1.400   6.688 -11.460  0.00  0.00    +0.001 C 
ATOM     27  C   UNL     1       2.720   6.284 -10.800  0.00  0.00    +0.014 C 
ENDBRANCH  21  22
ENDBRANCH  18  21
ENDBRANCH  13  15
ENDBRANCH  10  13
BRANCH   9  28
ATOM     28  C   UNL     1       4.659   0.084  -3.343  0.00  0.00    +0.103 C 
ATOM     29  N   UNL     1       5.527   0.653  -2.881  0.00  0.00    -0.191 NA
ENDBRANCH   9  28
BRANCH   6  30
ATOM     30  O   UNL     1      -1.656  -2.987  -6.588  0.00  0.00    -0.488 OA
BRANCH  30  31
ATOM     31  C   UNL     1      -1.473  -4.404  -6.625  0.00  0.00    +0.230 C 
BRANCH  31  32
ATOM     32  C   UNL     1      -2.702  -5.061  -7.257  0.00  0.00    +0.056 C 
BRANCH  32  33
ATOM     33  C   UNL     1      -2.507  -6.577  -7.296  0.00  0.00    +0.088 C 
BRANCH  33  34
ATOM     34  N   UNL     1      -3.687  -7.208  -7.903  0.00  0.00    -0.298 NA
ATOM     35  C   UNL     1      -4.872  -7.036  -7.051  0.00  0.00    +0.112 C 
ATOM     36  C   UNL     1      -6.088  -7.654  -7.748  0.00  0.00    +0.175 C 
ATOM     37  O   UNL     1      -5.820  -9.030  -8.032  0.00  0.00    -0.377 OA
ATOM     38  C   UNL     1      -4.672  -9.234  -8.860  0.00  0.00    +0.175 C 
ATOM     39  C   UNL     1      -3.442  -8.632  -8.175  0.00  0.00    +0.112 C 
ENDBRANCH  33  34
ENDBRANCH  32  33
ENDBRANCH  31  32
ENDBRANCH  30  31
ENDBRANCH   6  30
TORSDOF 11
