REMARK  Name = CHEMBL386230
REMARK  9 active torsions:
REMARK  status: ('A' for Active; 'I' for Inactive)
REMARK    1  A    between atoms: CB_1  and  CA_2
REMARK    2  A    between atoms: CA_2  and  C_3
REMARK    3  A    between atoms: CA_2  and  N_5
REMARK    4  A    between atoms: C_3  and  O_4
REMARK    5  A    between atoms: C_6  and  C_7
REMARK    6  A    between atoms: C_11  and  N_12
REMARK    7  A    between atoms: N_12  and  C_13
REMARK    8  A    between atoms: C_16  and  S_19
REMARK    9  A    between atoms: S_19  and  C_20
REMARK                            x       y       z     vdW  Elec       q    Type
REMARK                         _______ _______ _______ _____ _____    ______ ____
ROOT
ATOM      1  C   UNK A   0       2.863  -2.139   2.329  0.00  0.00    +0.106 A 
ATOM      2  C   UNK A   0       2.009  -2.124   3.431  0.00  0.00    +0.268 A 
ATOM      3  N   UNK A   0       2.411  -1.395   4.489  0.00  0.00    -0.291 N 
ATOM      4  S   UNK A   0       3.882  -0.749   4.030  0.00  0.00    +0.005 S 
ATOM      5  C   UNK A   0       4.032  -1.389   2.487  0.00  0.00    +0.102 A 
ATOM      6  O   UNK A   0       0.954  -2.738   3.436  0.00  0.00    -0.267 OA
ATOM      7  H   UNK A   0       1.948  -1.272   5.333  0.00  0.00    +0.177 HD
ENDROOT
BRANCH   1   9
ATOM      8  N   ALA A   1       1.509  -3.666   1.051  0.00  0.00    -0.368 N 
ATOM      9  C   UNK A   0       2.560  -2.889   1.101  0.00  0.00    +0.105 C 
ATOM     10  N   UNK A   0       3.385  -2.773   0.001  0.00  0.00    -0.344 N 
ATOM     11  H   UNK A   0       3.141  -3.199  -0.835  0.00  0.00    +0.144 HD
ATOM     12  H   UNK A   0       4.210  -2.266   0.065  0.00  0.00    +0.144 HD
ATOM     13  H   ALA A   1       0.929  -3.747   1.824  0.00  0.00    +0.161 HD
BRANCH   8  15
ATOM     14  CB  ALA A   1       0.414  -3.523  -1.131  0.00  0.00    +0.032 C 
ATOM     15  CA  ALA A   1       1.208  -4.413  -0.172  0.00  0.00    +0.103 C 
BRANCH  15  16
ATOM     16  C   ALA A   1       0.381  -5.652   0.177  0.00  0.00    +0.180 C 
BRANCH  16  17
ATOM     17  O   ALA A   1      -0.888  -5.246   0.695  0.00  0.00    -0.393 OA
ATOM     18  H   ALA A   1      -1.467  -5.982   0.938  0.00  0.00    +0.209 HD
ENDBRANCH  16  17
ENDBRANCH  15  16
ENDBRANCH   8  15
ENDBRANCH   1   9
BRANCH   5  19
ATOM     19  N   UNK A   0       5.059  -1.216   1.590  0.00  0.00    -0.307 N 
ATOM     20  H   UNK A   0       4.880  -0.839   0.714  0.00  0.00    +0.153 HD
BRANCH  19  21
ATOM     21  C   UNK A   0       6.364  -1.581   1.941  0.00  0.00    +0.032 A 
ATOM     22  C   UNK A   0       6.634  -2.052   3.220  0.00  0.00    +0.024 A 
ATOM     23  C   UNK A   0       7.920  -2.413   3.566  0.00  0.00    +0.017 A 
ATOM     24  C   UNK A   0       8.946  -2.306   2.635  0.00  0.00    +0.013 A 
ATOM     25  C   UNK A   0       8.676  -1.835   1.355  0.00  0.00    +0.017 A 
ATOM     26  C   UNK A   0       7.389  -1.479   1.008  0.00  0.00    +0.024 A 
BRANCH  24  27
ATOM     27  S   UNK A   0      10.589  -2.766   3.076  0.00  0.00    -0.089 S 
BRANCH  27  28
ATOM     28  C   UNK A   0      10.424  -3.425   4.702  0.00  0.00    +0.013 A 
ATOM     29  C   UNK A   0      10.278  -4.795   4.887  0.00  0.00    +0.015 A 
ATOM     30  C   UNK A   0      10.150  -5.308   6.162  0.00  0.00    +0.001 A 
ATOM     31  C   UNK A   0      10.167  -4.461   7.255  0.00  0.00    +0.000 A 
ATOM     32  C   UNK A   0      10.312  -3.097   7.075  0.00  0.00    +0.001 A 
ATOM     33  C   UNK A   0      10.446  -2.577   5.803  0.00  0.00    +0.015 A 
ENDBRANCH  27  28
ENDBRANCH  24  27
ENDBRANCH  19  21
ENDBRANCH   5  19
TORSDOF 8
