REMARK  Name = CHEMBL361708
REMARK  0 active torsions:
REMARK  status: ('A' for Active; 'I' for Inactive)
REMARK                            x       y       z     vdW  Elec       q    Type
REMARK                         _______ _______ _______ _____ _____    ______ ____
ROOT
ATOM      1  C   UNL     1      -0.016   1.352   0.009  0.00  0.00    +0.043 A 
ATOM      2  C   UNL     1       1.315   1.790  -0.001  0.00  0.00    +0.011 A 
ATOM      3  C   UNL     1       2.117   0.638  -0.054  0.00  0.00    +0.110 A 
ATOM      4  N   UNL     1       1.294  -0.440  -0.018  0.00  0.00    -0.345 N 
ATOM      5  H   UNL     1       1.577  -1.367  -0.009  0.00  0.00    +0.167 HD
ATOM      6  C   UNL     1       0.002  -0.004   0.002  0.00  0.00    +0.084 A 
ATOM      7 BR   UNL     1      -1.526  -1.118   0.018  0.00  0.00    -0.031 Br
ATOM      8  C   UNL     1       3.577   0.739  -0.187  0.00  0.00    +0.261 C 
ATOM      9  O   UNL     1       4.193   0.017  -0.949  0.00  0.00    -0.269 OA
ATOM     10  N   UNL     1       4.213   1.669   0.572  0.00  0.00    -0.310 N 
ATOM     11  C   UNL     1       3.544   2.287   1.707  0.00  0.00    +0.109 C 
ATOM     12  C   UNL     1       2.677   3.488   1.317  0.00  0.00    +0.056 C 
ATOM     13  C   UNL     1       1.877   3.143   0.075  0.00  0.00    -0.010 C 
ATOM     14  C   UNL     1       1.690   4.045  -0.921  0.00  0.00    +0.102 C 
ATOM     15  C   UNL     1       2.196   5.431  -0.989  0.00  0.00    +0.284 C 
ATOM     16  O   UNL     1       2.875   6.005  -0.153  0.00  0.00    -0.267 OA
ATOM     17  N   UNL     1       1.762   5.933  -2.154  0.00  0.00    -0.146 NA
ATOM     18  C   UNL     1       1.056   5.035  -2.807  0.00  0.00    +0.174 C 
ATOM     19  N   UNL     1       0.982   3.866  -2.113  0.00  0.00    -0.285 N 
ATOM     20  N   UNL     1       0.477   5.247  -4.028  0.00  0.00    -0.333 N 
ATOM     21  H   UNL     1       5.123   1.924   0.355  0.00  0.00    +0.149 HD
ATOM     22  H   UNL     1       0.521   3.060  -2.393  0.00  0.00    +0.155 HD
ATOM     23  H   UNL     1       0.575   6.106  -4.468  0.00  0.00    +0.145 HD
ATOM     24  H   UNL     1      -0.031   4.538  -4.453  0.00  0.00    +0.145 HD
ENDROOT
TORSDOF 0
