REMARK  Name = CHEMBL31639
REMARK  9 active torsions:
REMARK  status: ('A' for Active; 'I' for Inactive)
REMARK    1  A    between atoms: C_1  and  O_2
REMARK    2  A    between atoms: O_2  and  C_3
REMARK    3  A    between atoms: C_8  and  O_9
REMARK    4  A    between atoms: O_9  and  C_10
REMARK    5  A    between atoms: C_13  and  C_29
REMARK    6  A    between atoms: C_14  and  N_15
REMARK    7  A    between atoms: N_15  and  C_16
REMARK    8  A    between atoms: C_19  and  N_22
REMARK    9  A    between atoms: N_22  and  C_23
REMARK                            x       y       z     vdW  Elec       q    Type
REMARK                         _______ _______ _______ _____ _____    ______ ____
ROOT
ATOM      1  C   UNL     1      -6.359  -0.116   3.812  0.00  0.00    +0.162 A 
ATOM      2  C   UNL     1      -5.859   0.530   2.719  0.00  0.00    +0.061 A 
ATOM      3  C   UNL     1      -5.300  -0.209   1.666  0.00  0.00    +0.026 A 
ATOM      4  C   UNL     1      -5.256  -1.622   1.741  0.00  0.00    +0.077 A 
ATOM      5  C   UNL     1      -5.777  -2.264   2.875  0.00  0.00    +0.077 A 
ATOM      6  C   UNL     1      -6.314  -1.515   3.897  0.00  0.00    +0.164 A 
ATOM      7  N   UNL     1      -4.722  -2.335   0.738  0.00  0.00    -0.253 NA
ATOM      8  C   UNL     1      -4.228  -1.766  -0.332  0.00  0.00    +0.132 A 
ATOM      9  C   UNL     1      -4.229  -0.370  -0.490  0.00  0.00    +0.091 A 
ATOM     10  C   UNL     1      -4.774   0.435   0.522  0.00  0.00    +0.060 A 
ENDROOT
BRANCH   1  12
ATOM     11  C   UNL     1      -6.917   2.024   4.685  0.00  0.00    +0.277 C 
ATOM     12  O   UNL     1      -6.901   0.603   4.831  0.00  0.00    -0.491 OA
ENDBRANCH   1  12
BRANCH   6  13
ATOM     13  O   UNL     1      -6.813  -2.138   4.996  0.00  0.00    -0.491 OA
ATOM     14  C   UNL     1      -6.738  -3.565   5.023  0.00  0.00    +0.277 C 
ENDBRANCH   6  13
BRANCH  10  15
ATOM     15  N   UNL     1      -4.795   1.810   0.405  0.00  0.00    -0.313 N 
ATOM     16  H   UNL     1      -4.020   2.331   0.668  0.00  0.00    +0.152 HD
BRANCH  15  17
ATOM     17  C   UNL     1      -5.935   2.452  -0.093  0.00  0.00    +0.031 A 
ATOM     18  C   UNL     1      -7.082   1.718  -0.366  0.00  0.00    +0.025 A 
ATOM     19  C   UNL     1      -8.206   2.352  -0.857  0.00  0.00    +0.025 A 
ATOM     20  C   UNL     1      -8.189   3.723  -1.078  0.00  0.00    +0.031 A 
ATOM     21  C   UNL     1      -7.042   4.457  -0.805  0.00  0.00    +0.025 A 
ATOM     22  C   UNL     1      -5.920   3.824  -0.309  0.00  0.00    +0.025 A 
BRANCH  20  23
ATOM     23  N   UNL     1      -9.328   4.365  -1.577  0.00  0.00    -0.314 N 
ATOM     24  H   UNL     1     -10.210   4.013  -1.379  0.00  0.00    +0.152 HD
BRANCH  23  25
ATOM     25  C   UNL     1      -9.196   5.514  -2.360  0.00  0.00    +0.031 A 
ATOM     26  C   UNL     1      -8.074   5.685  -3.162  0.00  0.00    +0.023 A 
ATOM     27  C   UNL     1      -7.947   6.822  -3.935  0.00  0.00    +0.002 A 
ATOM     28  C   UNL     1      -8.933   7.791  -3.911  0.00  0.00    +0.000 A 
ATOM     29  C   UNL     1     -10.050   7.625  -3.113  0.00  0.00    +0.002 A 
ATOM     30  C   UNL     1     -10.188   6.487  -2.343  0.00  0.00    +0.023 A 
ENDBRANCH  23  25
ENDBRANCH  20  23
ENDBRANCH  15  17
ENDBRANCH  10  15
BRANCH   9  31
ATOM     31  C   UNL     1      -3.680   0.224  -1.671  0.00  0.00    +0.103 C 
ATOM     32  N   UNL     1      -3.244   0.696  -2.608  0.00  0.00    -0.191 NA
ENDBRANCH   9  31
TORSDOF 7
