REMARK  Name = CHEMBL265786
REMARK  13 active torsions:
REMARK  status: ('A' for Active; 'I' for Inactive)
REMARK    1  A    between atoms: C_1  and  C_2
REMARK    2  A    between atoms: C_3  and  N_29
REMARK    3  A    between atoms: C_7  and  N_13
REMARK    4  A    between atoms: C_8  and  C_11
REMARK    5  A    between atoms: N_13  and  C_14
REMARK    6  A    between atoms: C_17  and  O_20
REMARK    7  A    between atoms: O_20  and  C_21
REMARK    8  A    between atoms: C_26  and  O_27
REMARK    9  A    between atoms: O_27  and  C_28
REMARK   10  A    between atoms: C_30  and  O_32
REMARK   11  A    between atoms: O_32  and  C_33
REMARK   12  A    between atoms: C_33  and  C_34
REMARK   13  A    between atoms: C_34  and  N_35
REMARK                            x       y       z     vdW  Elec       q    Type
REMARK                         _______ _______ _______ _____ _____    ______ ____
ROOT
ATOM      1  C   UNL     1      -0.198   1.889   0.072  0.00  0.00    +0.048 C 
ATOM      2  C   UNL     1      -0.281   0.390  -0.059  0.00  0.00    -0.000 A 
ATOM      3  C   UNL     1      -0.805  -0.323  -1.141  0.00  0.00    +0.060 A 
ATOM      4  C   UNL     1      -0.691  -1.652  -0.861  0.00  0.00    +0.136 A 
ATOM      5  N   UNL     1      -0.113  -1.799   0.361  0.00  0.00    -0.236 N 
ATOM      6  C   UNL     1       0.153  -0.544   0.869  0.00  0.00    +0.092 A 
ATOM      7  C   UNL     1       0.764  -0.421   2.135  0.00  0.00    +0.077 A 
ATOM      8  C   UNL     1       1.087  -1.588   2.839  0.00  0.00    +0.095 A 
ATOM      9  C   UNL     1       0.794  -2.848   2.267  0.00  0.00    +0.154 A 
ATOM     10  N   UNL     1       0.222  -2.939   1.101  0.00  0.00    -0.173 NA
ENDROOT
BRANCH   3  11
ATOM     11  N   UNL     1      -1.353   0.232  -2.311  0.00  0.00    -0.249 N 
ATOM     12  C   UNL     1      -1.826  -0.574  -3.283  0.00  0.00    +0.405 C 
ATOM     13  O   UNL     1      -1.778  -1.781  -3.147  0.00  0.00    -0.226 OA
ATOM     14  H   UNL     1      -1.391   1.195  -2.420  0.00  0.00    +0.158 HD
BRANCH  12  15
ATOM     15  O   UNL     1      -2.350  -0.042  -4.403  0.00  0.00    -0.449 OA
BRANCH  15  16
ATOM     16  C   UNL     1      -2.832  -0.956  -5.391  0.00  0.00    +0.249 C 
BRANCH  16  17
ATOM     17  C   UNL     1      -3.387  -0.172  -6.582  0.00  0.00    +0.125 C 
BRANCH  17  18
ATOM     18  N   UNL     1      -2.309   0.618  -7.193  0.00  0.00    -0.295 NA
ATOM     19  C   UNL     1      -2.856   1.713  -8.008  0.00  0.00    +0.112 C 
ATOM     20  C   UNL     1      -1.703   2.545  -8.575  0.00  0.00    +0.175 C 
ATOM     21  O   UNL     1      -0.832   1.694  -9.325  0.00  0.00    -0.377 OA
ATOM     22  C   UNL     1      -0.281   0.618  -8.562  0.00  0.00    +0.175 C 
ATOM     23  C   UNL     1      -1.420  -0.234  -7.995  0.00  0.00    +0.112 C 
ENDBRANCH  17  18
ENDBRANCH  16  17
ENDBRANCH  15  16
ENDBRANCH  12  15
ENDBRANCH   3  11
BRANCH   8  24
ATOM     24  C   UNL     1       1.709  -1.507   4.127  0.00  0.00    +0.103 C 
ATOM     25  N   UNL     1       2.202  -1.442   5.148  0.00  0.00    -0.191 NA
ENDBRANCH   8  24
BRANCH   7  26
ATOM     26  N   UNL     1       1.038   0.823   2.668  0.00  0.00    -0.312 N 
ATOM     27  H   UNL     1       0.598   1.109   3.484  0.00  0.00    +0.152 HD
BRANCH  26  28
ATOM     28  C   UNL     1       1.951   1.671   2.031  0.00  0.00    +0.032 A 
ATOM     29  C   UNL     1       2.696   1.208   0.955  0.00  0.00    +0.027 A 
ATOM     30  C   UNL     1       3.596   2.046   0.327  0.00  0.00    +0.048 A 
ATOM     31  C   UNL     1       3.758   3.350   0.772  0.00  0.00    +0.129 A 
ATOM     32  C   UNL     1       3.014   3.813   1.848  0.00  0.00    +0.048 A 
ATOM     33  C   UNL     1       2.109   2.979   2.473  0.00  0.00    +0.027 A 
BRANCH  31  34
ATOM     34  O   UNL     1       4.645   4.173   0.154  0.00  0.00    -0.452 OA
BRANCH  34  35
ATOM     35  C   UNL     1       5.782   4.505   0.823  0.00  0.00    +0.170 A 
ATOM     36  C   UNL     1       6.031   3.968   2.077  0.00  0.00    +0.050 A 
ATOM     37  C   UNL     1       7.187   4.305   2.755  0.00  0.00    +0.004 A 
ATOM     38  C   UNL     1       8.097   5.178   2.187  0.00  0.00    +0.004 A 
ATOM     39  C   UNL     1       7.854   5.716   0.937  0.00  0.00    +0.049 A 
ATOM     40  C   UNL     1       6.700   5.378   0.249  0.00  0.00    +0.162 A 
BRANCH  40  41
ATOM     41  O   UNL     1       6.463   5.903  -0.983  0.00  0.00    -0.491 OA
ATOM     42  C   UNL     1       7.449   6.793  -1.510  0.00  0.00    +0.277 C 
ENDBRANCH  40  41
ENDBRANCH  34  35
ENDBRANCH  31  34
ENDBRANCH  26  28
ENDBRANCH   7  26
TORSDOF 11
