REMARK  Name = CHEMBL95002
REMARK  11 active torsions:
REMARK  status: ('A' for Active; 'I' for Inactive)
REMARK    1  A    between atoms: C_1  and  O_2
REMARK    2  A    between atoms: O_2  and  C_3
REMARK    3  A    between atoms: C_8  and  O_9
REMARK    4  A    between atoms: O_9  and  C_10
REMARK    5  A    between atoms: C_10  and  C_11
REMARK    6  A    between atoms: C_11  and  N_12
REMARK    7  A    between atoms: C_20  and  C_36
REMARK    8  A    between atoms: C_21  and  N_22
REMARK    9  A    between atoms: N_22  and  C_23
REMARK   10  A    between atoms: C_26  and  O_29
REMARK   11  A    between atoms: O_29  and  C_30
REMARK                            x       y       z     vdW  Elec       q    Type
REMARK                         _______ _______ _______ _____ _____    ______ ____
ROOT
ATOM      1  C   UNL     1       4.247  -0.456  -2.452  0.00  0.00    +0.162 A 
ATOM      2  C   UNL     1       3.400   0.374  -3.128  0.00  0.00    +0.061 A 
ATOM      3  C   UNL     1       2.419  -0.167  -3.972  0.00  0.00    +0.026 A 
ATOM      4  C   UNL     1       2.311  -1.571  -4.120  0.00  0.00    +0.077 A 
ATOM      5  C   UNL     1       3.193  -2.404  -3.415  0.00  0.00    +0.077 A 
ATOM      6  C   UNL     1       4.151  -1.847  -2.598  0.00  0.00    +0.164 A 
ATOM      7  N   UNL     1       1.376  -2.095  -4.927  0.00  0.00    -0.253 NA
ATOM      8  C   UNL     1       0.539  -1.345  -5.598  0.00  0.00    +0.132 A 
ATOM      9  C   UNL     1       0.575   0.056  -5.511  0.00  0.00    +0.091 A 
ATOM     10  C   UNL     1       1.528   0.669  -4.684  0.00  0.00    +0.060 A 
ENDROOT
BRANCH   1  12
ATOM     11  C   UNL     1       5.244   1.495  -1.529  0.00  0.00    +0.277 C 
ATOM     12  O   UNL     1       5.197   0.071  -1.635  0.00  0.00    -0.491 OA
ENDBRANCH   1  12
BRANCH  10  13
ATOM     13  N   UNL     1       1.596   2.043  -4.571  0.00  0.00    -0.313 N 
ATOM     14  H   UNL     1       1.126   2.494  -3.852  0.00  0.00    +0.152 HD
BRANCH  13  15
ATOM     15  C   UNL     1       2.341   2.785  -5.493  0.00  0.00    +0.032 A 
ATOM     16  C   UNL     1       3.244   2.145  -6.332  0.00  0.00    +0.027 A 
ATOM     17  C   UNL     1       3.980   2.879  -7.242  0.00  0.00    +0.048 A 
ATOM     18  C   UNL     1       3.818   4.255  -7.317  0.00  0.00    +0.129 A 
ATOM     19  C   UNL     1       2.916   4.894  -6.480  0.00  0.00    +0.048 A 
ATOM     20  C   UNL     1       2.175   4.162  -5.573  0.00  0.00    +0.027 A 
BRANCH  18  21
ATOM     21  O   UNL     1       4.543   4.976  -8.213  0.00  0.00    -0.456 OA
BRANCH  21  22
ATOM     22  C   UNL     1       4.430   6.330  -8.182  0.00  0.00    +0.128 A 
ATOM     23  C   UNL     1       5.069   7.058  -7.189  0.00  0.00    +0.046 A 
ATOM     24  C   UNL     1       4.952   8.434  -7.161  0.00  0.00    +0.004 A 
ATOM     25  C   UNL     1       4.200   9.086  -8.120  0.00  0.00    +0.000 A 
ATOM     26  C   UNL     1       3.562   8.362  -9.111  0.00  0.00    +0.004 A 
ATOM     27  C   UNL     1       3.680   6.987  -9.148  0.00  0.00    +0.046 A 
ENDBRANCH  21  22
ENDBRANCH  18  21
ENDBRANCH  13  15
ENDBRANCH  10  13
BRANCH   9  28
ATOM     28  C   UNL     1      -0.353   0.850  -6.258  0.00  0.00    +0.103 C 
ATOM     29  N   UNL     1      -1.089   1.481  -6.851  0.00  0.00    -0.191 NA
ENDBRANCH   9  28
BRANCH   6  30
ATOM     30  O   UNL     1       5.008  -2.655  -1.921  0.00  0.00    -0.490 OA
BRANCH  30  31
ATOM     31  C   UNL     1       4.860  -4.063  -2.111  0.00  0.00    +0.211 C 
BRANCH  31  32
ATOM     32  C   UNL     1       5.905  -4.804  -1.274  0.00  0.00    -0.037 C 
BRANCH  32  33
ATOM     33  N   UNL     1       5.690  -4.510   0.149  0.00  0.00    +0.385 N 
ATOM     34  C   UNL     1       6.790  -5.081   0.939  0.00  0.00    -0.050 C 
ATOM     35  C   UNL     1       6.564  -4.774   2.421  0.00  0.00    +0.141 C 
ATOM     36  O   UNL     1       5.298  -5.303   2.825  0.00  0.00    -0.383 OA
ATOM     37  C   UNL     1       4.196  -4.794   2.068  0.00  0.00    +0.141 C 
ATOM     38  C   UNL     1       4.417  -5.101   0.585  0.00  0.00    -0.050 C 
ATOM     39  H   UNL     1       5.661  -3.511   0.286  0.00  0.00    -0.081 HD
ENDBRANCH  32  33
ENDBRANCH  31  32
ENDBRANCH  30  31
ENDBRANCH   6  30
TORSDOF 10
