REMARK  Name = CHEMBL217117
REMARK  9 active torsions:
REMARK  status: ('A' for Active; 'I' for Inactive)
REMARK    1  A    between atoms: CB_1  and  CA_2
REMARK    2  A    between atoms: CA_2  and  C_3
REMARK    3  A    between atoms: CA_2  and  N_5
REMARK    4  A    between atoms: C_3  and  O_4
REMARK    5  A    between atoms: C_6  and  C_7
REMARK    6  A    between atoms: C_11  and  N_12
REMARK    7  A    between atoms: N_12  and  C_13
REMARK    8  A    between atoms: C_16  and  S_19
REMARK    9  A    between atoms: S_19  and  C_22
REMARK                            x       y       z     vdW  Elec       q    Type
REMARK                         _______ _______ _______ _____ _____    ______ ____
ROOT
ATOM      1  C   UNK A   0      -4.036  -0.410  -1.058  0.00  0.00    +0.106 A 
ATOM      2  C   UNK A   0      -4.343  -1.003   0.166  0.00  0.00    +0.268 A 
ATOM      3  N   UNK A   0      -4.746  -2.287   0.125  0.00  0.00    -0.291 N 
ATOM      4  S   UNK A   0      -4.716  -2.692  -1.497  0.00  0.00    +0.005 S 
ATOM      5  C   UNK A   0      -4.197  -1.245  -2.167  0.00  0.00    +0.102 A 
ATOM      6  O   UNK A   0      -4.252  -0.391   1.218  0.00  0.00    -0.267 OA
ATOM      7  H   UNK A   0      -4.998  -2.852   0.872  0.00  0.00    +0.177 HD
ENDROOT
BRANCH   1   9
ATOM      8  N   ALA A   1      -3.559   1.754  -0.116  0.00  0.00    -0.368 N 
ATOM      9  C   UNK A   0      -3.583   0.985  -1.173  0.00  0.00    +0.105 C 
ATOM     10  N   UNK A   0      -3.184   1.482  -2.397  0.00  0.00    -0.344 N 
ATOM     11  H   UNK A   0      -2.812   2.375  -2.459  0.00  0.00    +0.144 HD
ATOM     12  H   UNK A   0      -3.277   0.938  -3.194  0.00  0.00    +0.144 HD
ATOM     13  H   ALA A   1      -3.839   1.404   0.745  0.00  0.00    +0.161 HD
BRANCH   8  15
ATOM     14  CB  ALA A   1      -4.280   4.025  -0.664  0.00  0.00    +0.032 C 
ATOM     15  CA  ALA A   1      -3.108   3.143  -0.230  0.00  0.00    +0.103 C 
BRANCH  15  16
ATOM     16  C   ALA A   1      -2.583   3.622   1.125  0.00  0.00    +0.180 C 
BRANCH  16  17
ATOM     17  O   ALA A   1      -3.655   3.649   2.068  0.00  0.00    -0.393 OA
ATOM     18  H   ALA A   1      -3.394   3.945   2.952  0.00  0.00    +0.209 HD
ENDBRANCH  16  17
ENDBRANCH  15  16
ENDBRANCH   8  15
ENDBRANCH   1   9
BRANCH   5  19
ATOM     19  N   UNK A   0      -3.981  -0.951  -3.493  0.00  0.00    -0.307 N 
ATOM     20  H   UNK A   0      -3.106  -0.653  -3.787  0.00  0.00    +0.153 HD
BRANCH  19  21
ATOM     21  C   UNK A   0      -5.022  -1.080  -4.417  0.00  0.00    +0.032 A 
ATOM     22  C   UNK A   0      -6.254  -1.577  -4.012  0.00  0.00    +0.025 A 
ATOM     23  C   UNK A   0      -7.281  -1.704  -4.927  0.00  0.00    +0.029 A 
ATOM     24  C   UNK A   0      -7.083  -1.336  -6.245  0.00  0.00    +0.094 A 
ATOM     25  C   UNK A   0      -5.857  -0.841  -6.652  0.00  0.00    +0.029 A 
ATOM     26  C   UNK A   0      -4.829  -0.706  -5.740  0.00  0.00    +0.025 A 
BRANCH  24  27
ATOM     27  S   UNK A   0      -8.395  -1.500  -7.410  0.00  0.00    +0.025 S 
ATOM     28  O   UNK A   0      -7.790  -1.600  -8.692  0.00  0.00    -0.164 OA
ATOM     29  O   UNK A   0      -9.269  -2.497  -6.900  0.00  0.00    -0.164 OA
BRANCH  27  30
ATOM     30  C   UNK A   0      -9.296   0.015  -7.396  0.00  0.00    +0.094 A 
ATOM     31  C   UNK A   0     -10.357   0.179  -6.524  0.00  0.00    +0.027 A 
ATOM     32  C   UNK A   0     -11.064   1.367  -6.513  0.00  0.00    +0.002 A 
ATOM     33  C   UNK A   0     -10.710   2.390  -7.373  0.00  0.00    +0.000 A 
ATOM     34  C   UNK A   0      -9.649   2.226  -8.243  0.00  0.00    +0.002 A 
ATOM     35  C   UNK A   0      -8.939   1.040  -8.251  0.00  0.00    +0.027 A 
ENDBRANCH  27  30
ENDBRANCH  24  27
ENDBRANCH  19  21
ENDBRANCH   5  19
TORSDOF 8
