REMARK  Name = CHEMBL34601
REMARK  9 active torsions:
REMARK  status: ('A' for Active; 'I' for Inactive)
REMARK    1  A    between atoms: C_4  and  S_8
REMARK    2  A    between atoms: C_5  and  N_7
REMARK    3  A    between atoms: S_8  and  C_9
REMARK    4  A    between atoms: C_9  and  N_27
REMARK    5  A    between atoms: C_10  and  C_11
REMARK    6  A    between atoms: C_10  and  C_13
REMARK    7  A    between atoms: C_17  and  C_19
REMARK    8  A    between atoms: C_19  and  C_20
REMARK    9  A    between atoms: C_19  and  O_26
REMARK                            x       y       z     vdW  Elec       q    Type
REMARK                         _______ _______ _______ _____ _____    ______ ____
ROOT
ATOM      1  C   UNL     1       5.245   0.379  -0.110  0.00  0.00    +0.082 C 
ATOM      2  C   UNL     1       6.529  -0.033  -0.439  0.00  0.00    +0.086 C 
ENDROOT
BRANCH   2   3
ATOM      3  C   UNL     1       7.578   0.973  -0.722  0.00  0.00    -0.005 A 
ATOM      4  C   UNL     1       7.461   1.816  -1.827  0.00  0.00    +0.009 A 
ATOM      5  C   UNL     1       8.443   2.750  -2.085  0.00  0.00    +0.001 A 
ATOM      6  C   UNL     1       9.542   2.852  -1.250  0.00  0.00    +0.006 A 
ATOM      7  C   UNL     1       9.664   2.019  -0.153  0.00  0.00    -0.018 A 
ATOM      8  C   UNL     1       8.685   1.085   0.120  0.00  0.00    +0.015 A 
BRANCH   7   9
ATOM      9  C   UNL     1      10.864   2.137   0.751  0.00  0.00    +0.148 C 
BRANCH   9  10
ATOM     10  C   UNL     1      12.053   1.413   0.117  0.00  0.00    +0.022 C 
ATOM     11  C   UNL     1      11.705  -0.064  -0.080  0.00  0.00    +0.006 C 
ATOM     12  C   UNL     1      12.894  -0.788  -0.714  0.00  0.00    +0.000 C 
ATOM     13  C   UNL     1      14.113  -0.669   0.203  0.00  0.00    +0.000 C 
ATOM     14  C   UNL     1      14.460   0.808   0.400  0.00  0.00    +0.000 C 
ATOM     15  C   UNL     1      13.271   1.532   1.034  0.00  0.00    +0.006 C 
ENDBRANCH   9  10
BRANCH   9  16
ATOM     16  O   UNL     1      11.188   3.516   0.934  0.00  0.00    -0.387 OA
ATOM     17  H   UNL     1      11.402   3.982   0.114  0.00  0.00    +0.210 HD
ENDBRANCH   9  16
ENDBRANCH   7   9
ENDBRANCH   2   3
BRANCH   1  18
ATOM     18  N   UNL     1       4.948   1.717  -0.047  0.00  0.00    -0.352 N 
ATOM     19  H   UNL     1       4.035   2.004   0.108  0.00  0.00    +0.143 HD
ATOM     20  H   UNL     1       5.652   2.376  -0.158  0.00  0.00    +0.143 HD
ENDBRANCH   1  18
BRANCH   2  21
ATOM     21  C   UNL     1       6.838  -1.429  -0.505  0.00  0.00    +0.102 C 
ATOM     22  N   UNL     1       7.084  -2.537  -0.557  0.00  0.00    -0.191 NA
ENDBRANCH   2  21
BRANCH   1  23
ATOM     23  S   UNL     1       3.996  -0.818   0.226  0.00  0.00    -0.072 S 
BRANCH  23  27
ATOM     24  C   UNL     1       1.040  -0.300  -3.172  0.00  0.00    +0.002 A 
ATOM     25  C   UNL     1       2.234   0.397  -3.180  0.00  0.00    +0.001 A 
ATOM     26  C   UNL     1       3.137   0.241  -2.145  0.00  0.00    +0.017 A 
ATOM     27  C   UNL     1       2.846  -0.616  -1.094  0.00  0.00    +0.035 A 
ATOM     28  C   UNL     1       1.641  -1.319  -1.086  0.00  0.00    +0.039 A 
ATOM     29  C   UNL     1       0.741  -1.157  -2.129  0.00  0.00    +0.024 A 
BRANCH  28  30
ATOM     30  N   UNL     1       1.341  -2.185  -0.029  0.00  0.00    -0.357 N 
ATOM     31  H   UNL     1       1.972  -2.298   0.700  0.00  0.00    +0.142 HD
ATOM     32  H   UNL     1       0.503  -2.673  -0.025  0.00  0.00    +0.142 HD
ENDBRANCH  28  30
ENDBRANCH  23  27
ENDBRANCH   1  23
TORSDOF 9
