REMARK  Name = CHEMBL524111
REMARK  13 active torsions:
REMARK  status: ('A' for Active; 'I' for Inactive)
REMARK    1  A    between atoms: C_1  and  N_2
REMARK    2  A    between atoms: C_6  and  S_7
REMARK    3  A    between atoms: S_7  and  C_8
REMARK    4  A    between atoms: C_11  and  N_15
REMARK    5  A    between atoms: N_15  and  C_16
REMARK    6  A    between atoms: C_19  and  O_39
REMARK    7  A    between atoms: C_20  and  C_28
REMARK    8  A    between atoms: C_25  and  C_26
REMARK    9  A    between atoms: C_29  and  C_30
REMARK   10  A    between atoms: C_30  and  C_31
REMARK   11  A    between atoms: C_31  and  N_32
REMARK   12  A    between atoms: N_35  and  C_38
REMARK   13  A    between atoms: O_39  and  C_40
REMARK                            x       y       z     vdW  Elec       q    Type
REMARK                         _______ _______ _______ _____ _____    ______ ____
ROOT
ATOM      1  C   UNL     1       0.100  -4.955   7.626  0.00  0.00    +0.060 A 
ATOM      2  C   UNL     1       0.361  -6.037   8.500  0.00  0.00    +0.026 A 
ATOM      3  C   UNL     1       0.794  -7.275   8.004  0.00  0.00    +0.058 A 
ATOM      4  C   UNL     1       1.040  -8.305   8.864  0.00  0.00    +0.128 A 
ATOM      5  C   UNL     1       0.863  -8.137  10.251  0.00  0.00    +0.018 A 
ATOM      6  C   UNL     1       0.436  -6.922  10.763  0.00  0.00    +0.040 A 
ATOM      7  C   UNL     1       0.179  -5.854   9.892  0.00  0.00    +0.074 A 
ATOM      8  N   UNL     1      -0.235  -4.670  10.370  0.00  0.00    -0.254 NA
ATOM      9  C   UNL     1      -0.483  -3.654   9.585  0.00  0.00    +0.132 A 
ATOM     10  C   UNL     1      -0.325  -3.743   8.192  0.00  0.00    +0.091 A 
ENDROOT
BRANCH   1  11
ATOM     11  N   UNL     1       0.262  -5.085   6.261  0.00  0.00    -0.313 N 
ATOM     12  H   UNL     1      -0.492  -5.333   5.705  0.00  0.00    +0.152 HD
BRANCH  11  16
ATOM     13  C   UNL     1       3.997  -4.412   4.532  0.00  0.00    +0.034 A 
ATOM     14  C   UNL     1       2.886  -4.630   3.726  0.00  0.00    +0.018 A 
ATOM     15  C   UNL     1       1.650  -4.853   4.299  0.00  0.00    +0.024 A 
ATOM     16  C   UNL     1       1.516  -4.860   5.682  0.00  0.00    +0.033 A 
ATOM     17  C   UNL     1       2.625  -4.643   6.489  0.00  0.00    +0.044 A 
ATOM     18  C   UNL     1       3.864  -4.425   5.916  0.00  0.00    +0.057 A 
ATOM     19 CL   UNL     1       5.252  -4.160   6.924  0.00  0.00    -0.082 Cl
BRANCH  13  20
ATOM     20  S   UNL     1       5.574  -4.128   3.801  0.00  0.00    -0.050 S 
BRANCH  20  26
ATOM     21  C   UNL     1       8.186  -2.283   3.101  0.00  0.00    +0.151 C 
ATOM     22  N   UNL     1       6.963  -1.716   3.675  0.00  0.00    -0.328 N 
ATOM     23  C   UNL     1       6.741  -0.393   3.983  0.00  0.00    +0.107 A 
ATOM     24  C   UNL     1       5.497  -0.311   4.485  0.00  0.00    +0.131 A 
ATOM     25  N   UNL     1       4.961  -1.542   4.490  0.00  0.00    -0.230 NA
ATOM     26  C   UNL     1       5.830  -2.396   4.000  0.00  0.00    +0.173 A 
ENDBRANCH  20  26
ENDBRANCH  13  20
ENDBRANCH  11  16
ENDBRANCH   1  11
BRANCH  10  27
ATOM     27  C   UNL     1      -0.598  -2.611   7.358  0.00  0.00    +0.103 C 
ATOM     28  N   UNL     1      -0.815  -1.714   6.697  0.00  0.00    -0.191 NA
ENDBRANCH  10  27
BRANCH   5  29
ATOM     29  C   UNL     1       1.134  -9.263  11.167  0.00  0.00    +0.007 C 
ATOM     30  C   UNL     1       0.968  -9.110  12.474  0.00  0.00    -0.028 C 
BRANCH  30  31
ATOM     31  C   UNL     1       1.245 -10.259  13.409  0.00  0.00    +0.008 C 
BRANCH  31  32
ATOM     32  C   UNL     1       2.255  -9.822  14.471  0.00  0.00    -0.075 C 
BRANCH  32  33
ATOM     33  N   UNL     1       2.524 -10.942  15.382  0.00  0.00    +0.382 N 
ATOM     34  C   UNL     1       1.300 -11.276  16.122  0.00  0.00    -0.063 C 
ATOM     35  C   UNL     1       1.575 -12.456  17.057  0.00  0.00    +0.065 C 
ATOM     36  N   UNL     1       2.650 -12.095  17.992  0.00  0.00    -0.309 NA
ATOM     37  C   UNL     1       3.875 -11.734  17.265  0.00  0.00    +0.065 C 
ATOM     38  C   UNL     1       3.581 -10.561  16.328  0.00  0.00    -0.063 C 
ATOM     39  C   UNL     1       2.905 -13.184  18.945  0.00  0.00    +0.104 C 
ATOM     40  H   UNL     1       2.824 -11.744  14.848  0.00  0.00    -0.082 HD
ENDBRANCH  32  33
ENDBRANCH  31  32
ENDBRANCH  30  31
ENDBRANCH   5  29
BRANCH   4  41
ATOM     41  O   UNL     1       1.460  -9.503   8.378  0.00  0.00    -0.495 OA
ATOM     42  C   UNL     1       1.620  -9.609   6.962  0.00  0.00    +0.277 C 
ENDBRANCH   4  41
TORSDOF 10
