REMARK  Name = CHEMBL371095
REMARK  9 active torsions:
REMARK  status: ('A' for Active; 'I' for Inactive)
REMARK    1  A    between atoms: C_4  and  O_7
REMARK    2  A    between atoms: O_7  and  C_8
REMARK    3  A    between atoms: C_11  and  N_14
REMARK    4  A    between atoms: N_14  and  C_15
REMARK    5  A    between atoms: C_18  and  N_27
REMARK    6  A    between atoms: C_24  and  C_25
REMARK    7  A    between atoms: N_27  and  C_28
REMARK    8  A    between atoms: C_28  and  C_29
REMARK    9  A    between atoms: C_29  and  N_30
REMARK                            x       y       z     vdW  Elec       q    Type
REMARK                         _______ _______ _______ _____ _____    ______ ____
ROOT
ATOM      1  C   UNL     1       4.996  -6.943   0.349  0.00  0.00    +0.060 A 
ATOM      2  C   UNL     1       5.037  -8.347   0.176  0.00  0.00    +0.027 A 
ATOM      3  C   UNL     1       3.905  -9.084  -0.195  0.00  0.00    +0.055 A 
ATOM      4  C   UNL     1       4.028 -10.453  -0.344  0.00  0.00    +0.119 A 
ATOM      5  N   UNL     1       5.189 -11.068  -0.143  0.00  0.00    -0.238 NA
ATOM      6  C   UNL     1       6.280 -10.427   0.205  0.00  0.00    +0.141 A 
ATOM      7  C   UNL     1       6.259  -9.034   0.382  0.00  0.00    +0.091 A 
ATOM      8  N   UNL     1       7.360  -8.359   0.736  0.00  0.00    -0.252 NA
ATOM      9  C   UNL     1       7.351  -7.061   0.903  0.00  0.00    +0.132 A 
ATOM     10  C   UNL     1       6.186  -6.298   0.715  0.00  0.00    +0.091 A 
ENDROOT
BRANCH   1  11
ATOM     11  N   UNL     1       3.828  -6.234   0.158  0.00  0.00    -0.313 N 
ATOM     12  H   UNL     1       3.610  -5.885  -0.720  0.00  0.00    +0.152 HD
BRANCH  11  16
ATOM     13  C   UNL     1       1.234  -5.592   3.357  0.00  0.00    +0.129 A 
ATOM     14  C   UNL     1       0.986  -4.991   2.132  0.00  0.00    +0.048 A 
ATOM     15  C   UNL     1       1.844  -5.203   1.071  0.00  0.00    +0.027 A 
ATOM     16  C   UNL     1       2.958  -6.018   1.232  0.00  0.00    +0.032 A 
ATOM     17  C   UNL     1       3.206  -6.619   2.459  0.00  0.00    +0.027 A 
ATOM     18  C   UNL     1       2.349  -6.402   3.520  0.00  0.00    +0.048 A 
BRANCH  13  19
ATOM     19  O   UNL     1       0.388  -5.383   4.401  0.00  0.00    -0.456 OA
BRANCH  19  23
ATOM     20  C   UNL     1      -2.775  -7.987   4.882  0.00  0.00    +0.000 A 
ATOM     21  C   UNL     1      -1.885  -8.167   3.839  0.00  0.00    +0.004 A 
ATOM     22  C   UNL     1      -0.825  -7.296   3.675  0.00  0.00    +0.046 A 
ATOM     23  C   UNL     1      -0.654  -6.240   4.559  0.00  0.00    +0.128 A 
ATOM     24  C   UNL     1      -1.548  -6.062   5.605  0.00  0.00    +0.046 A 
ATOM     25  C   UNL     1      -2.606  -6.935   5.764  0.00  0.00    +0.004 A 
ENDBRANCH  19  23
ENDBRANCH  13  19
ENDBRANCH  11  16
ENDBRANCH   1  11
BRANCH  10  26
ATOM     26  C   UNL     1       6.212  -4.879   0.900  0.00  0.00    +0.103 C 
ATOM     27  N   UNL     1       6.233  -3.753   1.047  0.00  0.00    -0.191 NA
ENDBRANCH  10  26
BRANCH   4  28
ATOM     28  N   UNL     1       2.913 -11.203  -0.712  0.00  0.00    -0.331 N 
ATOM     29  H   UNL     1       2.989 -12.164  -0.819  0.00  0.00    +0.147 HD
BRANCH  28  30
ATOM     30  C   UNL     1       1.627 -10.540  -0.937  0.00  0.00    +0.084 C 
BRANCH  30  31
ATOM     31  C   UNL     1       0.577 -11.582  -1.327  0.00  0.00    -0.060 C 
BRANCH  31  32
ATOM     32  N   UNL     1      -0.713 -10.918  -1.552  0.00  0.00    +0.384 N 
ATOM     33  C   UNL     1      -1.193 -10.338  -0.290  0.00  0.00    -0.050 C 
ATOM     34  C   UNL     1      -2.538  -9.646  -0.528  0.00  0.00    +0.141 C 
ATOM     35  O   UNL     1      -3.469 -10.593  -1.058  0.00  0.00    -0.383 OA
ATOM     36  C   UNL     1      -3.034 -11.204  -2.277  0.00  0.00    +0.141 C 
ATOM     37  C   UNL     1      -1.691 -11.899  -2.043  0.00  0.00    -0.050 C 
ATOM     38  H   UNL     1      -0.599 -10.185  -2.237  0.00  0.00    -0.082 HD
ENDBRANCH  31  32
ENDBRANCH  30  31
ENDBRANCH  28  30
ENDBRANCH   4  28
TORSDOF 9
