REMARK  Name = CHEMBL34072
REMARK  9 active torsions:
REMARK  status: ('A' for Active; 'I' for Inactive)
REMARK    1  A    between atoms: C_4  and  S_8
REMARK    2  A    between atoms: C_5  and  N_7
REMARK    3  A    between atoms: S_8  and  C_9
REMARK    4  A    between atoms: C_9  and  N_31
REMARK    5  A    between atoms: C_10  and  C_11
REMARK    6  A    between atoms: C_10  and  C_13
REMARK    7  A    between atoms: C_17  and  C_19
REMARK    8  A    between atoms: C_19  and  C_20
REMARK    9  A    between atoms: C_19  and  O_30
REMARK                            x       y       z     vdW  Elec       q    Type
REMARK                         _______ _______ _______ _____ _____    ______ ____
ROOT
ATOM      1  C   UNL     1       6.887  -1.480  -0.247  0.00  0.00    -0.005 A 
ATOM      2  C   UNL     1       6.580  -2.317   0.826  0.00  0.00    +0.009 A 
ATOM      3  C   UNL     1       6.880  -3.662   0.757  0.00  0.00    +0.001 A 
ATOM      4  C   UNL     1       7.487  -4.180  -0.374  0.00  0.00    +0.006 A 
ATOM      5  C   UNL     1       7.795  -3.355  -1.441  0.00  0.00    -0.014 A 
ATOM      6  C   UNL     1       7.493  -2.010  -1.386  0.00  0.00    +0.015 A 
ENDROOT
BRANCH   1   8
ATOM      7  C   UNL     1       5.245   0.379  -0.110  0.00  0.00    +0.082 C 
ATOM      8  C   UNL     1       6.567  -0.036  -0.179  0.00  0.00    +0.086 C 
BRANCH   7   9
ATOM      9  N   UNL     1       4.948   1.717  -0.047  0.00  0.00    -0.352 N 
ATOM     10  H   UNL     1       4.035   2.004   0.108  0.00  0.00    +0.143 HD
ATOM     11  H   UNL     1       5.652   2.376  -0.158  0.00  0.00    +0.143 HD
ENDBRANCH   7   9
BRANCH   8  12
ATOM     12  C   UNL     1       7.622   0.932  -0.183  0.00  0.00    +0.102 C 
ATOM     13  N   UNL     1       8.459   1.700  -0.187  0.00  0.00    -0.191 NA
ENDBRANCH   8  12
BRANCH   7  14
ATOM     14  S   UNL     1       3.947  -0.813  -0.105  0.00  0.00    -0.072 S 
BRANCH  14  18
ATOM     15  C   UNL     1       1.782  -0.093  -4.022  0.00  0.00    +0.002 A 
ATOM     16  C   UNL     1       2.947   0.596  -3.737  0.00  0.00    +0.001 A 
ATOM     17  C   UNL     1       3.609   0.378  -2.543  0.00  0.00    +0.017 A 
ATOM     18  C   UNL     1       3.105  -0.533  -1.627  0.00  0.00    +0.035 A 
ATOM     19  C   UNL     1       1.929  -1.227  -1.914  0.00  0.00    +0.039 A 
ATOM     20  C   UNL     1       1.272  -1.002  -3.114  0.00  0.00    +0.024 A 
BRANCH  19  21
ATOM     21  N   UNL     1       1.415  -2.147  -0.994  0.00  0.00    -0.357 N 
ATOM     22  H   UNL     1       1.876  -2.303  -0.155  0.00  0.00    +0.142 HD
ATOM     23  H   UNL     1       0.598  -2.629  -1.195  0.00  0.00    +0.142 HD
ENDBRANCH  19  21
ENDBRANCH  14  18
ENDBRANCH   7  14
ENDBRANCH   1   8
BRANCH   5  24
ATOM     24  C   UNL     1       8.456  -3.928  -2.668  0.00  0.00    +0.175 C 
BRANCH  24  25
ATOM     25  C   UNL     1       9.932  -4.090  -2.414  0.00  0.00    -0.011 A 
ATOM     26  C   UNL     1      10.405  -5.232  -1.795  0.00  0.00    +0.010 A 
ATOM     27  C   UNL     1      11.758  -5.383  -1.559  0.00  0.00    +0.050 A 
ATOM     28  C   UNL     1      12.646  -4.390  -1.944  0.00  0.00    +0.162 A 
ATOM     29  C   UNL     1      12.171  -3.243  -2.569  0.00  0.00    +0.162 A 
ATOM     30  C   UNL     1      10.812  -3.099  -2.806  0.00  0.00    +0.056 A 
ATOM     31  O   UNL     1      13.026  -2.259  -2.962  0.00  0.00    -0.485 OA
ATOM     32  C   UNL     1      14.334  -2.273  -2.380  0.00  0.00    +0.270 C 
ATOM     33  C   UNL     1      14.871  -3.709  -2.437  0.00  0.00    +0.270 C 
ATOM     34  O   UNL     1      13.976  -4.551  -1.702  0.00  0.00    -0.485 OA
ENDBRANCH  24  25
BRANCH  24  35
ATOM     35  O   UNL     1       7.882  -5.202  -2.967  0.00  0.00    -0.383 OA
ATOM     36  H   UNL     1       7.980  -5.854  -2.260  0.00  0.00    +0.211 HD
ENDBRANCH  24  35
ENDBRANCH   5  24
TORSDOF 9
