REMARK  Name = CHEMBL383108
REMARK  8 active torsions:
REMARK  status: ('A' for Active; 'I' for Inactive)
REMARK    1  A    between atoms: C_1  and  C_2
REMARK    2  A    between atoms: C_3  and  N_27
REMARK    3  A    between atoms: C_7  and  N_13
REMARK    4  A    between atoms: C_8  and  C_11
REMARK    5  A    between atoms: N_13  and  C_14
REMARK    6  A    between atoms: C_17  and  O_20
REMARK    7  A    between atoms: O_20  and  C_21
REMARK    8  A    between atoms: N_30  and  C_31
REMARK                            x       y       z     vdW  Elec       q    Type
REMARK                         _______ _______ _______ _____ _____    ______ ____
ROOT
ATOM      1  C   UNL     1      -1.002   1.882   0.047  0.00  0.00    +0.048 C 
ATOM      2  C   UNL     1      -0.982   0.385  -0.125  0.00  0.00    -0.001 A 
ATOM      3  C   UNL     1      -1.355  -0.326  -1.270  0.00  0.00    +0.058 A 
ATOM      4  C   UNL     1      -1.187  -1.653  -1.010  0.00  0.00    +0.136 A 
ATOM      5  N   UNL     1      -0.721  -1.801   0.258  0.00  0.00    -0.236 N 
ATOM      6  C   UNL     1      -0.583  -0.548   0.818  0.00  0.00    +0.092 A 
ATOM      7  C   UNL     1      -0.106  -0.426   2.141  0.00  0.00    +0.077 A 
ATOM      8  C   UNL     1       0.217  -1.592   2.847  0.00  0.00    +0.095 A 
ATOM      9  C   UNL     1       0.059  -2.849   2.220  0.00  0.00    +0.154 A 
ATOM     10  N   UNL     1      -0.390  -2.940   1.002  0.00  0.00    -0.173 NA
ENDROOT
BRANCH   3  11
ATOM     11  N   UNL     1      -1.821   0.230  -2.475  0.00  0.00    -0.268 N 
ATOM     12  C   UNL     1      -2.148  -0.575  -3.506  0.00  0.00    +0.304 C 
ATOM     13  O   UNL     1      -2.040  -1.781  -3.394  0.00  0.00    -0.253 OA
ATOM     14  N   UNL     1      -2.594  -0.042  -4.661  0.00  0.00    -0.302 N 
ATOM     15  C   UNL     1      -2.950  -0.916  -5.782  0.00  0.00    +0.129 C 
ATOM     16  H   UNL     1      -1.907   1.192  -2.564  0.00  0.00    +0.156 HD
ATOM     17  H   UNL     1      -2.680   0.920  -4.750  0.00  0.00    +0.150 HD
ENDBRANCH   3  11
BRANCH   8  18
ATOM     18  C   UNL     1       0.705  -1.511   4.191  0.00  0.00    +0.103 C 
ATOM     19  N   UNL     1       1.092  -1.447   5.257  0.00  0.00    -0.191 NA
ENDBRANCH   8  18
BRANCH   7  20
ATOM     20  N   UNL     1       0.038   0.817   2.727  0.00  0.00    -0.312 N 
ATOM     21  H   UNL     1      -0.501   1.056   3.497  0.00  0.00    +0.152 HD
BRANCH  20  22
ATOM     22  C   UNL     1       0.963   1.731   2.209  0.00  0.00    +0.032 A 
ATOM     23  C   UNL     1       1.844   1.337   1.210  0.00  0.00    +0.027 A 
ATOM     24  C   UNL     1       2.755   2.240   0.699  0.00  0.00    +0.048 A 
ATOM     25  C   UNL     1       2.792   3.539   1.184  0.00  0.00    +0.129 A 
ATOM     26  C   UNL     1       1.912   3.933   2.182  0.00  0.00    +0.048 A 
ATOM     27  C   UNL     1       0.996   3.033   2.690  0.00  0.00    +0.027 A 
BRANCH  25  28
ATOM     28  O   UNL     1       3.689   4.428   0.680  0.00  0.00    -0.456 OA
BRANCH  28  29
ATOM     29  C   UNL     1       3.687   5.691   1.182  0.00  0.00    +0.128 A 
ATOM     30  C   UNL     1       4.302   5.957   2.397  0.00  0.00    +0.046 A 
ATOM     31  C   UNL     1       4.299   7.242   2.904  0.00  0.00    +0.004 A 
ATOM     32  C   UNL     1       3.683   8.262   2.202  0.00  0.00    +0.000 A 
ATOM     33  C   UNL     1       3.069   7.999   0.991  0.00  0.00    +0.004 A 
ATOM     34  C   UNL     1       3.075   6.717   0.477  0.00  0.00    +0.046 A 
ENDBRANCH  28  29
ENDBRANCH  25  28
ENDBRANCH  20  22
ENDBRANCH   7  20
TORSDOF 6
