REMARK  Name = CHEMBL377592
REMARK  7 active torsions:
REMARK  status: ('A' for Active; 'I' for Inactive)
REMARK    1  A    between atoms: C_1  and  O_2
REMARK    2  A    between atoms: O_2  and  C_3
REMARK    3  A    between atoms: C_3  and  C_5
REMARK    4  A    between atoms: C_8  and  N_11
REMARK    5  A    between atoms: C_13  and  C_18
REMARK    6  A    between atoms: N_20  and  C_21
REMARK    7  A    between atoms: C_21  and  C_22
REMARK                            x       y       z     vdW  Elec       q    Type
REMARK                         _______ _______ _______ _____ _____    ______ ____
ROOT
ATOM      1  N   UNL     1      -1.408  -6.230  -0.017  0.00  0.00    -0.243 NA
ATOM      2  C   UNL     1      -2.157  -6.859   0.852  0.00  0.00    +0.112 C 
ATOM      3  C   UNL     1      -3.111  -6.272   1.869  0.00  0.00    +0.193 C 
ATOM      4  C   UNL     1      -3.766  -7.356   2.663  0.00  0.00    +0.239 C 
ATOM      5  N   UNL     1      -3.401  -8.601   2.341  0.00  0.00    -0.254 N 
ATOM      6  S   UNL     1      -2.294  -8.509   1.101  0.00  0.00    -0.006 S 
ATOM      7  O   UNL     1      -4.572  -7.122   3.540  0.00  0.00    -0.274 OA
ATOM      8  H   UNL     1      -3.727  -9.415   2.756  0.00  0.00    +0.163 HD
ENDROOT
BRANCH   1  12
ATOM      9  C   UNL     1      -1.745  -2.138  -0.451  0.00  0.00    +0.059 A 
ATOM     10  C   UNL     1      -2.879  -2.950  -0.567  0.00  0.00    +0.017 A 
ATOM     11  C   UNL     1      -2.768  -4.302  -0.424  0.00  0.00    +0.028 A 
ATOM     12  C   UNL     1      -1.519  -4.877  -0.160  0.00  0.00    +0.065 A 
ATOM     13  C   UNL     1      -0.385  -4.065  -0.043  0.00  0.00    +0.028 A 
ATOM     14  C   UNL     1      -0.496  -2.713  -0.192  0.00  0.00    +0.017 A 
BRANCH   9  15
ATOM     15  C   UNL     1      -1.865  -0.678  -0.606  0.00  0.00    +0.339 C 
ATOM     16  O   UNL     1      -0.880   0.027  -0.510  0.00  0.00    -0.245 OA
BRANCH  15  18
ATOM     17  C   UNL     1      -3.111   1.298  -0.994  0.00  0.00    +0.280 C 
ATOM     18  O   UNL     1      -3.068  -0.124  -0.855  0.00  0.00    -0.464 OA
ENDBRANCH  15  18
ENDBRANCH   9  15
ENDBRANCH   1  12
BRANCH   3  19
ATOM     19  C   UNL     1      -2.349  -5.364   2.800  0.00  0.00    +0.084 C 
ATOM     20  N   UNL     1      -1.082  -5.545   2.985  0.00  0.00    -0.390 N 
ATOM     21  N   UNL     1      -2.998  -4.348   3.450  0.00  0.00    -0.333 N 
ATOM     22  H   UNL     1      -0.591  -4.961   3.584  0.00  0.00    +0.157 HD
ATOM     23  H   UNL     1      -3.949  -4.213   3.311  0.00  0.00    +0.147 HD
ATOM     24  H   UNL     1      -0.622  -6.264   2.525  0.00  0.00    +0.157 HD
BRANCH  21  25
ATOM     25  C   UNL     1      -2.257  -3.466   4.355  0.00  0.00    +0.106 C 
BRANCH  25  26
ATOM     26  C   UNL     1      -3.210  -2.425   4.946  0.00  0.00    +0.006 C 
ATOM     27  C   UNL     1      -4.250  -3.125   5.824  0.00  0.00    +0.005 C 
ATOM     28  C   UNL     1      -5.202  -2.084   6.415  0.00  0.00    +0.000 C 
ATOM     29  C   UNL     1      -4.408  -1.088   7.261  0.00  0.00    +0.000 C 
ATOM     30  C   UNL     1      -3.369  -0.388   6.383  0.00  0.00    +0.000 C 
ATOM     31  C   UNL     1      -2.416  -1.429   5.793  0.00  0.00    +0.005 C 
ENDBRANCH  25  26
ENDBRANCH  21  25
ENDBRANCH   3  19
TORSDOF 6
