REMARK  Name = CHEMBL214901
REMARK  6 active torsions:
REMARK  status: ('A' for Active; 'I' for Inactive)
REMARK    1  A    between atoms: C_3  and  O_23
REMARK    2  A    between atoms: C_6  and  N_7
REMARK    3  A    between atoms: N_7  and  C_8
REMARK    4  A    between atoms: C_9  and  C_14
REMARK    5  A    between atoms: N_15  and  N_16
REMARK    6  A    between atoms: O_23  and  C_24
REMARK                            x       y       z     vdW  Elec       q    Type
REMARK                         _______ _______ _______ _____ _____    ______ ____
ROOT
ATOM      1  C   UNL     1      -1.860  -2.338   0.852  0.00  0.00    +0.102 A 
ATOM      2  C   UNL     1      -3.100  -2.964   0.975  0.00  0.00    +0.108 A 
ATOM      3  C   UNL     1      -3.043  -4.304   1.346  0.00  0.00    +0.268 A 
ATOM      4  N   UNL     1      -1.815  -4.821   1.536  0.00  0.00    -0.291 N 
ATOM      5  S   UNL     1      -0.768  -3.556   1.222  0.00  0.00    +0.005 S 
ATOM      6  O   UNL     1      -4.053  -4.976   1.492  0.00  0.00    -0.267 OA
ATOM      7  H   UNL     1      -1.587  -5.728   1.794  0.00  0.00    +0.177 HD
ENDROOT
BRANCH   2   8
ATOM      8  C   UNL     1      -4.374  -2.260   0.733  0.00  0.00    +0.121 C 
ATOM      9  N   UNL     1      -5.130  -2.607  -0.270  0.00  0.00    -0.295 N 
ATOM     10  N   UNL     1      -4.769  -1.223   1.576  0.00  0.00    -0.343 N 
ATOM     11  H   UNL     1      -4.178  -0.923   2.285  0.00  0.00    +0.144 HD
ATOM     12  H   UNL     1      -5.634  -0.801   1.455  0.00  0.00    +0.144 HD
ATOM     13  H   UNL     1      -4.868  -3.346  -0.842  0.00  0.00    +0.186 HD
BRANCH   9  14
ATOM     14  N   UNL     1      -6.322  -1.915  -0.522  0.00  0.00    -0.272 N 
ATOM     15  C   UNL     1      -7.509  -2.116   0.324  0.00  0.00    +0.152 C 
ATOM     16  C   UNL     1      -8.027  -0.742   0.764  0.00  0.00    +0.180 C 
ATOM     17  O   UNL     1      -8.202   0.086  -0.389  0.00  0.00    -0.377 OA
ATOM     18  C   UNL     1      -6.995   0.353  -1.106  0.00  0.00    +0.180 C 
ATOM     19  C   UNL     1      -6.421  -0.960  -1.638  0.00  0.00    +0.152 C 
ENDBRANCH   9  14
ENDBRANCH   2   8
BRANCH   1  20
ATOM     20  N   UNL     1      -1.595  -1.032   0.502  0.00  0.00    -0.307 N 
ATOM     21  H   UNL     1      -1.879  -0.694  -0.361  0.00  0.00    +0.153 HD
BRANCH  20  27
ATOM     22  C   UNL     1      -0.632   1.118   1.035  0.00  0.00    +0.027 A 
ATOM     23  C   UNL     1       0.037   1.945   1.915  0.00  0.00    +0.048 A 
ATOM     24  C   UNL     1       0.425   1.466   3.158  0.00  0.00    +0.129 A 
ATOM     25  C   UNL     1       0.142   0.157   3.518  0.00  0.00    +0.048 A 
ATOM     26  C   UNL     1      -0.527  -0.672   2.638  0.00  0.00    +0.027 A 
ATOM     27  C   UNL     1      -0.916  -0.193   1.394  0.00  0.00    +0.032 A 
BRANCH  24  28
ATOM     28  O   UNL     1       1.085   2.281   4.024  0.00  0.00    -0.455 OA
BRANCH  28  29
ATOM     29  C   UNL     1       0.373   3.253   4.653  0.00  0.00    +0.148 A 
ATOM     30  C   UNL     1      -0.974   3.425   4.366  0.00  0.00    +0.067 A 
ATOM     31  C   UNL     1      -1.695   4.414   5.007  0.00  0.00    +0.045 A 
ATOM     32  C   UNL     1      -1.076   5.234   5.934  0.00  0.00    +0.021 A 
ATOM     33  C   UNL     1       0.266   5.066   6.221  0.00  0.00    +0.025 A 
ATOM     34  C   UNL     1       0.991   4.073   5.588  0.00  0.00    +0.083 A 
ATOM     35 CL   UNL     1       2.673   3.857   5.955  0.00  0.00    -0.080 Cl
ATOM     36 CL   UNL     1      -3.380   4.629   4.648  0.00  0.00    -0.083 Cl
ENDBRANCH  28  29
ENDBRANCH  24  28
ENDBRANCH  20  27
ENDBRANCH   1  20
TORSDOF 6
