REMARK  Name = CHEMBL33906
REMARK  9 active torsions:
REMARK  status: ('A' for Active; 'I' for Inactive)
REMARK    1  A    between atoms: C_10  and  C_11
REMARK    2  A    between atoms: C_11  and  C_12
REMARK    3  A    between atoms: C_11  and  O_31
REMARK    4  A    between atoms: C_16  and  C_18
REMARK    5  A    between atoms: C_18  and  C_29
REMARK    6  A    between atoms: C_19  and  N_20
REMARK    7  A    between atoms: C_19  and  S_21
REMARK    8  A    between atoms: S_21  and  C_22
REMARK    9  A    between atoms: C_27  and  N_28
REMARK                            x       y       z     vdW  Elec       q    Type
REMARK                         _______ _______ _______ _____ _____    ______ ____
ROOT
ATOM      1  C   UNL     1       5.388   0.508  -1.544  0.00  0.00    -0.014 A 
ATOM      2  C   UNL     1       5.873  -0.456  -2.410  0.00  0.00    +0.006 A 
ATOM      3  C   UNL     1       6.117  -0.144  -3.735  0.00  0.00    +0.001 A 
ATOM      4  C   UNL     1       5.877   1.132  -4.202  0.00  0.00    +0.009 A 
ATOM      5  C   UNL     1       5.388   2.109  -3.334  0.00  0.00    -0.005 A 
ATOM      6  C   UNL     1       5.139   1.786  -1.999  0.00  0.00    +0.015 A 
ENDROOT
BRANCH   5   7
ATOM      7  C   UNL     1       5.129   3.480  -3.828  0.00  0.00    +0.086 C 
ATOM      8  C   UNL     1       4.142   3.700  -4.778  0.00  0.00    +0.082 C 
BRANCH   8   9
ATOM      9  N   UNL     1       3.406   2.647  -5.260  0.00  0.00    -0.352 N 
ATOM     10  H   UNL     1       3.622   1.741  -4.989  0.00  0.00    +0.143 HD
ATOM     11  H   UNL     1       2.671   2.808  -5.872  0.00  0.00    +0.143 HD
ENDBRANCH   8   9
BRANCH   7  12
ATOM     12  C   UNL     1       5.897   4.579  -3.325  0.00  0.00    +0.102 C 
ATOM     13  N   UNL     1       6.506   5.451  -2.926  0.00  0.00    -0.191 NA
ENDBRANCH   7  12
BRANCH   8  14
ATOM     14  S   UNL     1       3.834   5.332  -5.366  0.00  0.00    -0.072 S 
BRANCH  14  15
ATOM     15  C   UNL     1       2.213   5.698  -4.780  0.00  0.00    +0.035 A 
ATOM     16  C   UNL     1       1.560   4.808  -3.939  0.00  0.00    +0.017 A 
ATOM     17  C   UNL     1       0.289   5.097  -3.481  0.00  0.00    +0.001 A 
ATOM     18  C   UNL     1      -0.336   6.271  -3.858  0.00  0.00    +0.002 A 
ATOM     19  C   UNL     1       0.306   7.164  -4.695  0.00  0.00    +0.024 A 
ATOM     20  C   UNL     1       1.585   6.885  -5.156  0.00  0.00    +0.039 A 
BRANCH  20  21
ATOM     21  N   UNL     1       2.239   7.789  -5.999  0.00  0.00    -0.357 N 
ATOM     22  H   UNL     1       3.132   7.591  -6.323  0.00  0.00    +0.142 HD
ATOM     23  H   UNL     1       1.801   8.614  -6.259  0.00  0.00    +0.142 HD
ENDBRANCH  20  21
ENDBRANCH  14  15
ENDBRANCH   8  14
ENDBRANCH   5   7
BRANCH   1  24
ATOM     24  C   UNL     1       5.125   0.159  -0.101  0.00  0.00    +0.175 C 
BRANCH  24  34
ATOM     25  C   UNL     1       0.221   1.569   0.310  0.00  0.00    +0.001 A 
ATOM     26  C   UNL     1       1.433   2.251   0.210  0.00  0.00    +0.001 A 
ATOM     27  C   UNL     1       2.611   1.577   0.111  0.00  0.00    +0.009 A 
ATOM     28  C   UNL     1       2.609   0.172   0.110  0.00  0.00    -0.012 A 
ATOM     29  C   UNL     1       1.377  -0.522   0.212  0.00  0.00    -0.018 A 
ATOM     30  C   UNL     1       0.181   0.209   0.313  0.00  0.00    +0.008 A 
ATOM     31  C   UNL     1       1.376  -1.927   0.212  0.00  0.00    +0.008 A 
ATOM     32  C   UNL     1       2.554  -2.602   0.113  0.00  0.00    +0.001 A 
ATOM     33  C   UNL     1       3.765  -1.920   0.012  0.00  0.00    +0.007 A 
ATOM     34  C   UNL     1       3.805  -0.559   0.009  0.00  0.00    -0.007 A 
ENDBRANCH  24  34
BRANCH  24  35
ATOM     35  O   UNL     1       6.170  -0.687   0.382  0.00  0.00    -0.383 OA
ATOM     36  H   UNL     1       6.257  -1.520  -0.101  0.00  0.00    +0.211 HD
ENDBRANCH  24  35
ENDBRANCH   1  24
TORSDOF 9
