REMARK  Name = CHEMBL253116
REMARK  9 active torsions:
REMARK  status: ('A' for Active; 'I' for Inactive)
REMARK    1  A    between atoms: CB_1  and  CA_2
REMARK    2  A    between atoms: CA_2  and  C_3
REMARK    3  A    between atoms: CA_2  and  N_5
REMARK    4  A    between atoms: C_3  and  O_4
REMARK    5  A    between atoms: N_5  and  C_6
REMARK    6  A    between atoms: C_6  and  N_7
REMARK    7  A    between atoms: N_13  and  C_14
REMARK    8  A    between atoms: C_17  and  N_20
REMARK    9  A    between atoms: N_20  and  C_21
REMARK                            x       y       z     vdW  Elec       q    Type
REMARK                         _______ _______ _______ _____ _____    ______ ____
ROOT
ATOM      1  C   UNK A   0       2.645  -2.352  -0.686  0.00  0.00    +0.097 C 
ATOM      2  C   UNK A   0       3.038  -2.340  -2.026  0.00  0.00    +0.110 C 
ATOM      3  C   UNK A   0       2.165  -2.718  -3.117  0.00  0.00    +0.290 C 
ATOM      4  N   UNK A   0       2.616  -2.675  -4.335  0.00  0.00    -0.168 NA
ATOM      5  S   UNK A   0       4.200  -2.150  -4.226  0.00  0.00    +0.036 S 
ATOM      6  C   UNK A   0       4.339  -1.948  -2.462  0.00  0.00    +0.135 C 
ATOM      7  N   UNK A   0       5.378  -1.540  -1.742  0.00  0.00    -0.238 NA
ATOM      8  O   UNK A   0       0.890  -3.112  -2.870  0.00  0.00    -0.264 OA
ENDROOT
BRANCH   7   9
ATOM      9  C   UNK A   0       5.177  -0.825  -0.596  0.00  0.00    +0.065 A 
ATOM     10  C   UNK A   0       5.832  -1.192   0.584  0.00  0.00    +0.029 A 
ATOM     11  C   UNK A   0       5.627  -0.467   1.738  0.00  0.00    +0.025 A 
ATOM     12  C   UNK A   0       4.770   0.627   1.731  0.00  0.00    +0.031 A 
ATOM     13  C   UNK A   0       4.116   0.995   0.561  0.00  0.00    +0.025 A 
ATOM     14  C   UNK A   0       4.320   0.279  -0.600  0.00  0.00    +0.029 A 
BRANCH  12  15
ATOM     15  N   UNK A   0       4.563   1.360   2.906  0.00  0.00    -0.314 N 
ATOM     16  H   UNK A   0       3.718   1.813   3.053  0.00  0.00    +0.152 HD
BRANCH  15  17
ATOM     17  C   UNK A   0       5.575   1.439   3.866  0.00  0.00    +0.031 A 
ATOM     18  C   UNK A   0       6.908   1.365   3.482  0.00  0.00    +0.023 A 
ATOM     19  C   UNK A   0       7.905   1.443   4.434  0.00  0.00    +0.002 A 
ATOM     20  C   UNK A   0       7.578   1.595   5.769  0.00  0.00    +0.000 A 
ATOM     21  C   UNK A   0       6.252   1.670   6.155  0.00  0.00    +0.002 A 
ATOM     22  C   UNK A   0       5.250   1.598   5.208  0.00  0.00    +0.023 A 
ENDBRANCH  15  17
ENDBRANCH  12  15
ENDBRANCH   7   9
BRANCH   1  23
ATOM     23  N   UNK A   0       3.586  -2.414   0.300  0.00  0.00    -0.346 N 
ATOM     24  H   UNK A   0       4.330  -3.030   0.222  0.00  0.00    +0.143 HD
ATOM     25  H   UNK A   0       3.510  -1.841   1.080  0.00  0.00    +0.143 HD
ENDBRANCH   1  23
BRANCH   1  26
ATOM     26  N   ALA A   1       1.319  -2.301  -0.363  0.00  0.00    -0.327 N 
ATOM     27  H   ALA A   1       0.654  -2.194  -1.060  0.00  0.00    +0.148 HD
BRANCH  26  29
ATOM     28  CB  ALA A   1       0.965  -1.030   1.696  0.00  0.00    +0.030 C 
ATOM     29  CA  ALA A   1       0.902  -2.409   1.038  0.00  0.00    +0.094 C 
BRANCH  29  30
ATOM     30  C   ALA A   1      -0.531  -2.941   1.103  0.00  0.00    +0.177 C 
BRANCH  30  31
ATOM     31  O   ALA A   1      -1.420  -1.989   0.516  0.00  0.00    -0.393 OA
ATOM     32  H   ALA A   1      -2.348  -2.260   0.523  0.00  0.00    +0.209 HD
ENDBRANCH  30  31
ENDBRANCH  29  30
ENDBRANCH  26  29
ENDBRANCH   1  26
TORSDOF 8
