REMARK  Name = CHEMBL30516
REMARK  12 active torsions:
REMARK  status: ('A' for Active; 'I' for Inactive)
REMARK    1  A    between atoms: C_1  and  O_2
REMARK    2  A    between atoms: O_2  and  C_3
REMARK    3  A    between atoms: C_6  and  N_9
REMARK    4  A    between atoms: N_9  and  C_10
REMARK    5  A    between atoms: C_13  and  O_32
REMARK    6  A    between atoms: C_14  and  O_22
REMARK    7  A    between atoms: C_19  and  C_20
REMARK    8  A    between atoms: O_22  and  C_23
REMARK    9  A    between atoms: C_23  and  C_24
REMARK   10  A    between atoms: C_24  and  C_25
REMARK   11  A    between atoms: C_25  and  N_26
REMARK   12  A    between atoms: O_32  and  C_33
REMARK                            x       y       z     vdW  Elec       q    Type
REMARK                         _______ _______ _______ _____ _____    ______ ____
ROOT
ATOM      1  C   UNL     1       2.598  -3.830  -4.324  0.00  0.00    +0.060 A 
ATOM      2  C   UNL     1       3.560  -4.451  -5.155  0.00  0.00    +0.026 A 
ATOM      3  C   UNL     1       4.401  -3.691  -5.980  0.00  0.00    +0.061 A 
ATOM      4  C   UNL     1       5.321  -4.316  -6.772  0.00  0.00    +0.162 A 
ATOM      5  C   UNL     1       5.434  -5.714  -6.769  0.00  0.00    +0.164 A 
ATOM      6  C   UNL     1       4.620  -6.482  -5.968  0.00  0.00    +0.077 A 
ATOM      7  C   UNL     1       3.667  -5.863  -5.145  0.00  0.00    +0.077 A 
ATOM      8  N   UNL     1       2.866  -6.595  -4.357  0.00  0.00    -0.253 NA
ATOM      9  C   UNL     1       1.969  -6.047  -3.578  0.00  0.00    +0.132 A 
ATOM     10  C   UNL     1       1.796  -4.655  -3.521  0.00  0.00    +0.091 A 
ENDROOT
BRANCH   1  11
ATOM     11  N   UNL     1       2.457  -2.457  -4.301  0.00  0.00    -0.313 N 
ATOM     12  H   UNL     1       1.843  -2.022  -4.912  0.00  0.00    +0.152 HD
BRANCH  11  16
ATOM     13  C   UNL     1       4.673  -0.181  -1.601  0.00  0.00    +0.120 A 
ATOM     14  C   UNL     1       3.707   0.426  -2.391  0.00  0.00    +0.047 A 
ATOM     15  C   UNL     1       2.973  -0.327  -3.285  0.00  0.00    +0.027 A 
ATOM     16  C   UNL     1       3.201  -1.693  -3.395  0.00  0.00    +0.032 A 
ATOM     17  C   UNL     1       4.169  -2.300  -2.604  0.00  0.00    +0.027 A 
ATOM     18  C   UNL     1       4.906  -1.544  -1.714  0.00  0.00    +0.047 A 
BRANCH  13  20
ATOM     19  C   UNL     1       5.103   1.959  -0.657  0.00  0.00    +0.277 C 
ATOM     20  O   UNL     1       5.396   0.561  -0.721  0.00  0.00    -0.495 OA
ENDBRANCH  13  20
ENDBRANCH  11  16
ENDBRANCH   1  11
BRANCH  10  21
ATOM     21  C   UNL     1       0.809  -4.083  -2.655  0.00  0.00    +0.103 C 
ATOM     22  N   UNL     1       0.026  -3.629  -1.969  0.00  0.00    -0.191 NA
ENDBRANCH  10  21
BRANCH   4  23
ATOM     23  O   UNL     1       6.136  -3.576  -7.571  0.00  0.00    -0.491 OA
ATOM     24  C   UNL     1       5.971  -2.158  -7.529  0.00  0.00    +0.277 C 
ENDBRANCH   4  23
BRANCH   5  25
ATOM     25  O   UNL     1       6.355  -6.315  -7.565  0.00  0.00    -0.488 OA
BRANCH  25  26
ATOM     26  C   UNL     1       6.421  -7.742  -7.517  0.00  0.00    +0.230 C 
BRANCH  26  27
ATOM     27  C   UNL     1       7.509  -8.235  -8.473  0.00  0.00    +0.056 C 
BRANCH  27  28
ATOM     28  C   UNL     1       7.580  -9.762  -8.422  0.00  0.00    +0.088 C 
BRANCH  28  29
ATOM     29  N   UNL     1       8.624 -10.235  -9.340  0.00  0.00    -0.298 NA
ATOM     30  C   UNL     1       8.264  -9.955 -10.738  0.00  0.00    +0.112 C 
ATOM     31  C   UNL     1       9.403 -10.409 -11.654  0.00  0.00    +0.175 C 
ATOM     32  O   UNL     1       9.664 -11.797 -11.430  0.00  0.00    -0.377 OA
ATOM     33  C   UNL     1      10.019 -12.106 -10.079  0.00  0.00    +0.175 C 
ATOM     34  C   UNL     1       8.886 -11.669  -9.147  0.00  0.00    +0.112 C 
ENDBRANCH  28  29
ENDBRANCH  27  28
ENDBRANCH  26  27
ENDBRANCH  25  26
ENDBRANCH   5  25
TORSDOF 10
