REMARK  Name = CHEMBL521320
REMARK  11 active torsions:
REMARK  status: ('A' for Active; 'I' for Inactive)
REMARK    1  A    between atoms: C_1  and  C_2
REMARK    2  A    between atoms: C_2  and  N_3
REMARK    3  A    between atoms: N_6  and  C_9
REMARK    4  A    between atoms: C_9  and  C_10
REMARK    5  A    between atoms: C_11  and  C_12
REMARK    6  A    between atoms: C_20  and  C_37
REMARK    7  A    between atoms: C_21  and  N_22
REMARK    8  A    between atoms: N_22  and  C_23
REMARK    9  A    between atoms: C_26  and  S_30
REMARK   10  A    between atoms: S_30  and  C_31
REMARK   11  A    between atoms: N_35  and  C_36
REMARK                            x       y       z     vdW  Elec       q    Type
REMARK                         _______ _______ _______ _____ _____    ______ ____
ROOT
ATOM      1  C   UNL     1      -9.079  -9.137   1.551  0.00  0.00    -0.023 A 
ATOM      2  C   UNL     1      -8.346  -9.900   0.627  0.00  0.00    +0.009 A 
ATOM      3  C   UNL     1      -7.089 -10.326   0.923  0.00  0.00    +0.012 A 
ATOM      4  C   UNL     1      -6.512 -10.003   2.161  0.00  0.00    +0.023 A 
ATOM      5  C   UNL     1      -7.239  -9.234   3.103  0.00  0.00    +0.073 A 
ATOM      6  C   UNL     1      -8.531  -8.799   2.778  0.00  0.00    +0.036 A 
ATOM      7  N   UNL     1      -6.691  -8.922   4.287  0.00  0.00    -0.254 NA
ATOM      8  C   UNL     1      -5.485  -9.308   4.617  0.00  0.00    +0.132 A 
ATOM      9  C   UNL     1      -4.693 -10.072   3.745  0.00  0.00    +0.091 A 
ATOM     10  C   UNL     1      -5.206 -10.434   2.490  0.00  0.00    +0.060 A 
ENDROOT
BRANCH   1  12
ATOM     11  C   UNL     1     -10.973  -9.004   0.035  0.00  0.00    -0.011 C 
ATOM     12  C   UNL     1     -10.443  -8.684   1.208  0.00  0.00    +0.005 C 
BRANCH  11  13
ATOM     13  C   UNL     1     -12.364  -8.543  -0.315  0.00  0.00    +0.111 C 
BRANCH  13  17
ATOM     14  N   UNL     1     -13.187  -7.239  -4.251  0.00  0.00    +0.381 N 
ATOM     15  C   UNL     1     -13.520  -6.337  -3.140  0.00  0.00    -0.063 C 
ATOM     16  C   UNL     1     -13.616  -7.139  -1.841  0.00  0.00    +0.066 C 
ATOM     17  N   UNL     1     -12.331  -7.806  -1.585  0.00  0.00    -0.302 NA
ATOM     18  C   UNL     1     -11.972  -8.694  -2.700  0.00  0.00    +0.066 C 
ATOM     19  C   UNL     1     -11.890  -7.878  -3.992  0.00  0.00    -0.063 C 
ATOM     20  H   UNL     1     -13.901  -7.947  -4.333  0.00  0.00    -0.082 HD
BRANCH  14  22
ATOM     21  C   UNL     1     -14.496  -5.907  -5.835  0.00  0.00    -0.017 C 
ATOM     22  C   UNL     1     -13.114  -6.471  -5.500  0.00  0.00    -0.082 C 
ENDBRANCH  14  22
ENDBRANCH  13  17
ENDBRANCH  11  13
ENDBRANCH   1  12
BRANCH  10  23
ATOM     23  N   UNL     1      -4.460 -11.186   1.606  0.00  0.00    -0.313 N 
ATOM     24  H   UNL     1      -3.842 -10.749   0.999  0.00  0.00    +0.152 HD
BRANCH  23  25
ATOM     25  C   UNL     1      -4.596 -12.579   1.583  0.00  0.00    +0.033 A 
ATOM     26  C   UNL     1      -5.577 -13.193   2.350  0.00  0.00    +0.024 A 
ATOM     27  C   UNL     1      -5.711 -14.567   2.329  0.00  0.00    +0.018 A 
ATOM     28  C   UNL     1      -4.864 -15.335   1.541  0.00  0.00    +0.034 A 
ATOM     29  C   UNL     1      -3.881 -14.721   0.773  0.00  0.00    +0.057 A 
ATOM     30  C   UNL     1      -3.752 -13.346   0.790  0.00  0.00    +0.044 A 
ATOM     31 CL   UNL     1      -2.822 -15.681  -0.212  0.00  0.00    -0.082 Cl
BRANCH  28  32
ATOM     32  S   UNL     1      -5.034 -17.089   1.515  0.00  0.00    -0.050 S 
BRANCH  32  33
ATOM     33  C   UNL     1      -5.802 -17.420  -0.036  0.00  0.00    +0.173 A 
ATOM     34  N   UNL     1      -6.227 -16.518  -0.890  0.00  0.00    -0.230 NA
ATOM     35  C   UNL     1      -6.756 -17.135  -1.960  0.00  0.00    +0.131 A 
ATOM     36  C   UNL     1      -6.660 -18.462  -1.774  0.00  0.00    +0.107 A 
ATOM     37  N   UNL     1      -6.050 -18.654  -0.555  0.00  0.00    -0.328 N 
ATOM     38  C   UNL     1      -5.731 -19.941   0.068  0.00  0.00    +0.151 C 
ENDBRANCH  32  33
ENDBRANCH  28  32
ENDBRANCH  23  25
ENDBRANCH  10  23
BRANCH   9  39
ATOM     39  C   UNL     1      -3.376 -10.479   4.134  0.00  0.00    +0.103 C 
ATOM     40  N   UNL     1      -2.332 -10.802   4.442  0.00  0.00    -0.191 NA
ENDBRANCH   9  39
TORSDOF 9
