REMARK  Name = CHEMBL287959
REMARK  9 active torsions:
REMARK  status: ('A' for Active; 'I' for Inactive)
REMARK    1  A    between atoms: C_6  and  C_11
REMARK    2  A    between atoms: C_11  and  C_12
REMARK    3  A    between atoms: C_11  and  O_31
REMARK    4  A    between atoms: C_16  and  C_18
REMARK    5  A    between atoms: C_18  and  C_29
REMARK    6  A    between atoms: C_19  and  N_20
REMARK    7  A    between atoms: C_19  and  S_21
REMARK    8  A    between atoms: S_21  and  C_22
REMARK    9  A    between atoms: C_27  and  N_28
REMARK                            x       y       z     vdW  Elec       q    Type
REMARK                         _______ _______ _______ _____ _____    ______ ____
ROOT
ATOM      1  C   UNL     1       5.525  -3.001   1.158  0.00  0.00    -0.014 A 
ATOM      2  C   UNL     1       4.969  -4.199   1.572  0.00  0.00    +0.006 A 
ATOM      3  C   UNL     1       5.193  -4.665   2.856  0.00  0.00    +0.001 A 
ATOM      4  C   UNL     1       5.972  -3.936   3.731  0.00  0.00    +0.009 A 
ATOM      5  C   UNL     1       6.535  -2.728   3.319  0.00  0.00    -0.005 A 
ATOM      6  C   UNL     1       6.311  -2.267   2.021  0.00  0.00    +0.015 A 
ENDROOT
BRANCH   5   7
ATOM      7  C   UNL     1       7.372  -1.942   4.253  0.00  0.00    +0.086 C 
ATOM      8  C   UNL     1       8.580  -2.456   4.704  0.00  0.00    +0.082 C 
BRANCH   8   9
ATOM      9  N   UNL     1       9.355  -1.727   5.570  0.00  0.00    -0.352 N 
ATOM     10  H   UNL     1       9.097  -0.824   5.809  0.00  0.00    +0.143 HD
ATOM     11  H   UNL     1      10.163  -2.116   5.942  0.00  0.00    +0.143 HD
ENDBRANCH   8   9
BRANCH   7  12
ATOM     12  C   UNL     1       6.936  -0.650   4.691  0.00  0.00    +0.102 C 
ATOM     13  N   UNL     1       6.590   0.374   5.039  0.00  0.00    -0.191 NA
ENDBRANCH   7  12
BRANCH   8  14
ATOM     14  S   UNL     1       9.117  -4.045   4.165  0.00  0.00    -0.072 S 
BRANCH  14  15
ATOM     15  C   UNL     1       9.087  -5.025   5.629  0.00  0.00    +0.035 A 
ATOM     16  C   UNL     1       8.584  -4.497   6.809  0.00  0.00    +0.017 A 
ATOM     17  C   UNL     1       8.561  -5.268   7.956  0.00  0.00    +0.001 A 
ATOM     18  C   UNL     1       9.039  -6.565   7.933  0.00  0.00    +0.002 A 
ATOM     19  C   UNL     1       9.543  -7.099   6.761  0.00  0.00    +0.024 A 
ATOM     20  C   UNL     1       9.564  -6.336   5.604  0.00  0.00    +0.039 A 
BRANCH  20  21
ATOM     21  N   UNL     1      10.068  -6.876   4.415  0.00  0.00    -0.357 N 
ATOM     22  H   UNL     1      10.085  -6.340   3.608  0.00  0.00    +0.142 HD
ATOM     23  H   UNL     1      10.399  -7.788   4.400  0.00  0.00    +0.142 HD
ENDBRANCH  20  21
ENDBRANCH  14  15
ENDBRANCH   8  14
ENDBRANCH   5   7
BRANCH   1  24
ATOM     24  C   UNL     1       5.277  -2.502  -0.242  0.00  0.00    +0.175 C 
BRANCH  24  30
ATOM     25  C   UNL     1       0.372   1.698  -0.356  0.00  0.00    +0.001 A 
ATOM     26  C   UNL     1       1.576   2.397  -0.287  0.00  0.00    +0.001 A 
ATOM     27  C   UNL     1       2.767   1.740  -0.251  0.00  0.00    +0.008 A 
ATOM     28  C   UNL     1       2.787   0.335  -0.283  0.00  0.00    -0.018 A 
ATOM     29  C   UNL     1       3.997  -0.379  -0.247  0.00  0.00    +0.015 A 
ATOM     30  C   UNL     1       3.977  -1.740  -0.280  0.00  0.00    -0.014 A 
ATOM     31  C   UNL     1       2.773  -2.438  -0.349  0.00  0.00    +0.007 A 
ATOM     32  C   UNL     1       1.582  -1.781  -0.385  0.00  0.00    +0.009 A 
ATOM     33  C   UNL     1       1.562  -0.376  -0.353  0.00  0.00    -0.018 A 
ATOM     34  C   UNL     1       0.352   0.338  -0.389  0.00  0.00    +0.008 A 
ENDBRANCH  24  30
BRANCH  24  35
ATOM     35  O   UNL     1       5.204  -3.612  -1.139  0.00  0.00    -0.383 OA
ATOM     36  H   UNL     1       4.498  -4.240  -0.930  0.00  0.00    +0.211 HD
ENDBRANCH  24  35
ENDBRANCH   1  24
TORSDOF 9
