REMARK  Name = CHEMBL201716
REMARK  10 active torsions:
REMARK  status: ('A' for Active; 'I' for Inactive)
REMARK    1  A    between atoms: C_1  and  C_2
REMARK    2  A    between atoms: C_3  and  O_27
REMARK    3  A    between atoms: C_7  and  N_13
REMARK    4  A    between atoms: C_8  and  C_11
REMARK    5  A    between atoms: N_13  and  C_14
REMARK    6  A    between atoms: C_17  and  O_20
REMARK    7  A    between atoms: O_20  and  C_21
REMARK    8  A    between atoms: O_27  and  C_28
REMARK    9  A    between atoms: C_28  and  C_29
REMARK   10  A    between atoms: C_29  and  N_30
REMARK                            x       y       z     vdW  Elec       q    Type
REMARK                         _______ _______ _______ _____ _____    ______ ____
ROOT
ATOM      1  C   UNL     1      -0.157   1.723   0.714  0.00  0.00    +0.050 C 
ATOM      2  C   UNL     1      -0.437   0.270   0.430  0.00  0.00    +0.020 A 
ATOM      3  C   UNL     1      -1.215  -0.238  -0.614  0.00  0.00    +0.143 A 
ATOM      4  C   UNL     1      -1.213  -1.597  -0.514  0.00  0.00    +0.159 A 
ATOM      5  N   UNL     1      -0.461  -1.961   0.557  0.00  0.00    -0.234 N 
ATOM      6  C   UNL     1       0.033  -0.818   1.150  0.00  0.00    +0.094 A 
ATOM      7  C   UNL     1       0.857  -0.925   2.291  0.00  0.00    +0.077 A 
ATOM      8  C   UNL     1       1.153  -2.201   2.786  0.00  0.00    +0.095 A 
ATOM      9  C   UNL     1       0.622  -3.338   2.135  0.00  0.00    +0.154 A 
ATOM     10  N   UNL     1      -0.143  -3.217   1.089  0.00  0.00    -0.173 NA
ENDROOT
BRANCH   8  11
ATOM     11  C   UNL     1       1.986  -2.353   3.941  0.00  0.00    +0.103 C 
ATOM     12  N   UNL     1       2.647  -2.473   4.857  0.00  0.00    -0.191 NA
ENDBRANCH   8  11
BRANCH   7  13
ATOM     13  N   UNL     1       1.361   0.205   2.905  0.00  0.00    -0.312 N 
ATOM     14  H   UNL     1       1.093   0.425   3.811  0.00  0.00    +0.152 HD
BRANCH  13  15
ATOM     15  C   UNL     1       2.260   1.032   2.221  0.00  0.00    +0.032 A 
ATOM     16  C   UNL     1       2.747   0.649   0.978  0.00  0.00    +0.027 A 
ATOM     17  C   UNL     1       3.633   1.466   0.303  0.00  0.00    +0.048 A 
ATOM     18  C   UNL     1       4.037   2.667   0.867  0.00  0.00    +0.129 A 
ATOM     19  C   UNL     1       3.550   3.050   2.109  0.00  0.00    +0.048 A 
ATOM     20  C   UNL     1       2.660   2.238   2.782  0.00  0.00    +0.027 A 
BRANCH  18  21
ATOM     21  O   UNL     1       4.909   3.470   0.202  0.00  0.00    -0.456 OA
BRANCH  21  22
ATOM     22  C   UNL     1       5.212   4.676   0.751  0.00  0.00    +0.128 A 
ATOM     23  C   UNL     1       6.104   4.753   1.811  0.00  0.00    +0.046 A 
ATOM     24  C   UNL     1       6.410   5.980   2.367  0.00  0.00    +0.004 A 
ATOM     25  C   UNL     1       5.828   7.131   1.867  0.00  0.00    +0.000 A 
ATOM     26  C   UNL     1       4.939   7.057   0.811  0.00  0.00    +0.004 A 
ATOM     27  C   UNL     1       4.633   5.833   0.248  0.00  0.00    +0.046 A 
ENDBRANCH  21  22
ENDBRANCH  18  21
ENDBRANCH  13  15
ENDBRANCH   7  13
BRANCH   3  28
ATOM     28  O   UNL     1      -1.860   0.495  -1.563  0.00  0.00    -0.492 OA
BRANCH  28  29
ATOM     29  C   UNL     1      -2.605  -0.228  -2.545  0.00  0.00    +0.211 C 
BRANCH  29  30
ATOM     30  C   UNL     1      -3.255   0.758  -3.518  0.00  0.00    -0.037 C 
BRANCH  30  31
ATOM     31  N   UNL     1      -2.210   1.496  -4.240  0.00  0.00    +0.385 N 
ATOM     32  C   UNL     1      -2.828   2.551  -5.055  0.00  0.00    -0.050 C 
ATOM     33  C   UNL     1      -1.736   3.318  -5.805  0.00  0.00    +0.141 C 
ATOM     34  O   UNL     1      -0.986   2.404  -6.610  0.00  0.00    -0.383 OA
ATOM     35  C   UNL     1      -0.384   1.343  -5.864  0.00  0.00    +0.141 C 
ATOM     36  C   UNL     1      -1.472   0.572  -5.114  0.00  0.00    -0.050 C 
ATOM     37  H   UNL     1      -1.573   1.912  -3.577  0.00  0.00    -0.081 HD
ENDBRANCH  30  31
ENDBRANCH  29  30
ENDBRANCH  28  29
ENDBRANCH   3  28
TORSDOF 9
