REMARK  Name = CHEMBL287959
REMARK  9 active torsions:
REMARK  status: ('A' for Active; 'I' for Inactive)
REMARK    1  A    between atoms: C_6  and  C_11
REMARK    2  A    between atoms: C_11  and  C_12
REMARK    3  A    between atoms: C_11  and  O_31
REMARK    4  A    between atoms: C_16  and  C_18
REMARK    5  A    between atoms: C_18  and  C_29
REMARK    6  A    between atoms: C_19  and  N_20
REMARK    7  A    between atoms: C_19  and  S_21
REMARK    8  A    between atoms: S_21  and  C_22
REMARK    9  A    between atoms: C_27  and  N_28
REMARK                            x       y       z     vdW  Elec       q    Type
REMARK                         _______ _______ _______ _____ _____    ______ ____
ROOT
ATOM      1  C   UNL     1       5.301  -3.226   1.418  0.00  0.00    -0.014 A 
ATOM      2  C   UNL     1       4.896  -4.479   1.845  0.00  0.00    +0.006 A 
ATOM      3  C   UNL     1       5.275  -4.947   3.090  0.00  0.00    +0.001 A 
ATOM      4  C   UNL     1       6.059  -4.167   3.915  0.00  0.00    +0.009 A 
ATOM      5  C   UNL     1       6.470  -2.903   3.491  0.00  0.00    -0.005 A 
ATOM      6  C   UNL     1       6.089  -2.438   2.231  0.00  0.00    +0.015 A 
ENDROOT
BRANCH   5   7
ATOM      7  C   UNL     1       7.311  -2.061   4.371  0.00  0.00    +0.086 C 
ATOM      8  C   UNL     1       8.596  -2.469   4.701  0.00  0.00    +0.082 C 
BRANCH   8   9
ATOM      9  N   UNL     1       9.086  -3.653   4.211  0.00  0.00    -0.352 N 
ATOM     10  H   UNL     1       8.513  -4.238   3.691  0.00  0.00    +0.143 HD
ATOM     11  H   UNL     1      10.007  -3.905   4.384  0.00  0.00    +0.143 HD
ENDBRANCH   8   9
BRANCH   7  12
ATOM     12  C   UNL     1       6.799  -0.826   4.882  0.00  0.00    +0.102 C 
ATOM     13  N   UNL     1       6.392   0.155   5.288  0.00  0.00    -0.191 NA
ENDBRANCH   7  12
BRANCH   8  14
ATOM     14  S   UNL     1       9.597  -1.467   5.748  0.00  0.00    -0.072 S 
BRANCH  14  15
ATOM     15  C   UNL     1      10.909  -0.933   4.701  0.00  0.00    +0.035 A 
ATOM     16  C   UNL     1      10.887  -1.237   3.348  0.00  0.00    +0.017 A 
ATOM     17  C   UNL     1      11.917  -0.817   2.528  0.00  0.00    +0.001 A 
ATOM     18  C   UNL     1      12.973  -0.094   3.052  0.00  0.00    +0.002 A 
ATOM     19  C   UNL     1      13.004   0.214   4.399  0.00  0.00    +0.024 A 
ATOM     20  C   UNL     1      11.971  -0.199   5.229  0.00  0.00    +0.039 A 
BRANCH  20  21
ATOM     21  N   UNL     1      11.998   0.117   6.592  0.00  0.00    -0.357 N 
ATOM     22  H   UNL     1      11.277  -0.176   7.171  0.00  0.00    +0.142 HD
ATOM     23  H   UNL     1      12.737   0.627   6.957  0.00  0.00    +0.142 HD
ENDBRANCH  20  21
ENDBRANCH  14  15
ENDBRANCH   8  14
ENDBRANCH   5   7
BRANCH   1  24
ATOM     24  C   UNL     1       4.884  -2.723   0.060  0.00  0.00    +0.175 C 
BRANCH  24  30
ATOM     25  C   UNL     1      -0.376   1.000   0.492  0.00  0.00    +0.001 A 
ATOM     26  C   UNL     1       0.760   1.807   0.477  0.00  0.00    +0.001 A 
ATOM     27  C   UNL     1       2.005   1.263   0.391  0.00  0.00    +0.008 A 
ATOM     28  C   UNL     1       2.151  -0.133   0.316  0.00  0.00    -0.018 A 
ATOM     29  C   UNL     1       3.420  -0.730   0.226  0.00  0.00    +0.015 A 
ATOM     30  C   UNL     1       3.522  -2.086   0.156  0.00  0.00    -0.014 A 
ATOM     31  C   UNL     1       2.386  -2.893   0.172  0.00  0.00    +0.007 A 
ATOM     32  C   UNL     1       1.141  -2.349   0.258  0.00  0.00    +0.009 A 
ATOM     33  C   UNL     1       0.996  -0.953   0.332  0.00  0.00    -0.018 A 
ATOM     34  C   UNL     1      -0.273  -0.356   0.422  0.00  0.00    +0.008 A 
ENDBRANCH  24  30
BRANCH  24  35
ATOM     35  O   UNL     1       4.834  -3.817  -0.858  0.00  0.00    -0.383 OA
ATOM     36  H   UNL     1       4.211  -4.512  -0.608  0.00  0.00    +0.211 HD
ENDBRANCH  24  35
ENDBRANCH   1  24
TORSDOF 9
