REMARK  Name = CHEMBL383858
REMARK  7 active torsions:
REMARK  status: ('A' for Active; 'I' for Inactive)
REMARK    1  A    between atoms: C_1  and  N_2
REMARK    2  A    between atoms: N_5  and  N_8
REMARK    3  A    between atoms: C_9  and  C_10
REMARK    4  A    between atoms: C_14  and  N_15
REMARK    5  A    between atoms: N_15  and  C_16
REMARK    6  A    between atoms: C_19  and  O_22
REMARK    7  A    between atoms: O_22  and  C_23
REMARK                            x       y       z     vdW  Elec       q    Type
REMARK                         _______ _______ _______ _____ _____    ______ ____
ROOT
ATOM      1  C   UNL     1       4.133  -4.590   0.205  0.00  0.00    +0.108 A 
ATOM      2  C   UNL     1       3.779  -5.907  -0.073  0.00  0.00    +0.268 A 
ATOM      3  N   UNL     1       4.756  -6.826   0.039  0.00  0.00    -0.291 N 
ATOM      4  S   UNL     1       6.107  -5.957   0.501  0.00  0.00    +0.005 S 
ATOM      5  C   UNL     1       5.470  -4.407   0.559  0.00  0.00    +0.102 A 
ATOM      6  O   UNL     1       2.643  -6.212  -0.400  0.00  0.00    -0.267 OA
ATOM      7  H   UNL     1       4.691  -7.782  -0.115  0.00  0.00    +0.177 HD
ENDROOT
BRANCH   1   9
ATOM      8  N   UNL     1       1.911  -3.714  -0.100  0.00  0.00    -0.295 N 
ATOM      9  C   UNL     1       3.172  -3.473   0.126  0.00  0.00    +0.121 C 
ATOM     10  N   UNL     1       3.611  -2.161   0.293  0.00  0.00    -0.343 N 
ATOM     11  H   UNL     1       2.970  -1.434   0.311  0.00  0.00    +0.144 HD
ATOM     12  H   UNL     1       4.559  -1.976   0.391  0.00  0.00    +0.144 HD
ATOM     13  H   UNL     1       1.619  -4.616  -0.305  0.00  0.00    +0.186 HD
BRANCH   8  18
ATOM     14  C   UNL     1      -0.043   1.400   0.020  0.00  0.00    +0.105 C 
ATOM     15  N   UNL     1      -0.018  -0.069   0.014  0.00  0.00    -0.302 NA
ATOM     16  C   UNL     1       0.565  -0.581  -1.233  0.00  0.00    +0.104 C 
ATOM     17  C   UNL     1       0.408  -2.105  -1.279  0.00  0.00    +0.139 C 
ATOM     18  N   UNL     1       0.978  -2.671  -0.047  0.00  0.00    -0.274 N 
ATOM     19  C   UNL     1       0.542  -2.112   1.242  0.00  0.00    +0.139 C 
ATOM     20  C   UNL     1       0.694  -0.588   1.189  0.00  0.00    +0.104 C 
ENDBRANCH   8  18
ENDBRANCH   1   9
BRANCH   5  21
ATOM     21  N   UNL     1       6.114  -3.232   0.882  0.00  0.00    -0.307 N 
ATOM     22  H   UNL     1       6.143  -2.503   0.242  0.00  0.00    +0.153 HD
BRANCH  21  23
ATOM     23  C   UNL     1       6.725  -3.090   2.133  0.00  0.00    +0.032 A 
ATOM     24  C   UNL     1       6.762  -4.163   3.014  0.00  0.00    +0.027 A 
ATOM     25  C   UNL     1       7.365  -4.022   4.248  0.00  0.00    +0.048 A 
ATOM     26  C   UNL     1       7.934  -2.808   4.608  0.00  0.00    +0.129 A 
ATOM     27  C   UNL     1       7.898  -1.736   3.728  0.00  0.00    +0.048 A 
ATOM     28  C   UNL     1       7.300  -1.877   2.491  0.00  0.00    +0.027 A 
BRANCH  26  29
ATOM     29  O   UNL     1       8.527  -2.670   5.823  0.00  0.00    -0.455 OA
BRANCH  29  30
ATOM     30  C   UNL     1       9.754  -3.227   6.002  0.00  0.00    +0.148 A 
ATOM     31  C   UNL     1      10.416  -3.809   4.930  0.00  0.00    +0.067 A 
ATOM     32  C   UNL     1      11.664  -4.374   5.114  0.00  0.00    +0.045 A 
ATOM     33  C   UNL     1      12.254  -4.359   6.366  0.00  0.00    +0.021 A 
ATOM     34  C   UNL     1      11.597  -3.780   7.435  0.00  0.00    +0.025 A 
ATOM     35  C   UNL     1      10.351  -3.208   7.255  0.00  0.00    +0.083 A 
ATOM     36 CL   UNL     1       9.530  -2.475   8.597  0.00  0.00    -0.080 Cl
ATOM     37 CL   UNL     1      12.492  -5.102   3.773  0.00  0.00    -0.083 Cl
ENDBRANCH  29  30
ENDBRANCH  26  29
ENDBRANCH  21  23
ENDBRANCH   5  21
TORSDOF 6
