REMARK  Name = CHEMBL30728
REMARK  12 active torsions:
REMARK  status: ('A' for Active; 'I' for Inactive)
REMARK    1  A    between atoms: C_1  and  O_2
REMARK    2  A    between atoms: O_2  and  C_3
REMARK    3  A    between atoms: C_8  and  O_9
REMARK    4  A    between atoms: O_9  and  C_10
REMARK    5  A    between atoms: C_10  and  C_11
REMARK    6  A    between atoms: C_11  and  C_12
REMARK    7  A    between atoms: C_12  and  N_13
REMARK    8  A    between atoms: C_21  and  C_37
REMARK    9  A    between atoms: C_22  and  N_23
REMARK   10  A    between atoms: N_23  and  C_24
REMARK   11  A    between atoms: C_27  and  C_30
REMARK   12  A    between atoms: C_30  and  C_31
REMARK                            x       y       z     vdW  Elec       q    Type
REMARK                         _______ _______ _______ _____ _____    ______ ____
ROOT
ATOM      1  C   UNL     1       5.338  -0.554   2.062  0.00  0.00    +0.162 A 
ATOM      2  C   UNL     1       4.395   0.177   2.725  0.00  0.00    +0.061 A 
ATOM      3  C   UNL     1       3.399  -0.476   3.465  0.00  0.00    +0.026 A 
ATOM      4  C   UNL     1       3.375  -1.891   3.523  0.00  0.00    +0.077 A 
ATOM      5  C   UNL     1       4.356  -2.620   2.834  0.00  0.00    +0.077 A 
ATOM      6  C   UNL     1       5.319  -1.955   2.109  0.00  0.00    +0.164 A 
ATOM      7  N   UNL     1       2.425  -2.522   4.229  0.00  0.00    -0.253 NA
ATOM      8  C   UNL     1       1.497  -1.870   4.881  0.00  0.00    +0.132 A 
ATOM      9  C   UNL     1       1.444  -0.467   4.879  0.00  0.00    +0.091 A 
ATOM     10  C   UNL     1       2.409   0.256   4.161  0.00  0.00    +0.060 A 
ENDROOT
BRANCH   1  12
ATOM     11  C   UNL     1       6.269   1.511   1.337  0.00  0.00    +0.277 C 
ATOM     12  O   UNL     1       6.303   0.082   1.345  0.00  0.00    -0.491 OA
ENDBRANCH   1  12
BRANCH  10  13
ATOM     13  N   UNL     1       2.393   1.636   4.134  0.00  0.00    -0.313 N 
ATOM     14  H   UNL     1       1.850   2.102   3.479  0.00  0.00    +0.152 HD
BRANCH  13  15
ATOM     15  C   UNL     1       3.159   2.362   5.051  0.00  0.00    +0.031 A 
ATOM     16  C   UNL     1       4.038   1.702   5.899  0.00  0.00    +0.023 A 
ATOM     17  C   UNL     1       4.793   2.423   6.804  0.00  0.00    +0.006 A 
ATOM     18  C   UNL     1       4.674   3.799   6.865  0.00  0.00    -0.043 A 
ATOM     19  C   UNL     1       3.799   4.459   6.022  0.00  0.00    +0.006 A 
ATOM     20  C   UNL     1       3.046   3.745   5.111  0.00  0.00    +0.023 A 
BRANCH  18  21
ATOM     21  C   UNL     1       5.499   4.582   7.854  0.00  0.00    +0.070 C 
BRANCH  21  22
ATOM     22  C   UNL     1       6.807   4.976   7.218  0.00  0.00    -0.043 A 
ATOM     23  C   UNL     1       7.901   4.137   7.311  0.00  0.00    +0.004 A 
ATOM     24  C   UNL     1       9.101   4.498   6.727  0.00  0.00    +0.000 A 
ATOM     25  C   UNL     1       9.206   5.698   6.049  0.00  0.00    +0.000 A 
ATOM     26  C   UNL     1       8.111   6.536   5.954  0.00  0.00    +0.000 A 
ATOM     27  C   UNL     1       6.910   6.173   6.535  0.00  0.00    +0.004 A 
ENDBRANCH  21  22
ENDBRANCH  18  21
ENDBRANCH  13  15
ENDBRANCH  10  13
BRANCH   9  28
ATOM     28  C   UNL     1       0.416   0.220   5.602  0.00  0.00    +0.103 C 
ATOM     29  N   UNL     1      -0.399   0.765   6.175  0.00  0.00    -0.191 NA
ENDBRANCH   9  28
BRANCH   6  30
ATOM     30  O   UNL     1       6.263  -2.663   1.437  0.00  0.00    -0.488 OA
BRANCH  30  31
ATOM     31  C   UNL     1       6.190  -4.088   1.524  0.00  0.00    +0.227 C 
BRANCH  31  32
ATOM     32  C   UNL     1       7.327  -4.708   0.710  0.00  0.00    +0.022 C 
BRANCH  32  33
ATOM     33  C   UNL     1       7.248  -6.233   0.803  0.00  0.00    -0.075 C 
BRANCH  33  34
ATOM     34  N   UNL     1       8.340  -6.828   0.021  0.00  0.00    +0.383 N 
ATOM     35  C   UNL     1       8.150  -6.516  -1.402  0.00  0.00    -0.050 C 
ATOM     36  C   UNL     1       9.289  -7.137  -2.215  0.00  0.00    +0.141 C 
ATOM     37  O   UNL     1       9.317  -8.549  -1.986  0.00  0.00    -0.383 OA
ATOM     38  C   UNL     1       9.476  -8.904  -0.609  0.00  0.00    +0.141 C 
ATOM     39  C   UNL     1       8.337  -8.286   0.206  0.00  0.00    -0.050 C 
ATOM     40  H   UNL     1       9.222  -6.451   0.334  0.00  0.00    -0.082 HD
ENDBRANCH  33  34
ENDBRANCH  32  33
ENDBRANCH  31  32
ENDBRANCH  30  31
ENDBRANCH   6  30
TORSDOF 11
