REMARK  Name = CHEMBL1170802
REMARK  8 active torsions:
REMARK  status: ('A' for Active; 'I' for Inactive)
REMARK    1  A    between atoms: C_1  and  C_2
REMARK    2  A    between atoms: C_6  and  C_18
REMARK    3  A    between atoms: C_7  and  N_9
REMARK    4  A    between atoms: N_9  and  C_10
REMARK    5  A    between atoms: N_20  and  O_21
REMARK    6  A    between atoms: O_21  and  C_22
REMARK    7  A    between atoms: C_22  and  C_23
REMARK    8  A    between atoms: C_23  and  O_24
REMARK                            x       y       z     vdW  Elec       q    Type
REMARK                         _______ _______ _______ _____ _____    ______ ____
ROOT
ATOM      1  C   UNL     1      -0.516   1.464   0.028  0.00  0.00    +0.113 C 
ATOM      2  C   UNL     1      -0.446  -0.041   0.011  0.00  0.00    +0.228 C 
ATOM      3  O   UNL     1      -0.517  -0.661   1.045  0.00  0.00    -0.273 OA
ATOM      4  N   UNL     1      -0.304  -0.696  -1.159  0.00  0.00    -0.292 N 
ATOM      5  C   UNL     1      -0.209  -0.102  -2.378  0.00  0.00    +0.109 A 
ATOM      6  C   UNL     1      -0.075  -1.078  -3.324  0.00  0.00    +0.078 A 
ATOM      7  C   UNL     1      -0.093  -2.360  -2.603  0.00  0.00    +0.062 A 
ATOM      8  C   UNL     1      -0.229  -2.062  -1.294  0.00  0.00    +0.118 A 
ENDROOT
BRANCH   6   9
ATOM      9  C   UNL     1       0.060  -0.885  -4.777  0.00  0.00    +0.270 C 
ATOM     10  O   UNL     1       0.171  -1.849  -5.510  0.00  0.00    -0.268 OA
ATOM     11  N   UNL     1       0.060   0.359  -5.294  0.00  0.00    -0.190 N 
ATOM     12  H   UNL     1      -0.029   1.128  -4.709  0.00  0.00    +0.183 HD
BRANCH  11  13
ATOM     13  O   UNL     1       0.190   0.545  -6.692  0.00  0.00    -0.277 OA
BRANCH  13  14
ATOM     14  C   UNL     1       0.175   1.914  -7.101  0.00  0.00    +0.218 C 
BRANCH  14  15
ATOM     15  C   UNL     1       0.321   1.994  -8.622  0.00  0.00    +0.186 C 
BRANCH  15  16
ATOM     16  O   UNL     1      -0.822   1.401  -9.242  0.00  0.00    -0.393 OA
ATOM     17  H   UNL     1      -0.797   1.417 -10.209  0.00  0.00    +0.209 HD
ENDBRANCH  15  16
ENDBRANCH  14  15
ENDBRANCH  13  14
ENDBRANCH  11  13
ENDBRANCH   6   9
BRANCH   7  18
ATOM     18  N   UNL     1       0.015  -3.640  -3.164  0.00  0.00    -0.310 N 
ATOM     19  H   UNL     1       0.001  -3.749  -4.128  0.00  0.00    +0.152 HD
BRANCH  18  20
ATOM     20  C   UNL     1       0.142  -4.759  -2.336  0.00  0.00    +0.067 A 
ATOM     21  C   UNL     1       0.761  -4.642  -1.098  0.00  0.00    +0.027 A 
ATOM     22  C   UNL     1       0.885  -5.749  -0.281  0.00  0.00    +0.016 A 
ATOM     23  C   UNL     1       0.394  -6.974  -0.694  0.00  0.00    +0.016 A 
ATOM     24  C   UNL     1      -0.223  -7.097  -1.926  0.00  0.00    +0.054 A 
ATOM     25  C   UNL     1      -0.355  -5.992  -2.747  0.00  0.00    +0.145 A 
ATOM     26  F   UNL     1      -0.963  -6.109  -3.948  0.00  0.00    -0.204 F 
ATOM     27  I   UNL     1       0.586  -8.649   0.549  0.00  0.00    -0.044 I 
ENDBRANCH  18  20
ENDBRANCH   7  18
TORSDOF 7
