REMARK  Name = CHEMBL95002
REMARK  11 active torsions:
REMARK  status: ('A' for Active; 'I' for Inactive)
REMARK    1  A    between atoms: C_1  and  O_2
REMARK    2  A    between atoms: O_2  and  C_3
REMARK    3  A    between atoms: C_8  and  O_9
REMARK    4  A    between atoms: O_9  and  C_10
REMARK    5  A    between atoms: C_10  and  C_11
REMARK    6  A    between atoms: C_11  and  N_12
REMARK    7  A    between atoms: C_20  and  C_36
REMARK    8  A    between atoms: C_21  and  N_22
REMARK    9  A    between atoms: N_22  and  C_23
REMARK   10  A    between atoms: C_26  and  O_29
REMARK   11  A    between atoms: O_29  and  C_30
REMARK                            x       y       z     vdW  Elec       q    Type
REMARK                         _______ _______ _______ _____ _____    ______ ____
ROOT
ATOM      1  C   UNL     1      -4.697  -2.317  -2.416  0.00  0.00    +0.162 A 
ATOM      2  C   UNL     1      -4.797  -1.201  -1.636  0.00  0.00    +0.061 A 
ATOM      3  C   UNL     1      -4.914  -1.330  -0.244  0.00  0.00    +0.026 A 
ATOM      4  C   UNL     1      -4.929  -2.617   0.347  0.00  0.00    +0.077 A 
ATOM      5  C   UNL     1      -4.825  -3.749  -0.476  0.00  0.00    +0.077 A 
ATOM      6  C   UNL     1      -4.716  -3.594  -1.840  0.00  0.00    +0.164 A 
ATOM      7  N   UNL     1      -5.043  -2.748   1.677  0.00  0.00    -0.253 NA
ATOM      8  C   UNL     1      -5.142  -1.712   2.470  0.00  0.00    +0.132 A 
ATOM      9  C   UNL     1      -5.137  -0.399   1.970  0.00  0.00    +0.091 A 
ATOM     10  C   UNL     1      -5.020  -0.191   0.588  0.00  0.00    +0.060 A 
ENDROOT
BRANCH   1  12
ATOM     11  C   UNL     1      -4.568  -0.859  -4.291  0.00  0.00    +0.277 C 
ATOM     12  O   UNL     1      -4.582  -2.188  -3.765  0.00  0.00    -0.491 OA
ENDBRANCH   1  12
BRANCH  10  13
ATOM     13  N   UNL     1      -5.010   1.083   0.057  0.00  0.00    -0.313 N 
ATOM     14  H   UNL     1      -4.166   1.525  -0.127  0.00  0.00    +0.152 HD
BRANCH  13  15
ATOM     15  C   UNL     1      -6.216   1.736  -0.217  0.00  0.00    +0.032 A 
ATOM     16  C   UNL     1      -7.402   1.015  -0.268  0.00  0.00    +0.027 A 
ATOM     17  C   UNL     1      -8.592   1.660  -0.538  0.00  0.00    +0.048 A 
ATOM     18  C   UNL     1      -8.604   3.030  -0.758  0.00  0.00    +0.129 A 
ATOM     19  C   UNL     1      -7.420   3.752  -0.708  0.00  0.00    +0.048 A 
ATOM     20  C   UNL     1      -6.230   3.108  -0.432  0.00  0.00    +0.027 A 
BRANCH  18  21
ATOM     21  O   UNL     1      -9.776   3.665  -1.025  0.00  0.00    -0.456 OA
BRANCH  21  22
ATOM     22  C   UNL     1      -9.758   5.020  -1.126  0.00  0.00    +0.128 A 
ATOM     23  C   UNL     1      -9.297   5.625  -2.287  0.00  0.00    +0.046 A 
ATOM     24  C   UNL     1      -9.281   7.002  -2.387  0.00  0.00    +0.004 A 
ATOM     25  C   UNL     1      -9.724   7.779  -1.332  0.00  0.00    +0.000 A 
ATOM     26  C   UNL     1     -10.184   7.179  -0.174  0.00  0.00    +0.004 A 
ATOM     27  C   UNL     1     -10.207   5.802  -0.071  0.00  0.00    +0.046 A 
ENDBRANCH  21  22
ENDBRANCH  18  21
ENDBRANCH  13  15
ENDBRANCH  10  13
BRANCH   9  28
ATOM     28  C   UNL     1      -5.249   0.715   2.863  0.00  0.00    +0.103 C 
ATOM     29  N   UNL     1      -5.338   1.599   3.571  0.00  0.00    -0.191 NA
ENDBRANCH   9  28
BRANCH   6  30
ATOM     30  O   UNL     1      -4.622  -4.692  -2.635  0.00  0.00    -0.487 OA
BRANCH  30  31
ATOM     31  C   UNL     1      -4.647  -5.966  -1.988  0.00  0.00    +0.244 C 
BRANCH  31  32
ATOM     32  C   UNL     1      -4.530  -7.073  -3.037  0.00  0.00    +0.125 C 
BRANCH  32  33
ATOM     33  N   UNL     1      -3.244  -6.951  -3.737  0.00  0.00    -0.295 NA
ATOM     34  C   UNL     1      -3.267  -7.682  -5.012  0.00  0.00    +0.112 C 
ATOM     35  C   UNL     1      -1.932  -7.479  -5.734  0.00  0.00    +0.175 C 
ATOM     36  O   UNL     1      -0.866  -7.907  -4.883  0.00  0.00    -0.377 OA
ATOM     37  C   UNL     1      -0.814  -7.215  -3.632  0.00  0.00    +0.175 C 
ATOM     38  C   UNL     1      -2.137  -7.415  -2.889  0.00  0.00    +0.112 C 
ENDBRANCH  32  33
ENDBRANCH  31  32
ENDBRANCH  30  31
ENDBRANCH   6  30
TORSDOF 10
