REMARK  Name = CHEMBL244488
REMARK  7 active torsions:
REMARK  status: ('A' for Active; 'I' for Inactive)
REMARK    1  A    between atoms: C_3  and  N_9
REMARK    2  A    between atoms: N_9  and  C_10
REMARK    3  A    between atoms: C_11  and  C_18
REMARK    4  A    between atoms: N_20  and  O_21
REMARK    5  A    between atoms: O_21  and  C_22
REMARK    6  A    between atoms: C_22  and  C_23
REMARK    7  A    between atoms: C_23  and  O_24
REMARK                            x       y       z     vdW  Elec       q    Type
REMARK                         _______ _______ _______ _____ _____    ______ ____
ROOT
ATOM      1  C   UNL     1       3.518   3.515  -0.091  0.00  0.00    +0.082 A 
ATOM      2  C   UNL     1       4.630   4.252  -0.531  0.00  0.00    +0.063 A 
ATOM      3  C   UNL     1       4.543   5.644  -0.625  0.00  0.00    +0.018 A 
ATOM      4  C   UNL     1       3.372   6.285  -0.289  0.00  0.00    +0.042 A 
ATOM      5  C   UNL     1       2.273   5.556   0.146  0.00  0.00    +0.160 A 
ATOM      6  C   UNL     1       2.341   4.176   0.239  0.00  0.00    +0.180 A 
ATOM      7  F   UNL     1       1.266   3.473   0.657  0.00  0.00    -0.201 F 
ATOM      8  F   UNL     1       1.129   6.195   0.473  0.00  0.00    -0.202 F 
ENDROOT
BRANCH   2   9
ATOM      9  C   UNL     1       5.881   3.562  -0.889  0.00  0.00    +0.269 C 
ATOM     10  O   UNL     1       5.922   2.347  -0.905  0.00  0.00    -0.268 OA
ATOM     11  N   UNL     1       6.980   4.278  -1.199  0.00  0.00    -0.190 N 
ATOM     12  H   UNL     1       6.947   5.247  -1.187  0.00  0.00    +0.183 HD
BRANCH  11  13
ATOM     13  O   UNL     1       8.183   3.615  -1.544  0.00  0.00    -0.277 OA
BRANCH  13  14
ATOM     14  C   UNL     1       9.265   4.496  -1.849  0.00  0.00    +0.218 C 
BRANCH  14  15
ATOM     15  C   UNL     1      10.507   3.675  -2.205  0.00  0.00    +0.186 C 
BRANCH  15  16
ATOM     16  O   UNL     1      10.264   2.943  -3.408  0.00  0.00    -0.393 OA
ATOM     17  H   UNL     1      11.011   2.398  -3.694  0.00  0.00    +0.209 HD
ENDBRANCH  15  16
ENDBRANCH  14  15
ENDBRANCH  13  14
ENDBRANCH  11  13
ENDBRANCH   2   9
BRANCH   1  18
ATOM     18  N   UNL     1       3.592   2.130   0.007  0.00  0.00    -0.309 N 
ATOM     19  H   UNL     1       3.260   1.574  -0.715  0.00  0.00    +0.152 HD
BRANCH  18  22
ATOM     20  C   UNL     1       5.287   1.742   3.247  0.00  0.00    +0.016 A 
ATOM     21  C   UNL     1       4.741   2.328   2.122  0.00  0.00    +0.027 A 
ATOM     22  C   UNL     1       4.147   1.538   1.147  0.00  0.00    +0.067 A 
ATOM     23  C   UNL     1       4.104   0.157   1.307  0.00  0.00    +0.145 A 
ATOM     24  C   UNL     1       4.653  -0.424   2.435  0.00  0.00    +0.054 A 
ATOM     25  C   UNL     1       5.244   0.368   3.404  0.00  0.00    +0.016 A 
ATOM     26  I   UNL     1       6.074  -0.515   5.112  0.00  0.00    -0.044 I 
ATOM     27  F   UNL     1       3.527  -0.616   0.361  0.00  0.00    -0.204 F 
ENDBRANCH  18  22
ENDBRANCH   1  18
TORSDOF 7
