REMARK  Name = CHEMBL495729
REMARK  7 active torsions:
REMARK  status: ('A' for Active; 'I' for Inactive)
REMARK    1  A    between atoms: C_1  and  C_2
REMARK    2  A    between atoms: C_5  and  N_21
REMARK    3  A    between atoms: C_7  and  C_8
REMARK    4  A    between atoms: C_11  and  C_15
REMARK    5  A    between atoms: C_13  and  C_14
REMARK    6  A    between atoms: C_18  and  C_20
REMARK    7  A    between atoms: C_22  and  C_24
REMARK                            x       y       z     vdW  Elec       q    Type
REMARK                         _______ _______ _______ _____ _____    ______ ____
ROOT
ATOM      1  C   UNL     1      -0.000   1.503   0.021  0.00  0.00    +0.044 C 
ATOM      2  C   UNL     1       0.016  -0.004   0.010  0.00  0.00    -0.043 A 
ATOM      3  C   UNL     1      -0.160  -0.687  -1.177  0.00  0.00    +0.006 A 
ATOM      4  C   UNL     1      -0.146  -2.069  -1.192  0.00  0.00    +0.023 A 
ATOM      5  C   UNL     1       0.045  -2.779  -0.013  0.00  0.00    +0.034 A 
ATOM      6  C   UNL     1       0.222  -2.101   1.183  0.00  0.00    +0.032 A 
ATOM      7  C   UNL     1       0.214  -0.708   1.197  0.00  0.00    -0.013 A 
ENDROOT
BRANCH   7   8
ATOM      8  C   UNL     1       0.409   0.025   2.472  0.00  0.00    -0.015 A 
ATOM      9  C   UNL     1       1.629  -0.058   3.143  0.00  0.00    +0.009 A 
ATOM     10  C   UNL     1       1.812   0.621   4.327  0.00  0.00    +0.014 A 
ATOM     11  C   UNL     1       0.774   1.393   4.855  0.00  0.00    +0.039 A 
ATOM     12  C   UNL     1      -0.446   1.476   4.182  0.00  0.00    +0.017 A 
ATOM     13  C   UNL     1      -0.625   0.800   2.995  0.00  0.00    -0.042 A 
ATOM     14  C   UNL     1      -1.940   0.894   2.265  0.00  0.00    +0.044 C 
BRANCH  11  15
ATOM     15  C   UNL     1       0.969   2.122   6.126  0.00  0.00    +0.248 A 
ATOM     16  N   UNL     1       0.083   2.875   6.735  0.00  0.00    -0.107 NA
ATOM     17  N   UNL     1       0.599   3.349   7.814  0.00  0.00    -0.112 NA
ATOM     18  C   UNL     1       1.825   2.921   7.935  0.00  0.00    +0.215 A 
ATOM     19  O   UNL     1       2.087   2.132   6.878  0.00  0.00    -0.421 OA
ATOM     20  C   UNL     1       2.773   3.246   9.060  0.00  0.00    +0.111 C 
ENDBRANCH  11  15
ENDBRANCH   7   8
BRANCH   5  21
ATOM     21  N   UNL     1       0.057  -4.177  -0.032  0.00  0.00    -0.281 N 
ATOM     22  C   UNL     1      -0.422  -4.870   1.020  0.00  0.00    +0.248 C 
ATOM     23  O   UNL     1      -0.953  -4.284   1.942  0.00  0.00    -0.270 OA
ATOM     24  H   UNL     1       0.411  -4.648  -0.803  0.00  0.00    +0.155 HD
BRANCH  22  25
ATOM     25  C   UNL     1      -0.303  -6.346   1.050  0.00  0.00    +0.042 A 
ATOM     26  C   UNL     1       0.310  -7.040  -0.000  0.00  0.00    +0.033 A 
ATOM     27  C   UNL     1       0.403  -8.415   0.065  0.00  0.00    +0.113 A 
ATOM     28  N   UNL     1      -0.076  -9.080   1.099  0.00  0.00    -0.240 NA
ATOM     29  C   UNL     1      -0.663  -8.467   2.115  0.00  0.00    +0.122 A 
ATOM     30  C   UNL     1      -0.792  -7.082   2.130  0.00  0.00    +0.056 A 
ATOM     31  N   UNL     1      -1.150  -9.215   3.180  0.00  0.00    -0.315 N 
ATOM     32  C   UNL     1      -0.983 -10.665   3.356  0.00  0.00    +0.106 C 
ATOM     33  C   UNL     1      -1.709 -11.055   4.661  0.00  0.00    +0.020 C 
ATOM     34  C   UNL     1      -2.725  -9.898   4.853  0.00  0.00    +0.020 C 
ATOM     35  C   UNL     1      -1.915  -8.685   4.324  0.00  0.00    +0.106 C 
ENDBRANCH  22  25
ENDBRANCH   5  21
TORSDOF 4
