REMARK  Name = CHEMBL253116
REMARK  9 active torsions:
REMARK  status: ('A' for Active; 'I' for Inactive)
REMARK    1  A    between atoms: CB_1  and  CA_2
REMARK    2  A    between atoms: CA_2  and  C_3
REMARK    3  A    between atoms: CA_2  and  N_5
REMARK    4  A    between atoms: C_3  and  O_4
REMARK    5  A    between atoms: N_5  and  C_6
REMARK    6  A    between atoms: C_6  and  N_7
REMARK    7  A    between atoms: N_13  and  C_14
REMARK    8  A    between atoms: C_17  and  N_20
REMARK    9  A    between atoms: N_20  and  C_21
REMARK                            x       y       z     vdW  Elec       q    Type
REMARK                         _______ _______ _______ _____ _____    ______ ____
ROOT
ATOM      1  C   UNK A   0      -3.038   0.910   1.661  0.00  0.00    +0.097 C 
ATOM      2  C   UNK A   0      -4.075   0.002   1.432  0.00  0.00    +0.110 C 
ATOM      3  C   UNK A   0      -4.641  -0.249   0.125  0.00  0.00    +0.290 C 
ATOM      4  N   UNK A   0      -5.604  -1.114   0.004  0.00  0.00    -0.168 NA
ATOM      5  S   UNK A   0      -5.894  -1.702   1.543  0.00  0.00    +0.036 S 
ATOM      6  C   UNK A   0      -4.679  -0.778   2.463  0.00  0.00    +0.135 C 
ATOM      7  N   UNK A   0      -4.409  -0.808   3.763  0.00  0.00    -0.238 NA
ATOM      8  O   UNK A   0      -4.172   0.411  -0.965  0.00  0.00    -0.264 OA
ENDROOT
BRANCH   7   9
ATOM      9  C   UNK A   0      -3.131  -0.604   4.199  0.00  0.00    +0.065 A 
ATOM     10  C   UNK A   0      -2.878   0.306   5.229  0.00  0.00    +0.029 A 
ATOM     11  C   UNK A   0      -1.586   0.509   5.667  0.00  0.00    +0.025 A 
ATOM     12  C   UNK A   0      -0.536  -0.191   5.085  0.00  0.00    +0.031 A 
ATOM     13  C   UNK A   0      -0.782  -1.097   4.060  0.00  0.00    +0.025 A 
ATOM     14  C   UNK A   0      -2.071  -1.310   3.620  0.00  0.00    +0.029 A 
BRANCH  12  15
ATOM     15  N   UNK A   0       0.775   0.018   5.532  0.00  0.00    -0.314 N 
ATOM     16  H   UNK A   0       1.520  -0.097   4.922  0.00  0.00    +0.152 HD
BRANCH  15  17
ATOM     17  C   UNK A   0       1.009   0.392   6.857  0.00  0.00    +0.031 A 
ATOM     18  C   UNK A   0       0.135  -0.011   7.860  0.00  0.00    +0.023 A 
ATOM     19  C   UNK A   0       0.370   0.361   9.169  0.00  0.00    +0.002 A 
ATOM     20  C   UNK A   0       1.473   1.133   9.483  0.00  0.00    +0.000 A 
ATOM     21  C   UNK A   0       2.345   1.536   8.488  0.00  0.00    +0.002 A 
ATOM     22  C   UNK A   0       2.119   1.163   7.177  0.00  0.00    +0.023 A 
ENDBRANCH  15  17
ENDBRANCH  12  15
ENDBRANCH   7   9
BRANCH   1  23
ATOM     23  N   UNK A   0      -2.847   1.427   2.910  0.00  0.00    -0.346 N 
ATOM     24  H   UNK A   0      -3.607   1.732   3.430  0.00  0.00    +0.143 HD
ATOM     25  H   UNK A   0      -1.952   1.489   3.277  0.00  0.00    +0.143 HD
ENDBRANCH   1  23
BRANCH   1  26
ATOM     26  N   ALA A   1      -2.217   1.281   0.636  0.00  0.00    -0.327 N 
ATOM     27  H   ALA A   1      -2.325   0.882  -0.241  0.00  0.00    +0.148 HD
BRANCH  26  29
ATOM     28  CB  ALA A   1      -1.764   3.684   0.698  0.00  0.00    +0.030 C 
ATOM     29  CA  ALA A   1      -1.171   2.283   0.861  0.00  0.00    +0.094 C 
BRANCH  29  30
ATOM     30  C   ALA A   1      -0.047   2.083  -0.158  0.00  0.00    +0.177 C 
BRANCH  30  31
ATOM     31  O   ALA A   1      -0.543   2.343  -1.472  0.00  0.00    -0.393 OA
ATOM     32  H   ALA A   1       0.117   2.236  -2.170  0.00  0.00    +0.209 HD
ENDBRANCH  30  31
ENDBRANCH  29  30
ENDBRANCH  26  29
ENDBRANCH   1  26
TORSDOF 8
