REMARK  Name = CHEMBL31149
REMARK  12 active torsions:
REMARK  status: ('A' for Active; 'I' for Inactive)
REMARK    1  A    between atoms: C_1  and  O_2
REMARK    2  A    between atoms: O_2  and  C_3
REMARK    3  A    between atoms: C_8  and  O_9
REMARK    4  A    between atoms: O_9  and  C_10
REMARK    5  A    between atoms: C_10  and  C_11
REMARK    6  A    between atoms: C_11  and  C_12
REMARK    7  A    between atoms: C_12  and  N_13
REMARK    8  A    between atoms: C_21  and  C_37
REMARK    9  A    between atoms: C_22  and  N_23
REMARK   10  A    between atoms: N_23  and  C_24
REMARK   11  A    between atoms: C_27  and  O_30
REMARK   12  A    between atoms: O_30  and  C_31
REMARK                            x       y       z     vdW  Elec       q    Type
REMARK                         _______ _______ _______ _____ _____    ______ ____
ROOT
ATOM      1  C   UNL     1      -1.635  -0.207  -6.444  0.00  0.00    +0.162 A 
ATOM      2  C   UNL     1      -0.637   0.472  -5.805  0.00  0.00    +0.061 A 
ATOM      3  C   UNL     1       0.379  -0.237  -5.148  0.00  0.00    +0.026 A 
ATOM      4  C   UNL     1       0.368  -1.653  -5.149  0.00  0.00    +0.077 A 
ATOM      5  C   UNL     1      -0.668  -2.328  -5.813  0.00  0.00    +0.077 A 
ATOM      6  C   UNL     1      -1.657  -1.608  -6.446  0.00  0.00    +0.164 A 
ATOM      7  N   UNL     1       1.336  -2.337  -4.522  0.00  0.00    -0.253 NA
ATOM      8  C   UNL     1       2.314  -1.736  -3.894  0.00  0.00    +0.132 A 
ATOM      9  C   UNL     1       2.405  -0.336  -3.842  0.00  0.00    +0.091 A 
ATOM     10  C   UNL     1       1.424   0.440  -4.478  0.00  0.00    +0.060 A 
ENDROOT
BRANCH   1  12
ATOM     11  C   UNL     1      -2.540   1.910  -7.042  0.00  0.00    +0.277 C 
ATOM     12  O   UNL     1      -2.619   0.483  -7.080  0.00  0.00    -0.491 OA
ENDBRANCH   1  12
BRANCH  10  13
ATOM     13  N   UNL     1       1.478   1.819  -4.450  0.00  0.00    -0.313 N 
ATOM     14  H   UNL     1       1.090   2.305  -3.705  0.00  0.00    +0.152 HD
BRANCH  13  15
ATOM     15  C   UNL     1       2.090   2.517  -5.497  0.00  0.00    +0.032 A 
ATOM     16  C   UNL     1       2.525   1.835  -6.626  0.00  0.00    +0.027 A 
ATOM     17  C   UNL     1       3.129   2.525  -7.659  0.00  0.00    +0.047 A 
ATOM     18  C   UNL     1       3.301   3.898  -7.569  0.00  0.00    +0.121 A 
ATOM     19  C   UNL     1       2.868   4.580  -6.441  0.00  0.00    +0.047 A 
ATOM     20  C   UNL     1       2.259   3.893  -5.410  0.00  0.00    +0.027 A 
BRANCH  18  21
ATOM     21  O   UNL     1       3.896   4.576  -8.586  0.00  0.00    -0.489 OA
BRANCH  21  22
ATOM     22  C   UNL     1       4.061   5.986  -8.417  0.00  0.00    +0.173 C 
ATOM     23  C   UNL     1       2.773   6.702  -8.827  0.00  0.00    +0.044 C 
ATOM     24  C   UNL     1       2.950   8.211  -8.646  0.00  0.00    +0.004 C 
ATOM     25  C   UNL     1       4.106   8.698  -9.523  0.00  0.00    +0.000 C 
ATOM     26  C   UNL     1       5.394   7.981  -9.113  0.00  0.00    +0.004 C 
ATOM     27  C   UNL     1       5.217   6.472  -9.294  0.00  0.00    +0.044 C 
ENDBRANCH  21  22
ENDBRANCH  18  21
ENDBRANCH  13  15
ENDBRANCH  10  13
BRANCH   9  28
ATOM     28  C   UNL     1       3.487   0.293  -3.146  0.00  0.00    +0.103 C 
ATOM     29  N   UNL     1       4.346   0.793  -2.595  0.00  0.00    -0.191 NA
ENDBRANCH   9  28
BRANCH   6  30
ATOM     30  O   UNL     1      -2.662  -2.264  -7.083  0.00  0.00    -0.488 OA
BRANCH  30  31
ATOM     31  C   UNL     1      -2.629  -3.692  -7.049  0.00  0.00    +0.230 C 
BRANCH  31  32
ATOM     32  C   UNL     1      -3.832  -4.248  -7.814  0.00  0.00    +0.056 C 
BRANCH  32  33
ATOM     33  C   UNL     1      -3.796  -5.777  -7.778  0.00  0.00    +0.088 C 
BRANCH  33  34
ATOM     34  N   UNL     1      -4.951  -6.311  -8.512  0.00  0.00    -0.298 NA
ATOM     35  C   UNL     1      -6.209  -5.981  -7.827  0.00  0.00    +0.112 C 
ATOM     36  C   UNL     1      -7.387  -6.503  -8.655  0.00  0.00    +0.175 C 
ATOM     37  O   UNL     1      -7.234  -7.910  -8.857  0.00  0.00    -0.377 OA
ATOM     38  C   UNL     1      -6.019  -8.268  -9.522  0.00  0.00    +0.175 C 
ATOM     39  C   UNL     1      -4.828  -7.764  -8.703  0.00  0.00    +0.112 C 
ENDBRANCH  33  34
ENDBRANCH  32  33
ENDBRANCH  31  32
ENDBRANCH  30  31
ENDBRANCH   6  30
TORSDOF 11
