REMARK  Name = CHEMBL35988
REMARK  9 active torsions:
REMARK  status: ('A' for Active; 'I' for Inactive)
REMARK    1  A    between atoms: C_1  and  C_2
REMARK    2  A    between atoms: C_2  and  C_3
REMARK    3  A    between atoms: C_2  and  O_22
REMARK    4  A    between atoms: C_7  and  C_9
REMARK    5  A    between atoms: C_9  and  C_20
REMARK    6  A    between atoms: C_10  and  N_11
REMARK    7  A    between atoms: C_10  and  S_12
REMARK    8  A    between atoms: S_12  and  C_13
REMARK    9  A    between atoms: C_18  and  N_19
REMARK                            x       y       z     vdW  Elec       q    Type
REMARK                         _______ _______ _______ _____ _____    ______ ____
ROOT
ATOM      1  C   UNL     1      -3.905  -1.732   2.555  0.00  0.00    +0.086 C 
ATOM      2  C   UNL     1      -4.321  -3.039   2.760  0.00  0.00    +0.082 C 
ENDROOT
BRANCH   1   7
ATOM      3  C   UNL     1      -1.196  -0.606   0.207  0.00  0.00    -0.019 A 
ATOM      4  C   UNL     1      -1.844  -0.692  -1.012  0.00  0.00    +0.006 A 
ATOM      5  C   UNL     1      -3.160  -1.115  -1.075  0.00  0.00    +0.001 A 
ATOM      6  C   UNL     1      -3.835  -1.454   0.079  0.00  0.00    +0.009 A 
ATOM      7  C   UNL     1      -3.187  -1.370   1.312  0.00  0.00    -0.005 A 
ATOM      8  C   UNL     1      -1.858  -0.947   1.369  0.00  0.00    +0.015 A 
BRANCH   3  10
ATOM      9  C   UNL     1       0.279   1.385   0.308  0.00  0.00    +0.043 C 
ATOM     10  C   UNL     1       0.237  -0.144   0.267  0.00  0.00    +0.141 C 
BRANCH  10  11
ATOM     11  O   UNL     1       0.935  -0.609  -0.891  0.00  0.00    -0.387 OA
ATOM     12  H   UNL     1       1.866  -0.348  -0.919  0.00  0.00    +0.210 HD
ENDBRANCH  10  11
ENDBRANCH   3  10
ENDBRANCH   1   7
BRANCH   2  13
ATOM     13  N   UNL     1      -4.987  -3.375   3.912  0.00  0.00    -0.352 N 
ATOM     14  H   UNL     1      -5.102  -2.717   4.615  0.00  0.00    +0.143 HD
ATOM     15  H   UNL     1      -5.342  -4.271   4.024  0.00  0.00    +0.143 HD
ENDBRANCH   2  13
BRANCH   1  16
ATOM     16  C   UNL     1      -4.170  -0.732   3.546  0.00  0.00    +0.102 C 
ATOM     17  N   UNL     1      -4.380   0.060   4.332  0.00  0.00    -0.191 NA
ENDBRANCH   1  16
BRANCH   2  18
ATOM     18  S   UNL     1      -3.995  -4.269   1.541  0.00  0.00    -0.072 S 
BRANCH  18  19
ATOM     19  C   UNL     1      -5.593  -4.716   0.948  0.00  0.00    +0.035 A 
ATOM     20  C   UNL     1      -6.715  -4.025   1.383  0.00  0.00    +0.017 A 
ATOM     21  C   UNL     1      -7.968  -4.378   0.917  0.00  0.00    +0.001 A 
ATOM     22  C   UNL     1      -8.107  -5.418   0.016  0.00  0.00    +0.002 A 
ATOM     23  C   UNL     1      -6.995  -6.112  -0.423  0.00  0.00    +0.024 A 
ATOM     24  C   UNL     1      -5.734  -5.762   0.035  0.00  0.00    +0.039 A 
BRANCH  24  25
ATOM     25  N   UNL     1      -4.606  -6.459  -0.412  0.00  0.00    -0.357 N 
ATOM     26  H   UNL     1      -3.725  -6.215  -0.088  0.00  0.00    +0.142 HD
ATOM     27  H   UNL     1      -4.706  -7.186  -1.047  0.00  0.00    +0.142 HD
ENDBRANCH  24  25
ENDBRANCH  18  19
ENDBRANCH   2  18
TORSDOF 8
