REMARK  Name = CHEMBL386457
REMARK  10 active torsions:
REMARK  status: ('A' for Active; 'I' for Inactive)
REMARK    1  A    between atoms: C_1  and  N_2
REMARK    2  A    between atoms: N_5  and  C_8
REMARK    3  A    between atoms: C_8  and  C_9
REMARK    4  A    between atoms: C_9  and  C_10
REMARK    5  A    between atoms: C_10  and  N_11
REMARK    6  A    between atoms: C_12  and  C_13
REMARK    7  A    between atoms: C_17  and  N_18
REMARK    8  A    between atoms: N_18  and  C_19
REMARK    9  A    between atoms: C_22  and  O_25
REMARK   10  A    between atoms: O_25  and  C_26
REMARK                            x       y       z     vdW  Elec       q    Type
REMARK                         _______ _______ _______ _____ _____    ______ ____
ROOT
ATOM      1  C   UNL     1       1.143  -8.418   5.161  0.00  0.00    +0.106 A 
ATOM      2  C   UNL     1       1.551  -7.539   6.163  0.00  0.00    +0.268 A 
ATOM      3  N   UNL     1       1.793  -8.080   7.372  0.00  0.00    -0.291 N 
ATOM      4  S   UNL     1       1.485  -9.711   7.179  0.00  0.00    +0.005 S 
ATOM      5  C   UNL     1       1.036  -9.753   5.564  0.00  0.00    +0.102 A 
ATOM      6  O   UNL     1       1.683  -6.343   5.955  0.00  0.00    -0.267 OA
ATOM      7  H   UNL     1       2.082  -7.623   8.177  0.00  0.00    +0.177 HD
ENDROOT
BRANCH   1   9
ATOM      8  N   UNL     1       0.836  -6.701   3.502  0.00  0.00    -0.373 N 
ATOM      9  C   UNL     1       0.842  -7.976   3.791  0.00  0.00    +0.105 C 
ATOM     10  N   UNL     1       0.568  -8.907   2.810  0.00  0.00    -0.344 N 
ATOM     11  H   UNL     1       0.433  -8.620   1.893  0.00  0.00    +0.144 HD
ATOM     12  H   UNL     1       0.508  -9.848   3.038  0.00  0.00    +0.144 HD
ATOM     13  H   UNL     1       1.029  -6.046   4.191  0.00  0.00    +0.161 HD
BRANCH   8  14
ATOM     14  C   UNL     1       0.537  -6.260   2.137  0.00  0.00    +0.115 C 
BRANCH  14  15
ATOM     15  C   UNL     1       0.594  -4.733   2.070  0.00  0.00    +0.036 C 
BRANCH  15  16
ATOM     16  C   UNL     1       0.282  -4.273   0.645  0.00  0.00    +0.086 C 
BRANCH  16  21
ATOM     17  C   UNL     1       1.238   1.168  -0.535  0.00  0.00    +0.105 C 
ATOM     18  N   UNL     1       1.183  -0.299  -0.470  0.00  0.00    -0.303 NA
ATOM     19  C   UNL     1      -0.185  -0.785  -0.699  0.00  0.00    +0.099 C 
ATOM     20  C   UNL     1      -0.186  -2.315  -0.703  0.00  0.00    +0.100 C 
ATOM     21  N   UNL     1       0.337  -2.806   0.580  0.00  0.00    -0.300 NA
ATOM     22  C   UNL     1       1.705  -2.320   0.809  0.00  0.00    +0.100 C 
ATOM     23  C   UNL     1       1.706  -0.790   0.813  0.00  0.00    +0.099 C 
ENDBRANCH  16  21
ENDBRANCH  15  16
ENDBRANCH  14  15
ENDBRANCH   8  14
ENDBRANCH   1   9
BRANCH   5  24
ATOM     24  N   UNL     1       0.656 -10.840   4.814  0.00  0.00    -0.307 N 
ATOM     25  H   UNL     1      -0.209 -10.848   4.375  0.00  0.00    +0.153 HD
BRANCH  24  26
ATOM     26  C   UNL     1       1.517 -11.936   4.684  0.00  0.00    +0.032 A 
ATOM     27  C   UNL     1       2.804 -11.873   5.200  0.00  0.00    +0.027 A 
ATOM     28  C   UNL     1       3.653 -12.955   5.070  0.00  0.00    +0.048 A 
ATOM     29  C   UNL     1       3.220 -14.104   4.425  0.00  0.00    +0.129 A 
ATOM     30  C   UNL     1       1.933 -14.168   3.909  0.00  0.00    +0.048 A 
ATOM     31  C   UNL     1       1.081 -13.089   4.043  0.00  0.00    +0.027 A 
BRANCH  29  32
ATOM     32  O   UNL     1       4.056 -15.169   4.298  0.00  0.00    -0.455 OA
BRANCH  32  33
ATOM     33  C   UNL     1       4.623 -15.393   3.084  0.00  0.00    +0.148 A 
ATOM     34  C   UNL     1       4.434 -14.487   2.051  0.00  0.00    +0.067 A 
ATOM     35  C   UNL     1       5.013 -14.718   0.817  0.00  0.00    +0.045 A 
ATOM     36  C   UNL     1       5.781 -15.851   0.612  0.00  0.00    +0.021 A 
ATOM     37  C   UNL     1       5.971 -16.755   1.640  0.00  0.00    +0.025 A 
ATOM     38  C   UNL     1       5.399 -16.526   2.878  0.00  0.00    +0.083 A 
ATOM     39 CL   UNL     1       5.644 -17.659   4.171  0.00  0.00    -0.080 Cl
ATOM     40 CL   UNL     1       4.776 -13.585  -0.477  0.00  0.00    -0.083 Cl
ENDBRANCH  32  33
ENDBRANCH  29  32
ENDBRANCH  24  26
ENDBRANCH   5  24
TORSDOF 9
