REMARK  Name = CHEMBL1172521
REMARK  7 active torsions:
REMARK  status: ('A' for Active; 'I' for Inactive)
REMARK    1  A    between atoms: C_1  and  C_2
REMARK    2  A    between atoms: C_2  and  C_4
REMARK    3  A    between atoms: C_6  and  C_19
REMARK    4  A    between atoms: C_7  and  N_10
REMARK    5  A    between atoms: N_8  and  C_9
REMARK    6  A    between atoms: N_10  and  C_11
REMARK    7  A    between atoms: C_23  and  N_25
REMARK                            x       y       z     vdW  Elec       q    Type
REMARK                         _______ _______ _______ _____ _____    ______ ____
ROOT
ATOM      1  C   UNL     1      -1.589  -0.470   0.389  0.00  0.00    +0.086 A 
ATOM      2  C   UNL     1      -2.781  -0.413   1.081  0.00  0.00    +0.045 A 
ATOM      3  C   UNL     1      -3.459  -1.623   0.840  0.00  0.00    +0.077 A 
ATOM      4  C   UNL     1      -2.649  -2.390  -0.004  0.00  0.00    +0.116 A 
ATOM      5  N   UNL     1      -1.530  -1.687  -0.274  0.00  0.00    -0.329 N 
ATOM      6  C   UNL     1      -0.428  -2.138  -1.128  0.00  0.00    +0.150 C 
ENDROOT
BRANCH   3   7
ATOM      7  C   UNL     1      -4.772  -2.007   1.374  0.00  0.00    +0.250 C 
ATOM      8  O   UNL     1      -5.252  -3.088   1.088  0.00  0.00    -0.270 OA
ATOM      9  N   UNL     1      -5.445  -1.163   2.180  0.00  0.00    -0.294 N 
ATOM     10  C   UNL     1      -5.218   0.181   2.732  0.00  0.00    +0.128 C 
ATOM     11  C   UNL     1      -6.115  -0.212   3.914  0.00  0.00    +0.086 C 
ATOM     12  C   UNL     1      -6.733  -1.177   2.890  0.00  0.00    +0.128 C 
BRANCH  11  13
ATOM     13  N   UNL     1      -7.024   0.853   4.361  0.00  0.00    -0.325 NA
ATOM     14  H   UNL     1      -7.589   0.543   5.137  0.00  0.00    +0.119 HD
ATOM     15  H   UNL     1      -6.513   1.690   4.596  0.00  0.00    +0.119 HD
ENDBRANCH  11  13
ENDBRANCH   3   7
BRANCH   1  17
ATOM     16  C   UNL     1      -0.805   1.814   1.130  0.00  0.00    +0.093 C 
ATOM     17  C   UNL     1      -0.604   0.537   0.356  0.00  0.00    +0.176 C 
ATOM     18  O   UNL     1       0.408   0.376  -0.297  0.00  0.00    -0.291 OA
ENDBRANCH   1  17
BRANCH   4  19
ATOM     19  N   UNL     1      -2.946  -3.643  -0.480  0.00  0.00    -0.298 N 
ATOM     20  H   UNL     1      -3.673  -3.763  -1.111  0.00  0.00    +0.154 HD
BRANCH  19  21
ATOM     21  C   UNL     1      -2.199  -4.747  -0.055  0.00  0.00    +0.068 A 
ATOM     22  C   UNL     1      -1.084  -4.565   0.752  0.00  0.00    +0.027 A 
ATOM     23  C   UNL     1      -0.348  -5.657   1.170  0.00  0.00    +0.016 A 
ATOM     24  C   UNL     1      -0.721  -6.933   0.785  0.00  0.00    +0.016 A 
ATOM     25  C   UNL     1      -1.831  -7.120  -0.018  0.00  0.00    +0.054 A 
ATOM     26  C   UNL     1      -2.575  -6.031  -0.436  0.00  0.00    +0.145 A 
ATOM     27  F   UNL     1      -3.663  -6.214  -1.216  0.00  0.00    -0.204 F 
ATOM     28  I   UNL     1       0.399  -8.585   1.422  0.00  0.00    -0.044 I 
ENDBRANCH  19  21
ENDBRANCH   4  19
TORSDOF 5
