REMARK  Name = CHEMBL214613
REMARK  9 active torsions:
REMARK  status: ('A' for Active; 'I' for Inactive)
REMARK    1  A    between atoms: CB_1  and  CA_2
REMARK    2  A    between atoms: CA_2  and  C_3
REMARK    3  A    between atoms: CA_2  and  N_5
REMARK    4  A    between atoms: C_3  and  O_4
REMARK    5  A    between atoms: C_6  and  C_7
REMARK    6  A    between atoms: C_11  and  N_12
REMARK    7  A    between atoms: N_12  and  C_13
REMARK    8  A    between atoms: C_16  and  O_19
REMARK    9  A    between atoms: O_19  and  C_20
REMARK                            x       y       z     vdW  Elec       q    Type
REMARK                         _______ _______ _______ _____ _____    ______ ____
ROOT
ATOM      1  C   UNK A   0       2.882  -0.473  -2.936  0.00  0.00    +0.106 A 
ATOM      2  C   UNK A   0       1.965  -1.102  -3.777  0.00  0.00    +0.268 A 
ATOM      3  N   UNK A   0       2.225  -2.384  -4.094  0.00  0.00    -0.291 N 
ATOM      4  S   UNK A   0       3.650  -2.741  -3.295  0.00  0.00    +0.005 S 
ATOM      5  C   UNK A   0       3.958  -1.275  -2.542  0.00  0.00    +0.102 A 
ATOM      6  O   UNK A   0       0.979  -0.521  -4.202  0.00  0.00    -0.267 OA
ATOM      7  H   UNK A   0       1.701  -2.971  -4.661  0.00  0.00    +0.177 HD
ENDROOT
BRANCH   1   9
ATOM      8  N   ALA A   1       1.769   1.661  -2.991  0.00  0.00    -0.368 N 
ATOM      9  C   UNK A   0       2.733   0.924  -2.502  0.00  0.00    +0.105 C 
ATOM     10  N   UNK A   0       3.610   1.458  -1.581  0.00  0.00    -0.344 N 
ATOM     11  H   UNK A   0       3.466   2.353  -1.236  0.00  0.00    +0.144 HD
ATOM     12  H   UNK A   0       4.371   0.938  -1.278  0.00  0.00    +0.144 HD
ATOM     13  H   ALA A   1       1.153   1.286  -3.639  0.00  0.00    +0.161 HD
BRANCH   8  15
ATOM     14  CB  ALA A   1       2.533   3.948  -3.400  0.00  0.00    +0.032 C 
ATOM     15  CA  ALA A   1       1.621   3.053  -2.559  0.00  0.00    +0.103 C 
BRANCH  15  16
ATOM     16  C   ALA A   1       0.167   3.492  -2.742  0.00  0.00    +0.180 C 
BRANCH  16  17
ATOM     17  O   ALA A   1      -0.160   3.491  -4.133  0.00  0.00    -0.393 OA
ATOM     18  H   ALA A   1      -1.069   3.759  -4.324  0.00  0.00    +0.209 HD
ENDBRANCH  16  17
ENDBRANCH  15  16
ENDBRANCH   8  15
ENDBRANCH   1   9
BRANCH   5  19
ATOM     19  N   UNK A   0       5.014  -0.942  -1.729  0.00  0.00    -0.307 N 
ATOM     20  H   UNK A   0       4.852  -0.637  -0.823  0.00  0.00    +0.153 HD
BRANCH  19  21
ATOM     21  C   UNK A   0       6.326  -1.041  -2.210  0.00  0.00    +0.032 A 
ATOM     22  C   UNK A   0       6.563  -1.550  -3.480  0.00  0.00    +0.027 A 
ATOM     23  C   UNK A   0       7.857  -1.647  -3.953  0.00  0.00    +0.048 A 
ATOM     24  C   UNK A   0       8.919  -1.238  -3.159  0.00  0.00    +0.129 A 
ATOM     25  C   UNK A   0       8.682  -0.731  -1.890  0.00  0.00    +0.048 A 
ATOM     26  C   UNK A   0       7.389  -0.626  -1.418  0.00  0.00    +0.027 A 
BRANCH  24  27
ATOM     27  O   UNK A   0      10.192  -1.336  -3.626  0.00  0.00    -0.453 OA
BRANCH  27  28
ATOM     28  C   UNK A   0      10.608  -0.421  -4.542  0.00  0.00    +0.166 A 
ATOM     29  C   UNK A   0       9.785   0.642  -4.885  0.00  0.00    +0.049 A 
ATOM     30  C   UNK A   0      10.209   1.571  -5.816  0.00  0.00    +0.007 A 
ATOM     31  C   UNK A   0      11.452   1.444  -6.406  0.00  0.00    +0.041 A 
ATOM     32  C   UNK A   0      12.278   0.386  -6.067  0.00  0.00    +0.162 A 
ATOM     33  C   UNK A   0      11.860  -0.546  -5.130  0.00  0.00    +0.200 A 
ATOM     34  F   UNK A   0      12.666  -1.576  -4.794  0.00  0.00    -0.199 F 
ATOM     35  F   UNK A   0      13.493   0.264  -6.645  0.00  0.00    -0.202 F 
ENDBRANCH  27  28
ENDBRANCH  24  27
ENDBRANCH  19  21
ENDBRANCH   5  19
TORSDOF 8
