REMARK  Name = CHEMBL382616
REMARK  7 active torsions:
REMARK  status: ('A' for Active; 'I' for Inactive)
REMARK    1  A    between atoms: C_1  and  C_2
REMARK    2  A    between atoms: C_3  and  C_27
REMARK    3  A    between atoms: C_7  and  N_13
REMARK    4  A    between atoms: C_8  and  C_11
REMARK    5  A    between atoms: N_13  and  C_14
REMARK    6  A    between atoms: C_17  and  O_20
REMARK    7  A    between atoms: O_20  and  C_21
REMARK                            x       y       z     vdW  Elec       q    Type
REMARK                         _______ _______ _______ _____ _____    ______ ____
ROOT
ATOM      1  C   UNL     1      -0.947   1.786  -0.080  0.00  0.00    +0.047 C 
ATOM      2  C   UNL     1      -0.896   0.284  -0.197  0.00  0.00    -0.011 A 
ATOM      3  C   UNL     1      -1.211  -0.479  -1.337  0.00  0.00    +0.040 A 
ATOM      4  C   UNL     1      -1.027  -1.808  -1.004  0.00  0.00    +0.124 A 
ATOM      5  N   UNL     1      -0.617  -1.885   0.278  0.00  0.00    -0.237 N 
ATOM      6  C   UNL     1      -0.525  -0.607   0.791  0.00  0.00    +0.091 A 
ATOM      7  C   UNL     1      -0.106  -0.423   2.130  0.00  0.00    +0.076 A 
ATOM      8  C   UNL     1       0.207  -1.553   2.895  0.00  0.00    +0.095 A 
ATOM      9  C   UNL     1       0.097  -2.837   2.313  0.00  0.00    +0.154 A 
ATOM     10  N   UNL     1      -0.297  -2.986   1.083  0.00  0.00    -0.173 NA
ENDROOT
BRANCH   3  11
ATOM     11  C   UNL     1      -1.657   0.043  -2.646  0.00  0.00    +0.141 A 
ATOM     12  N   UNL     1      -1.962  -0.725  -3.737  0.00  0.00    -0.338 N 
ATOM     13  H   UNL     1      -1.925  -1.692  -3.788  0.00  0.00    +0.167 HD
ATOM     14  C   UNL     1      -2.333   0.137  -4.752  0.00  0.00    +0.066 A 
ATOM     15  C   UNL     1      -2.742  -0.042  -6.066  0.00  0.00    +0.028 A 
ATOM     16  C   UNL     1      -3.051   1.056  -6.841  0.00  0.00    +0.002 A 
ATOM     17  C   UNL     1      -2.954   2.337  -6.317  0.00  0.00    +0.002 A 
ATOM     18  C   UNL     1      -2.553   2.533  -5.026  0.00  0.00    +0.030 A 
ATOM     19  C   UNL     1      -2.236   1.435  -4.220  0.00  0.00    +0.089 A 
ATOM     20  N   UNL     1      -1.824   1.311  -2.934  0.00  0.00    -0.228 NA
ENDBRANCH   3  11
BRANCH   8  21
ATOM     21  C   UNL     1       0.635  -1.409   4.254  0.00  0.00    +0.103 C 
ATOM     22  N   UNL     1       0.975  -1.295   5.332  0.00  0.00    -0.191 NA
ENDBRANCH   8  21
BRANCH   7  23
ATOM     23  N   UNL     1      -0.008   0.844   2.669  0.00  0.00    -0.312 N 
ATOM     24  H   UNL     1      -0.587   1.105   3.402  0.00  0.00    +0.152 HD
BRANCH  23  25
ATOM     25  C   UNL     1       0.927   1.751   2.159  0.00  0.00    +0.032 A 
ATOM     26  C   UNL     1       1.855   1.335   1.213  0.00  0.00    +0.027 A 
ATOM     27  C   UNL     1       2.777   2.230   0.710  0.00  0.00    +0.048 A 
ATOM     28  C   UNL     1       2.778   3.546   1.150  0.00  0.00    +0.129 A 
ATOM     29  C   UNL     1       1.853   3.963   2.096  0.00  0.00    +0.048 A 
ATOM     30  C   UNL     1       0.925   3.070   2.595  0.00  0.00    +0.027 A 
BRANCH  28  31
ATOM     31  O   UNL     1       3.687   4.428   0.655  0.00  0.00    -0.456 OA
BRANCH  31  32
ATOM     32  C   UNL     1       3.684   5.693   1.150  0.00  0.00    +0.128 A 
ATOM     33  C   UNL     1       4.299   5.965   2.364  0.00  0.00    +0.046 A 
ATOM     34  C   UNL     1       4.295   7.252   2.866  0.00  0.00    +0.004 A 
ATOM     35  C   UNL     1       3.679   8.269   2.159  0.00  0.00    +0.000 A 
ATOM     36  C   UNL     1       3.066   8.000   0.950  0.00  0.00    +0.004 A 
ATOM     37  C   UNL     1       3.072   6.716   0.441  0.00  0.00    +0.046 A 
ENDBRANCH  31  32
ENDBRANCH  28  31
ENDBRANCH  23  25
ENDBRANCH   7  23
TORSDOF 6
