REMARK  Name = CHEMBL1095717
REMARK  7 active torsions:
REMARK  status: ('A' for Active; 'I' for Inactive)
REMARK    1  A    between atoms: C_1  and  N_2
REMARK    2  A    between atoms: C_5  and  C_7
REMARK    3  A    between atoms: N_18  and  C_19
REMARK    4  A    between atoms: C_22  and  N_27
REMARK    5  A    between atoms: C_24  and  O_25
REMARK    6  A    between atoms: O_25  and  C_26
REMARK    7  A    between atoms: N_30  and  C_33
REMARK                            x       y       z     vdW  Elec       q    Type
REMARK                         _______ _______ _______ _____ _____    ______ ____
ROOT
ATOM      1  C   UNL     1       0.147   1.664   0.054  0.00  0.00    +0.173 C 
ATOM      2  N   UNL     1      -0.564   0.383   0.070  0.00  0.00    -0.264 N 
ATOM      3  C   UNL     1      -1.049  -0.247  -1.017  0.00  0.00    +0.091 A 
ATOM      4  C   UNL     1      -1.622  -1.423  -0.579  0.00  0.00    +0.012 A 
ATOM      5  C   UNL     1      -1.462  -1.425   0.807  0.00  0.00    +0.151 A 
ATOM      6  N   UNL     1      -0.815  -0.315   1.127  0.00  0.00    -0.166 NA
ATOM      7  C   UNL     1      -2.240  -2.418  -1.517  0.00  0.00    +0.044 C 
ATOM      8  C   UNL     1      -2.834  -1.691  -2.723  0.00  0.00    +0.043 C 
ATOM      9  C   UNL     1      -1.906  -0.652  -3.283  0.00  0.00    -0.001 A 
ATOM     10  C   UNL     1      -1.045   0.080  -2.453  0.00  0.00    +0.097 A 
ATOM     11  N   UNL     1      -0.266   1.017  -2.972  0.00  0.00    -0.212 NA
ATOM     12  C   UNL     1      -0.284   1.248  -4.279  0.00  0.00    +0.220 A 
ATOM     13  N   UNL     1      -1.069   0.559  -5.094  0.00  0.00    -0.222 NA
ATOM     14  C   UNL     1      -1.881  -0.383  -4.638  0.00  0.00    +0.120 A 
ATOM     15  N   UNL     1       0.536   2.233  -4.802  0.00  0.00    -0.281 N 
ATOM     16  H   UNL     1       1.050   2.802  -4.208  0.00  0.00    +0.155 HD
ENDROOT
BRANCH  15  17
ATOM     17  C   UNL     1       0.624   2.408  -6.192  0.00  0.00    +0.076 A 
ATOM     18  C   UNL     1       0.346   1.348  -7.043  0.00  0.00    +0.029 A 
ATOM     19  C   UNL     1       0.433   1.519  -8.412  0.00  0.00    +0.025 A 
ATOM     20  C   UNL     1       0.798   2.752  -8.938  0.00  0.00    +0.033 A 
ATOM     21  C   UNL     1       1.077   3.814  -8.089  0.00  0.00    +0.070 A 
ATOM     22  C   UNL     1       0.985   3.646  -6.717  0.00  0.00    +0.143 A 
BRANCH  20  23
ATOM     23  N   UNL     1       0.885   2.922 -10.324  0.00  0.00    -0.327 N 
ATOM     24  C   UNL     1       0.478   1.849 -11.243  0.00  0.00    +0.120 C 
ATOM     25  C   UNL     1      -0.493   2.434 -12.274  0.00  0.00    +0.103 C 
ATOM     26  N   UNL     1       0.124   3.602 -12.917  0.00  0.00    -0.302 NA
ATOM     27  C   UNL     1       0.380   4.672 -11.944  0.00  0.00    +0.103 C 
ATOM     28  C   UNL     1       1.381   4.181 -10.899  0.00  0.00    +0.120 C 
ATOM     29  C   UNL     1      -0.702   4.088 -14.030  0.00  0.00    +0.105 C 
ENDBRANCH  20  23
BRANCH  22  30
ATOM     30  O   UNL     1       1.252   4.687  -5.884  0.00  0.00    -0.493 OA
ATOM     31  C   UNL     1       1.616   5.928  -6.492  0.00  0.00    +0.277 C 
ENDBRANCH  22  30
ENDBRANCH  15  17
BRANCH   5  32
ATOM     32  C   UNL     1      -1.924  -2.472   1.742  0.00  0.00    +0.262 C 
ATOM     33  O   UNL     1      -2.506  -3.451   1.318  0.00  0.00    -0.269 OA
ATOM     34  N   UNL     1      -1.698  -2.342   3.064  0.00  0.00    -0.324 N 
ATOM     35  H   UNL     1      -1.233  -1.561   3.402  0.00  0.00    +0.145 HD
ATOM     36  H   UNL     1      -2.002  -3.029   3.678  0.00  0.00    +0.145 HD
ENDBRANCH   5  32
TORSDOF 4
