REMARK  Name = CHEMBL560014
REMARK  6 active torsions:
REMARK  status: ('A' for Active; 'I' for Inactive)
REMARK    1  A    between atoms: C_1  and  C_2
REMARK    2  A    between atoms: C_2  and  C_4
REMARK    3  A    between atoms: C_2  and  O_11
REMARK    4  A    between atoms: O_11  and  C_12
REMARK    5  A    between atoms: C_14  and  C_20
REMARK    6  A    between atoms: C_16  and  C_17
REMARK                            x       y       z     vdW  Elec       q    Type
REMARK                         _______ _______ _______ _____ _____    ______ ____
ROOT
ATOM      1  C   UNL     1       2.025  -0.553  -1.118  0.00  0.00    +0.141 A 
ATOM      2  C   UNL     1       2.695  -0.315   0.053  0.00  0.00    +0.064 A 
ATOM      3  C   UNL     1       4.080  -0.417   0.061  0.00  0.00    +0.042 A 
ATOM      4  S   UNL     1       4.439  -0.860  -1.630  0.00  0.00    -0.079 S 
ATOM      5  C   UNL     1       2.765  -0.893  -2.250  0.00  0.00    +0.116 A 
ENDROOT
BRANCH   3   6
ATOM      6  C   UNL     1       5.011  -0.211   1.176  0.00  0.00    +0.080 A 
ATOM      7  C   UNL     1       4.680   0.034   2.494  0.00  0.00    +0.140 A 
ATOM      8  N   UNL     1       5.804   0.161   3.189  0.00  0.00    -0.235 NA
ATOM      9  C   UNL     1       6.849   0.010   2.382  0.00  0.00    +0.138 A 
ATOM     10  N   UNL     1       6.389  -0.230   1.115  0.00  0.00    -0.299 N 
ATOM     11  C   UNL     1       7.261  -0.429   0.086  0.00  0.00    +0.093 A 
ATOM     12  C   UNL     1       8.595  -0.395   0.299  0.00  0.00    +0.018 A 
ATOM     13  C   UNL     1       9.098  -0.155   1.587  0.00  0.00    +0.005 A 
ATOM     14  C   UNL     1       8.236   0.053   2.620  0.00  0.00    +0.047 A 
ENDBRANCH   3   6
BRANCH   5  15
ATOM     15  C   UNL     1       2.308  -1.187  -3.554  0.00  0.00    +0.252 C 
ATOM     16  O   UNL     1       1.115  -1.159  -3.801  0.00  0.00    -0.270 OA
ATOM     17  N   UNL     1       3.191  -1.497  -4.523  0.00  0.00    -0.325 N 
ATOM     18  H   UNL     1       4.140  -1.519  -4.326  0.00  0.00    +0.145 HD
ATOM     19  H   UNL     1       2.877  -1.699  -5.419  0.00  0.00    +0.145 HD
ENDBRANCH   5  15
BRANCH   1  20
ATOM     20  O   UNL     1       0.671  -0.465  -1.174  0.00  0.00    -0.483 OA
BRANCH  20  22
ATOM     21  C   UNL     1      -0.050   1.264   0.353  0.00  0.00    +0.057 C 
ATOM     22  C   UNL     1      -0.016  -0.237   0.059  0.00  0.00    +0.202 C 
BRANCH  22  23
ATOM     23  C   UNL     1      -1.425  -0.760  -0.048  0.00  0.00    +0.011 A 
ATOM     24  C   UNL     1      -2.030  -0.871  -1.286  0.00  0.00    +0.008 A 
ATOM     25  C   UNL     1      -3.323  -1.350  -1.383  0.00  0.00    +0.000 A 
ATOM     26  C   UNL     1      -4.012  -1.719  -0.243  0.00  0.00    +0.001 A 
ATOM     27  C   UNL     1      -3.408  -1.608   0.996  0.00  0.00    +0.020 A 
ATOM     28  C   UNL     1      -2.112  -1.134   1.093  0.00  0.00    +0.048 A 
ATOM     29 CL   UNL     1      -1.351  -1.001   2.648  0.00  0.00    -0.083 Cl
ENDBRANCH  22  23
ENDBRANCH  20  22
ENDBRANCH   1  20
TORSDOF 5
