REMARK  Name = CHEMBL475947
REMARK  6 active torsions:
REMARK  status: ('A' for Active; 'I' for Inactive)
REMARK    1  A    between atoms: C_3  and  C_7
REMARK    2  A    between atoms: C_7  and  N_8
REMARK    3  A    between atoms: C_12  and  C_26
REMARK    4  A    between atoms: C_13  and  N_15
REMARK    5  A    between atoms: N_15  and  C_16
REMARK    6  A    between atoms: C_19  and  C_22
REMARK                            x       y       z     vdW  Elec       q    Type
REMARK                         _______ _______ _______ _____ _____    ______ ____
ROOT
ATOM      1  N   UNL     1       4.462   1.677   1.416  0.00  0.00    -0.311 N 
ATOM      2  C   UNL     1       5.575   2.465   1.639  0.00  0.00    +0.195 A 
ATOM      3  N   UNL     1       6.296   2.869   0.602  0.00  0.00    -0.333 N 
ATOM      4  C   UNL     1       7.368   3.624   0.768  0.00  0.00    +0.100 A 
ATOM      5  C   UNL     1       7.742   3.998   2.060  0.00  0.00    +0.079 A 
ATOM      6  C   UNL     1       6.952   3.550   3.137  0.00  0.00    +0.139 A 
ATOM      7  N   UNL     1       5.887   2.798   2.882  0.00  0.00    -0.200 NA
ATOM      8  H   UNL     1       3.923   1.376   2.164  0.00  0.00    +0.149 HD
ATOM      9  H   UNL     1       6.032   2.606  -0.294  0.00  0.00    +0.168 HD
ENDROOT
BRANCH   5  10
ATOM     10  C   UNL     1       8.933   4.840   2.291  0.00  0.00    +0.211 A 
ATOM     11  N   UNL     1       9.760   5.327   1.363  0.00  0.00    -0.106 NA
ATOM     12  N   UNL     1      10.669   6.008   1.973  0.00  0.00    -0.021 NA
ATOM     13  N   UNL     1      10.449   5.971   3.241  0.00  0.00    -0.021 NA
ATOM     14  N   UNL     1       9.392   5.270   3.469  0.00  0.00    -0.106 NA
ENDBRANCH   5  10
BRANCH   6  15
ATOM     15  N   UNL     1       7.277   3.891   4.438  0.00  0.00    -0.299 N 
ATOM     16  H   UNL     1       8.098   4.374   4.621  0.00  0.00    +0.154 HD
BRANCH  15  17
ATOM     17  C   UNL     1       6.422   3.541   5.487  0.00  0.00    +0.032 A 
ATOM     18  C   UNL     1       6.944   3.237   6.738  0.00  0.00    +0.024 A 
ATOM     19  C   UNL     1       6.097   2.892   7.772  0.00  0.00    +0.014 A 
ATOM     20  C   UNL     1       4.731   2.846   7.563  0.00  0.00    +0.055 A 
ATOM     21  C   UNL     1       4.208   3.147   6.319  0.00  0.00    +0.014 A 
ATOM     22  C   UNL     1       5.049   3.500   5.282  0.00  0.00    +0.024 A 
BRANCH  20  23
ATOM     23  C   UNL     1       3.809   2.468   8.694  0.00  0.00    +0.417 C 
ATOM     24  F   UNL     1       3.429   3.620   9.392  0.00  0.00    -0.166 F 
ATOM     25  F   UNL     1       2.672   1.839   8.178  0.00  0.00    -0.166 F 
ATOM     26  F   UNL     1       4.472   1.594   9.563  0.00  0.00    -0.166 F 
ENDBRANCH  20  23
ENDBRANCH  15  17
ENDBRANCH   6  15
BRANCH   1  27
ATOM     27  C   UNL     1       4.097   1.295   0.049  0.00  0.00    +0.141 C 
BRANCH  27  30
ATOM     28  C   UNL     1       0.485   0.203   0.034  0.00  0.00    +0.020 A 
ATOM     29  C   UNL     1       1.600   1.027   0.002  0.00  0.00    +0.008 A 
ATOM     30  C   UNL     1       2.855   0.443   0.080  0.00  0.00    -0.012 A 
ATOM     31  C   UNL     1       2.952  -0.932   0.188  0.00  0.00    +0.115 A 
ATOM     32  N   UNL     1       1.870  -1.685   0.215  0.00  0.00    -0.263 NA
ATOM     33  C   UNL     1       0.661  -1.164   0.143  0.00  0.00    +0.111 A 
ENDBRANCH  27  30
ENDBRANCH   1  27
TORSDOF 6
