REMARK  Name = CHEMBL1094820
REMARK  5 active torsions:
REMARK  status: ('A' for Active; 'I' for Inactive)
REMARK    1  A    between atoms: C_1  and  N_2
REMARK    2  A    between atoms: C_5  and  C_7
REMARK    3  A    between atoms: N_18  and  C_19
REMARK    4  A    between atoms: C_24  and  N_25
REMARK    5  A    between atoms: N_25  and  C_26
REMARK                            x       y       z     vdW  Elec       q    Type
REMARK                         _______ _______ _______ _____ _____    ______ ____
ROOT
ATOM      1  C   UNL     1       0.714   1.699   0.117  0.00  0.00    +0.173 C 
ATOM      2  N   UNL     1       0.577   0.242   0.186  0.00  0.00    -0.264 N 
ATOM      3  C   UNL     1       0.291  -0.560  -0.857  0.00  0.00    +0.091 A 
ATOM      4  C   UNL     1       0.275  -1.853  -0.378  0.00  0.00    +0.012 A 
ATOM      5  C   UNL     1       0.541  -1.752   0.988  0.00  0.00    +0.151 A 
ATOM      6  N   UNL     1       0.718  -0.467   1.256  0.00  0.00    -0.166 NA
ATOM      7  C   UNL     1       0.025  -3.039  -1.264  0.00  0.00    +0.044 C 
ATOM      8  C   UNL     1      -0.911  -2.643  -2.406  0.00  0.00    +0.043 C 
ATOM      9  C   UNL     1      -0.526  -1.338  -3.039  0.00  0.00    -0.001 A 
ATOM     10  C   UNL     1       0.041  -0.300  -2.285  0.00  0.00    +0.097 A 
ATOM     11  N   UNL     1       0.334   0.854  -2.865  0.00  0.00    -0.212 NA
ATOM     12  C   UNL     1       0.113   1.021  -4.163  0.00  0.00    +0.220 A 
ATOM     13  N   UNL     1      -0.400   0.053  -4.909  0.00  0.00    -0.222 NA
ATOM     14  C   UNL     1      -0.727  -1.121  -4.389  0.00  0.00    +0.120 A 
ATOM     15  N   UNL     1       0.424   2.235  -4.751  0.00  0.00    -0.282 N 
ATOM     16  H   UNL     1       0.713   2.980  -4.201  0.00  0.00    +0.155 HD
ENDROOT
BRANCH  15  17
ATOM     17  C   UNL     1       0.321   2.388  -6.139  0.00  0.00    +0.055 A 
ATOM     18  C   UNL     1       0.406   1.280  -6.969  0.00  0.00    +0.025 A 
ATOM     19  C   UNL     1       0.304   1.433  -8.339  0.00  0.00    +0.002 A 
ATOM     20  C   UNL     1       0.117   2.688  -8.887  0.00  0.00    +0.002 A 
ATOM     21  C   UNL     1       0.032   3.799  -8.068  0.00  0.00    +0.025 A 
ATOM     22  C   UNL     1       0.127   3.654  -6.691  0.00  0.00    +0.053 A 
BRANCH  22  23
ATOM     23  N   UNL     1       0.035   4.776  -5.860  0.00  0.00    -0.313 N 
ATOM     24  H   UNL     1       0.211   4.691  -4.910  0.00  0.00    +0.152 HD
BRANCH  23  25
ATOM     25  C   UNL     1      -0.312   6.018  -6.398  0.00  0.00    +0.031 A 
ATOM     26  C   UNL     1      -1.321   6.107  -7.349  0.00  0.00    +0.023 A 
ATOM     27  C   UNL     1      -1.660   7.337  -7.878  0.00  0.00    +0.002 A 
ATOM     28  C   UNL     1      -0.997   8.477  -7.464  0.00  0.00    +0.000 A 
ATOM     29  C   UNL     1       0.007   8.392  -6.517  0.00  0.00    +0.002 A 
ATOM     30  C   UNL     1       0.348   7.166  -5.979  0.00  0.00    +0.023 A 
ENDBRANCH  23  25
ENDBRANCH  22  23
ENDBRANCH  15  17
BRANCH   5  31
ATOM     31  C   UNL     1       0.618  -2.869   1.952  0.00  0.00    +0.262 C 
ATOM     32  O   UNL     1       0.439  -4.011   1.575  0.00  0.00    -0.269 OA
ATOM     33  N   UNL     1       0.885  -2.622   3.250  0.00  0.00    -0.324 N 
ATOM     34  H   UNL     1       1.028  -1.710   3.550  0.00  0.00    +0.145 HD
ATOM     35  H   UNL     1       0.935  -3.355   3.883  0.00  0.00    +0.145 HD
ENDBRANCH   5  31
TORSDOF 4
