REMARK  Name = CHEMBL1209843
REMARK  8 active torsions:
REMARK  status: ('A' for Active; 'I' for Inactive)
REMARK    1  A    between atoms: C_1  and  C_2
REMARK    2  A    between atoms: C_2  and  C_4
REMARK    3  A    between atoms: C_2  and  O_11
REMARK    4  A    between atoms: O_11  and  C_12
REMARK    5  A    between atoms: C_14  and  N_20
REMARK    6  A    between atoms: C_16  and  C_17
REMARK    7  A    between atoms: C_26  and  C_29
REMARK    8  A    between atoms: N_32  and  C_34
REMARK                            x       y       z     vdW  Elec       q    Type
REMARK                         _______ _______ _______ _____ _____    ______ ____
ROOT
ATOM      1  C   UNL     1       2.013  -0.763   1.015  0.00  0.00    +0.143 A 
ATOM      2  C   UNL     1       2.666  -0.500  -0.163  0.00  0.00    +0.080 A 
ATOM      3  C   UNL     1       3.997  -0.802  -0.270  0.00  0.00    +0.090 A 
ATOM      4  S   UNL     1       4.365  -1.486   1.337  0.00  0.00    -0.062 S 
ATOM      5  C   UNL     1       2.741  -1.327   2.061  0.00  0.00    +0.117 A 
ENDROOT
BRANCH   3   6
ATOM      6  N   UNL     1       4.847  -0.623  -1.357  0.00  0.00    -0.292 N 
ATOM      7  C   UNL     1       4.608  -1.008  -2.644  0.00  0.00    +0.205 A 
ATOM      8  N   UNL     1       5.615  -0.684  -3.401  0.00  0.00    -0.235 NA
ATOM      9  C   UNL     1       6.571  -0.069  -2.656  0.00  0.00    +0.089 A 
ATOM     10  C   UNL     1       6.090  -0.016  -1.336  0.00  0.00    +0.074 A 
ATOM     11  C   UNL     1       6.859   0.570  -0.343  0.00  0.00    +0.037 A 
ATOM     12  C   UNL     1       8.102   1.104  -0.662  0.00  0.00    -0.013 A 
ATOM     13  C   UNL     1       8.573   1.051  -1.977  0.00  0.00    +0.011 A 
ATOM     14  C   UNL     1       7.825   0.470  -2.958  0.00  0.00    +0.030 A 
BRANCH  12  15
ATOM     15  C   UNL     1       8.931   1.733   0.397  0.00  0.00    +0.020 A 
ATOM     16  C   UNL     1       8.591   1.853   1.758  0.00  0.00    +0.142 A 
ATOM     17  N   UNL     1       9.573   2.462   2.369  0.00  0.00    -0.179 NA
ATOM     18  N   UNL     1      10.570   2.753   1.430  0.00  0.00    -0.274 N 
ATOM     19  C   UNL     1      10.163   2.295   0.229  0.00  0.00    +0.116 A 
ATOM     20  C   UNL     1      11.838   3.432   1.706  0.00  0.00    +0.172 C 
ENDBRANCH  12  15
ENDBRANCH   3   6
BRANCH   5  21
ATOM     21  C   UNL     1       2.306  -1.683   3.358  0.00  0.00    +0.252 C 
ATOM     22  O   UNL     1       1.146  -1.502   3.683  0.00  0.00    -0.270 OA
ATOM     23  N   UNL     1       3.175  -2.223   4.236  0.00  0.00    -0.325 N 
ATOM     24  H   UNL     1       4.099  -2.367   3.977  0.00  0.00    +0.145 HD
ATOM     25  H   UNL     1       2.877  -2.467   5.126  0.00  0.00    +0.145 HD
ENDBRANCH   5  21
BRANCH   1  26
ATOM     26  O   UNL     1       0.693  -0.477   1.160  0.00  0.00    -0.483 OA
BRANCH  26  28
ATOM     27  C   UNL     1       0.188   1.507  -0.124  0.00  0.00    +0.057 C 
ATOM     28  C   UNL     1       0.001  -0.006   0.002  0.00  0.00    +0.202 C 
BRANCH  28  29
ATOM     29  C   UNL     1      -1.467  -0.323   0.131  0.00  0.00    +0.011 A 
ATOM     30  C   UNL     1      -2.034  -0.476   1.382  0.00  0.00    +0.008 A 
ATOM     31  C   UNL     1      -3.380  -0.766   1.500  0.00  0.00    +0.000 A 
ATOM     32  C   UNL     1      -4.160  -0.903   0.367  0.00  0.00    +0.001 A 
ATOM     33  C   UNL     1      -3.595  -0.750  -0.884  0.00  0.00    +0.020 A 
ATOM     34  C   UNL     1      -2.248  -0.454  -1.003  0.00  0.00    +0.048 A 
ATOM     35 CL   UNL     1      -1.539  -0.255  -2.575  0.00  0.00    -0.083 Cl
ENDBRANCH  28  29
ENDBRANCH  26  28
ENDBRANCH   1  26
TORSDOF 6
