REMARK  Name = CHEMBL522170
REMARK  11 active torsions:
REMARK  status: ('A' for Active; 'I' for Inactive)
REMARK    1  A    between atoms: C_1  and  C_2
REMARK    2  A    between atoms: C_2  and  C_4
REMARK    3  A    between atoms: C_2  and  O_14
REMARK    4  A    between atoms: C_9  and  C_10
REMARK    5  A    between atoms: O_14  and  C_15
REMARK    6  A    between atoms: C_17  and  N_23
REMARK    7  A    between atoms: C_19  and  C_20
REMARK    8  A    between atoms: C_29  and  O_32
REMARK    9  A    between atoms: O_32  and  C_33
REMARK   10  A    between atoms: C_33  and  C_34
REMARK   11  A    between atoms: N_37  and  C_40
REMARK                            x       y       z     vdW  Elec       q    Type
REMARK                         _______ _______ _______ _____ _____    ______ ____
ROOT
ATOM      1  C   UNL     1      -1.964  -0.607  -1.188  0.00  0.00    +0.143 A 
ATOM      2  C   UNL     1      -1.292  -0.355  -2.358  0.00  0.00    +0.080 A 
ATOM      3  C   UNL     1      -1.957  -0.475  -3.549  0.00  0.00    +0.090 A 
ATOM      4  S   UNL     1      -3.594  -0.959  -3.026  0.00  0.00    -0.062 S 
ATOM      5  C   UNL     1      -3.305  -0.981  -1.265  0.00  0.00    +0.117 A 
ENDROOT
BRANCH   3   6
ATOM      6  N   UNL     1      -1.479  -0.271  -4.840  0.00  0.00    -0.292 N 
ATOM      7  C   UNL     1      -0.785   0.817  -5.284  0.00  0.00    +0.205 A 
ATOM      8  N   UNL     1      -0.494   0.678  -6.543  0.00  0.00    -0.235 NA
ATOM      9  C   UNL     1      -0.980  -0.508  -6.997  0.00  0.00    +0.090 A 
ATOM     10  C   UNL     1      -1.612  -1.136  -5.911  0.00  0.00    +0.077 A 
ATOM     11  C   UNL     1      -2.202  -2.380  -6.079  0.00  0.00    +0.074 A 
ATOM     12  C   UNL     1      -2.159  -2.996  -7.317  0.00  0.00    +0.123 A 
ATOM     13  C   UNL     1      -1.529  -2.374  -8.390  0.00  0.00    +0.048 A 
ATOM     14  C   UNL     1      -0.952  -1.145  -8.241  0.00  0.00    +0.033 A 
BRANCH  12  15
ATOM     15  O   UNL     1      -2.736  -4.216  -7.486  0.00  0.00    -0.492 OA
BRANCH  15  16
ATOM     16  C   UNL     1      -2.657  -4.796  -8.789  0.00  0.00    +0.232 C 
BRANCH  16  17
ATOM     17  C   UNL     1      -3.356  -6.157  -8.785  0.00  0.00    +0.023 C 
ATOM     18  C   UNL     1      -2.592  -7.123  -7.874  0.00  0.00    -0.012 C 
ATOM     19  C   UNL     1      -3.250  -8.503  -7.936  0.00  0.00    -0.079 C 
ATOM     20  N   UNL     1      -3.219  -9.002  -9.316  0.00  0.00    +0.378 N 
ATOM     21  C   UNL     1      -4.010  -8.119 -10.183  0.00  0.00    -0.079 C 
ATOM     22  C   UNL     1      -3.381  -6.725 -10.207  0.00  0.00    -0.012 C 
ATOM     23  C   UNL     1      -3.781 -10.358  -9.358  0.00  0.00    -0.096 C 
ATOM     24  H   UNL     1      -2.265  -9.025  -9.643  0.00  0.00    -0.082 HD
ENDBRANCH  16  17
ENDBRANCH  15  16
ENDBRANCH  12  15
ENDBRANCH   3   6
BRANCH   5  25
ATOM     25  C   UNL     1      -4.203  -1.294  -0.219  0.00  0.00    +0.252 C 
ATOM     26  O   UNL     1      -3.827  -1.254   0.939  0.00  0.00    -0.270 OA
ATOM     27  N   UNL     1      -5.475  -1.637  -0.503  0.00  0.00    -0.325 N 
ATOM     28  H   UNL     1      -5.774  -1.669  -1.426  0.00  0.00    +0.145 HD
ATOM     29  H   UNL     1      -6.091  -1.852   0.214  0.00  0.00    +0.145 HD
ENDBRANCH   5  25
BRANCH   1  30
ATOM     30  O   UNL     1      -1.339  -0.499   0.012  0.00  0.00    -0.483 OA
BRANCH  30  32
ATOM     31  C   UNL     1       0.300   1.272  -0.133  0.00  0.00    +0.057 C 
ATOM     32  C   UNL     1       0.066  -0.235  -0.010  0.00  0.00    +0.201 C 
BRANCH  32  33
ATOM     33  C   UNL     1       0.691  -0.739   1.265  0.00  0.00    +0.004 A 
ATOM     34  C   UNL     1      -0.076  -0.866   2.409  0.00  0.00    +0.008 A 
ATOM     35  C   UNL     1       0.498  -1.328   3.578  0.00  0.00    +0.000 A 
ATOM     36  C   UNL     1       1.839  -1.663   3.604  0.00  0.00    +0.001 A 
ATOM     37  C   UNL     1       2.606  -1.537   2.462  0.00  0.00    +0.013 A 
ATOM     38  C   UNL     1       2.031  -1.079   1.290  0.00  0.00    +0.061 A 
BRANCH  38  39
ATOM     39  C   UNL     1       2.865  -0.947   0.043  0.00  0.00    +0.418 C 
ATOM     40  F   UNL     1       4.178  -1.348   0.315  0.00  0.00    -0.166 F 
ATOM     41  F   UNL     1       2.330  -1.756  -0.965  0.00  0.00    -0.166 F 
ATOM     42  F   UNL     1       2.864   0.387  -0.380  0.00  0.00    -0.166 F 
ENDBRANCH  38  39
ENDBRANCH  32  33
ENDBRANCH  30  32
ENDBRANCH   1  30
TORSDOF 9
