REMARK  Name = CHEMBL491021
REMARK  7 active torsions:
REMARK  status: ('A' for Active; 'I' for Inactive)
REMARK    1  A    between atoms: C_1  and  C_2
REMARK    2  A    between atoms: C_2  and  C_4
REMARK    3  A    between atoms: C_2  and  N_10
REMARK    4  A    between atoms: C_19  and  C_20
REMARK    5  A    between atoms: C_22  and  C_27
REMARK    6  A    between atoms: C_27  and  C_28
REMARK    7  A    between atoms: C_28  and  C_29
REMARK                            x       y       z     vdW  Elec       q    Type
REMARK                         _______ _______ _______ _____ _____    ______ ____
ROOT
ATOM      1  N   UNL     1       0.711  -0.489   1.189  0.00  0.00    -0.322 N 
ATOM      2  C   UNL     1       2.099  -0.604   1.173  0.00  0.00    +0.120 A 
ATOM      3  C   UNL     1       2.802  -0.250   0.031  0.00  0.00    +0.057 A 
ATOM      4  C   UNL     1       4.190  -0.371   0.037  0.00  0.00    +0.054 A 
ATOM      5  C   UNL     1       4.822  -0.847   1.200  0.00  0.00    +0.186 A 
ATOM      6  C   UNL     1       4.042  -1.178   2.297  0.00  0.00    +0.162 A 
ATOM      7  N   UNL     1       2.731  -1.044   2.252  0.00  0.00    -0.237 NA
ATOM      8  O   UNL     1       6.147  -0.871   0.950  0.00  0.00    -0.353 OA
ATOM      9  N   UNL     1       6.389  -0.415  -0.366  0.00  0.00    -0.077 NA
ATOM     10  C   UNL     1       5.256  -0.109  -0.941  0.00  0.00    +0.121 A 
ATOM     11  H   UNL     1       0.213  -0.731   1.986  0.00  0.00    +0.148 HD
ENDROOT
BRANCH  10  12
ATOM     12  C   UNL     1       5.079   0.405  -2.320  0.00  0.00    +0.006 A 
ATOM     13  C   UNL     1       6.031   1.258  -2.877  0.00  0.00    +0.014 A 
ATOM     14  C   UNL     1       5.862   1.733  -4.161  0.00  0.00    -0.045 A 
ATOM     15  C   UNL     1       4.750   1.366  -4.896  0.00  0.00    +0.023 A 
ATOM     16  C   UNL     1       3.800   0.520  -4.349  0.00  0.00    +0.042 A 
ATOM     17  C   UNL     1       3.963   0.033  -3.067  0.00  0.00    +0.030 A 
ATOM     18 CL   UNL     1       2.406   0.065  -5.279  0.00  0.00    -0.084 Cl
BRANCH  14  19
ATOM     19  C   UNL     1       6.891   2.655  -4.763  0.00  0.00    +0.044 C 
BRANCH  19  20
ATOM     20  C   UNL     1       7.957   1.827  -5.484  0.00  0.00    +0.100 C 
BRANCH  20  21
ATOM     21  C   UNL     1       8.986   2.749  -6.086  0.00  0.00    +0.211 C 
ATOM     22  O   UNL     1       8.878   3.950  -5.952  0.00  0.00    -0.276 OA
ATOM     23  N   UNL     1      10.028   2.239  -6.773  0.00  0.00    -0.329 N 
ATOM     24  H   UNL     1      10.115   1.279  -6.880  0.00  0.00    +0.145 HD
ATOM     25  H   UNL     1      10.690   2.833  -7.161  0.00  0.00    +0.145 HD
ENDBRANCH  20  21
ENDBRANCH  19  20
ENDBRANCH  14  19
ENDBRANCH  10  12
BRANCH   1  27
ATOM     26  C   UNL     1      -0.019   1.526   0.010  0.00  0.00    +0.033 C 
ATOM     27  C   UNL     1       0.002  -0.004   0.002  0.00  0.00    +0.099 C 
BRANCH  27  28
ATOM     28  C   UNL     1      -1.412  -0.526   0.013  0.00  0.00    -0.028 A 
ATOM     29  C   UNL     1      -2.123  -0.571   1.197  0.00  0.00    +0.005 A 
ATOM     30  C   UNL     1      -3.420  -1.049   1.207  0.00  0.00    +0.000 A 
ATOM     31  C   UNL     1      -4.006  -1.482   0.032  0.00  0.00    +0.000 A 
ATOM     32  C   UNL     1      -3.295  -1.436  -1.153  0.00  0.00    +0.000 A 
ATOM     33  C   UNL     1      -2.000  -0.954  -1.163  0.00  0.00    +0.005 A 
ENDBRANCH  27  28
ENDBRANCH   1  27
TORSDOF 6
