REMARK  Name = CHEMBL519881
REMARK  11 active torsions:
REMARK  status: ('A' for Active; 'I' for Inactive)
REMARK    1  A    between atoms: C_1  and  C_2
REMARK    2  A    between atoms: C_9  and  C_11
REMARK    3  A    between atoms: C_15  and  O_17
REMARK    4  A    between atoms: O_17  and  C_18
REMARK    5  A    between atoms: N_24  and  C_25
REMARK    6  A    between atoms: C_27  and  O_35
REMARK    7  A    between atoms: C_28  and  O_33
REMARK    8  A    between atoms: C_29  and  O_31
REMARK    9  A    between atoms: O_31  and  C_32
REMARK   10  A    between atoms: O_33  and  C_34
REMARK   11  A    between atoms: O_35  and  C_36
REMARK                            x       y       z     vdW  Elec       q    Type
REMARK                         _______ _______ _______ _____ _____    ______ ____
ROOT
ATOM      1  C   UNL     1      -1.556   1.546  -0.763  0.00  0.00    +0.068 C 
ATOM      2  C   UNL     1      -1.135   0.106  -0.618  0.00  0.00    +0.067 A 
ATOM      3  C   UNL     1      -1.042  -0.824  -1.639  0.00  0.00    +0.107 A 
ATOM      4  C   UNL     1      -1.272  -0.801  -3.022  0.00  0.00    +0.144 A 
ATOM      5  N   UNL     1      -1.084  -1.895  -3.726  0.00  0.00    -0.219 NA
ATOM      6  C   UNL     1      -0.677  -3.037  -3.159  0.00  0.00    +0.238 A 
ATOM      7  N   UNL     1      -0.444  -3.128  -1.870  0.00  0.00    -0.128 NA
ATOM      8  N   UNL     1      -0.622  -2.006  -1.053  0.00  0.00    -0.208 N 
ATOM      9  C   UNL     1      -0.476  -1.762   0.268  0.00  0.00    +0.162 A 
ATOM     10  N   UNL     1      -0.780  -0.496   0.510  0.00  0.00    -0.230 NA
ATOM     11  N   UNL     1      -0.497  -4.158  -3.957  0.00  0.00    -0.282 N 
ATOM     12  H   UNL     1      -0.283  -5.013  -3.551  0.00  0.00    +0.155 HD
ENDROOT
BRANCH   9  13
ATOM     13  C   UNL     1      -0.041  -2.747   1.279  0.00  0.00    +0.023 A 
ATOM     14  C   UNL     1      -0.036  -4.110   0.974  0.00  0.00    +0.012 A 
ATOM     15  C   UNL     1       0.372  -5.027   1.920  0.00  0.00    +0.004 A 
ATOM     16  C   UNL     1       0.776  -4.602   3.172  0.00  0.00    +0.046 A 
ATOM     17  C   UNL     1       0.775  -3.249   3.486  0.00  0.00    +0.129 A 
ATOM     18  C   UNL     1       0.373  -2.319   2.541  0.00  0.00    +0.057 A 
BRANCH  17  19
ATOM     19  O   UNL     1       1.173  -2.837   4.718  0.00  0.00    -0.456 OA
BRANCH  19  20
ATOM     20  C   UNL     1       0.213  -2.485   5.614  0.00  0.00    +0.128 A 
ATOM     21  C   UNL     1      -1.128  -2.604   5.279  0.00  0.00    +0.046 A 
ATOM     22  C   UNL     1      -2.101  -2.246   6.191  0.00  0.00    +0.004 A 
ATOM     23  C   UNL     1      -1.740  -1.769   7.438  0.00  0.00    +0.000 A 
ATOM     24  C   UNL     1      -0.404  -1.649   7.774  0.00  0.00    +0.004 A 
ATOM     25  C   UNL     1       0.573  -2.012   6.868  0.00  0.00    +0.046 A 
ENDBRANCH  19  20
ENDBRANCH  17  19
ENDBRANCH   9  13
BRANCH  11  26
ATOM     26  C   UNL     1      -0.624  -4.056  -5.347  0.00  0.00    +0.041 A 
ATOM     27  C   UNL     1      -0.208  -2.902  -5.999  0.00  0.00    +0.073 A 
ATOM     28  C   UNL     1      -0.333  -2.800  -7.375  0.00  0.00    +0.167 A 
ATOM     29  C   UNL     1      -0.874  -3.852  -8.104  0.00  0.00    +0.204 A 
ATOM     30  C   UNL     1      -1.290  -5.007  -7.451  0.00  0.00    +0.167 A 
ATOM     31  C   UNL     1      -1.160  -5.110  -6.075  0.00  0.00    +0.073 A 
BRANCH  30  32
ATOM     32  O   UNL     1      -1.820  -6.037  -8.163  0.00  0.00    -0.491 OA
ATOM     33  C   UNL     1      -2.226  -7.193  -7.427  0.00  0.00    +0.277 C 
ENDBRANCH  30  32
BRANCH  29  34
ATOM     34  O   UNL     1      -0.998  -3.752  -9.456  0.00  0.00    -0.488 OA
ATOM     35  C   UNL     1       0.106  -4.204 -10.243  0.00  0.00    +0.277 C 
ENDBRANCH  29  34
BRANCH  28  36
ATOM     36  O   UNL     1       0.073  -1.669  -8.013  0.00  0.00    -0.491 OA
ATOM     37  C   UNL     1       0.620  -0.627  -7.202  0.00  0.00    +0.277 C 
ENDBRANCH  28  36
ENDBRANCH  11  26
TORSDOF 7
