REMARK  Name = CHEMBL477604
REMARK  8 active torsions:
REMARK  status: ('A' for Active; 'I' for Inactive)
REMARK    1  A    between atoms: C_1  and  C_2
REMARK    2  A    between atoms: C_2  and  C_3
REMARK    3  A    between atoms: C_2  and  N_9
REMARK    4  A    between atoms: C_13  and  C_25
REMARK    5  A    between atoms: C_14  and  N_16
REMARK    6  A    between atoms: N_16  and  C_17
REMARK    7  A    between atoms: C_21  and  O_23
REMARK    8  A    between atoms: O_23  and  C_24
REMARK                            x       y       z     vdW  Elec       q    Type
REMARK                         _______ _______ _______ _____ _____    ______ ____
ROOT
ATOM      1  N   UNL     1      -1.537  -0.076   0.019  0.00  0.00    -0.307 N 
ATOM      2  C   UNL     1      -2.127  -0.441   1.212  0.00  0.00    +0.217 A 
ATOM      3  N   UNL     1      -1.436  -0.309   2.338  0.00  0.00    -0.222 NA
ATOM      4  C   UNL     1      -1.959  -0.645   3.503  0.00  0.00    +0.136 A 
ATOM      5  C   UNL     1      -3.264  -1.148   3.543  0.00  0.00    +0.110 A 
ATOM      6  C   UNL     1      -3.967  -1.274   2.325  0.00  0.00    +0.146 A 
ATOM      7  N   UNL     1      -3.367  -0.907   1.199  0.00  0.00    -0.198 NA
ATOM      8  H   UNL     1      -2.030  -0.162  -0.812  0.00  0.00    +0.149 HD
ENDROOT
BRANCH   1  10
ATOM      9  C   UNL     1      -0.188   1.947   0.288  0.00  0.00    +0.033 C 
ATOM     10  C   UNL     1      -0.167   0.443   0.007  0.00  0.00    +0.100 C 
BRANCH  10  11
ATOM     11  C   UNL     1       0.454   0.193  -1.343  0.00  0.00    -0.027 A 
ATOM     12  C   UNL     1      -0.296   0.367  -2.491  0.00  0.00    +0.005 A 
ATOM     13  C   UNL     1       0.273   0.137  -3.730  0.00  0.00    +0.000 A 
ATOM     14  C   UNL     1       1.593  -0.266  -3.820  0.00  0.00    +0.000 A 
ATOM     15  C   UNL     1       2.343  -0.439  -2.672  0.00  0.00    +0.000 A 
ATOM     16  C   UNL     1       1.775  -0.205  -1.433  0.00  0.00    +0.005 A 
ENDBRANCH  10  11
ENDBRANCH   1  10
BRANCH   6  17
ATOM     17  N   UNL     1      -5.258  -1.764   2.306  0.00  0.00    -0.298 N 
ATOM     18  H   UNL     1      -5.720  -1.947   3.140  0.00  0.00    +0.154 HD
BRANCH  17  19
ATOM     19  C   UNL     1      -5.899  -1.998   1.086  0.00  0.00    +0.036 A 
ATOM     20  C   UNL     1      -5.173  -2.460  -0.004  0.00  0.00    +0.023 A 
ATOM     21  C   UNL     1      -5.806  -2.690  -1.210  0.00  0.00    +0.005 A 
ATOM     22  C   UNL     1      -7.164  -2.461  -1.335  0.00  0.00    +0.046 A 
ATOM     23  C   UNL     1      -7.894  -1.999  -0.249  0.00  0.00    +0.122 A 
ATOM     24  C   UNL     1      -7.263  -1.773   0.964  0.00  0.00    +0.069 A 
BRANCH  23  25
ATOM     25  O   UNL     1      -9.229  -1.773  -0.374  0.00  0.00    -0.495 OA
ATOM     26  C   UNL     1      -9.814  -2.034  -1.651  0.00  0.00    +0.277 C 
ENDBRANCH  23  25
ENDBRANCH  17  19
ENDBRANCH   6  17
BRANCH   5  27
ATOM     27  C   UNL     1      -3.870  -1.525   4.785  0.00  0.00    +0.104 C 
ATOM     28  N   UNL     1      -4.350  -1.824   5.770  0.00  0.00    -0.191 NA
ENDBRANCH   5  27
TORSDOF 6
