REMARK  Name = CHEMBL490814
REMARK  8 active torsions:
REMARK  status: ('A' for Active; 'I' for Inactive)
REMARK    1  A    between atoms: C_1  and  C_2
REMARK    2  A    between atoms: C_2  and  C_4
REMARK    3  A    between atoms: C_2  and  N_10
REMARK    4  A    between atoms: C_19  and  C_20
REMARK    5  A    between atoms: C_22  and  C_27
REMARK    6  A    between atoms: C_27  and  C_28
REMARK    7  A    between atoms: C_28  and  C_29
REMARK    8  A    between atoms: C_29  and  O_30
REMARK                            x       y       z     vdW  Elec       q    Type
REMARK                         _______ _______ _______ _____ _____    ______ ____
ROOT
ATOM      1  N   UNL     1       0.688  -0.476  -1.203  0.00  0.00    -0.322 N 
ATOM      2  C   UNL     1      -0.017  -0.613  -2.398  0.00  0.00    +0.120 A 
ATOM      3  C   UNL     1      -1.366  -0.293  -2.436  0.00  0.00    +0.057 A 
ATOM      4  C   UNL     1      -2.051  -0.436  -3.641  0.00  0.00    +0.054 A 
ATOM      5  C   UNL     1      -1.349  -0.898  -4.768  0.00  0.00    +0.186 A 
ATOM      6  C   UNL     1       0.000  -1.195  -4.640  0.00  0.00    +0.162 A 
ATOM      7  N   UNL     1       0.613  -1.041  -3.483  0.00  0.00    -0.237 NA
ATOM      8  O   UNL     1      -2.227  -0.947  -5.791  0.00  0.00    -0.353 OA
ATOM      9  N   UNL     1      -3.498  -0.521  -5.344  0.00  0.00    -0.077 NA
ATOM     10  C   UNL     1      -3.437  -0.210  -4.077  0.00  0.00    +0.121 A 
ATOM     11  H   UNL     1       1.632  -0.695  -1.170  0.00  0.00    +0.148 HD
ENDROOT
BRANCH  10  12
ATOM     12  C   UNL     1      -4.556   0.280  -3.235  0.00  0.00    +0.006 A 
ATOM     13  C   UNL     1      -5.535   1.106  -3.785  0.00  0.00    +0.014 A 
ATOM     14  C   UNL     1      -6.574   1.558  -2.998  0.00  0.00    -0.045 A 
ATOM     15  C   UNL     1      -6.646   1.194  -1.665  0.00  0.00    +0.023 A 
ATOM     16  C   UNL     1      -5.677   0.374  -1.113  0.00  0.00    +0.042 A 
ATOM     17  C   UNL     1      -4.635  -0.090  -1.894  0.00  0.00    +0.030 A 
ATOM     18 CL   UNL     1      -5.774  -0.078   0.560  0.00  0.00    -0.084 Cl
BRANCH  14  19
ATOM     19  C   UNL     1      -7.633   2.451  -3.591  0.00  0.00    +0.037 C 
BRANCH  19  20
ATOM     20  C   UNL     1      -8.769   1.593  -4.152  0.00  0.00    +0.032 C 
BRANCH  20  21
ATOM     21  C   UNL     1      -9.844   2.500  -4.754  0.00  0.00    +0.156 C 
BRANCH  21  22
ATOM     22  O   UNL     1     -10.905   1.699  -5.277  0.00  0.00    -0.395 OA
ATOM     23  H   UNL     1     -11.623   2.209  -5.676  0.00  0.00    +0.209 HD
ENDBRANCH  21  22
ENDBRANCH  20  21
ENDBRANCH  19  20
ENDBRANCH  14  19
ENDBRANCH  10  12
BRANCH   1  25
ATOM     24  C   UNL     1      -0.019   1.526   0.010  0.00  0.00    +0.033 C 
ATOM     25  C   UNL     1       0.002  -0.004   0.002  0.00  0.00    +0.099 C 
BRANCH  25  26
ATOM     26  C   UNL     1       0.731  -0.503   1.223  0.00  0.00    -0.028 A 
ATOM     27  C   UNL     1       2.113  -0.514   1.247  0.00  0.00    +0.005 A 
ATOM     28  C   UNL     1       2.782  -0.972   2.366  0.00  0.00    +0.000 A 
ATOM     29  C   UNL     1       2.068  -1.419   3.463  0.00  0.00    +0.000 A 
ATOM     30  C   UNL     1       0.686  -1.407   3.439  0.00  0.00    +0.000 A 
ATOM     31  C   UNL     1       0.017  -0.945   2.321  0.00  0.00    +0.005 A 
ENDBRANCH  25  26
ENDBRANCH   1  25
TORSDOF 7
