REMARK  Name = CHEMBL516110
REMARK  6 active torsions:
REMARK  status: ('A' for Active; 'I' for Inactive)
REMARK    1  A    between atoms: C_1  and  N_2
REMARK    2  A    between atoms: N_5  and  C_8
REMARK    3  A    between atoms: C_11  and  C_14
REMARK    4  A    between atoms: N_16  and  C_17
REMARK    5  A    between atoms: C_26  and  C_28
REMARK    6  A    between atoms: C_28  and  C_29
REMARK                            x       y       z     vdW  Elec       q    Type
REMARK                         _______ _______ _______ _____ _____    ______ ____
ROOT
ATOM      1  C   UNL     1      -2.370  -6.728   4.287  0.00  0.00    +0.249 C 
ATOM      2  O   UNL     1      -3.515  -7.125   4.183  0.00  0.00    -0.270 OA
ATOM      3  N   UNL     1      -1.546  -7.278   5.200  0.00  0.00    -0.266 N 
ATOM      4  H   UNL     1      -0.633  -6.961   5.283  0.00  0.00    +0.157 HD
ENDROOT
BRANCH   3   5
ATOM      5  C   UNL     1      -2.006  -8.303   6.026  0.00  0.00    +0.126 A 
ATOM      6  C   UNL     1      -1.287  -8.947   6.987  0.00  0.00    +0.034 A 
ATOM      7  C   UNL     1      -2.118  -9.901   7.578  0.00  0.00    +0.087 A 
ATOM      8  N   UNL     1      -3.293  -9.839   7.001  0.00  0.00    -0.175 NA
ATOM      9  H   UNL     1      -3.987  -8.574   5.445  0.00  0.00    +0.190 HD
ATOM     10  N   UNL     1      -3.254  -8.838   6.023  0.00  0.00    -0.263 N 
ATOM     11  C   UNL     1      -1.337 -10.624   8.646  0.00  0.00    +0.165 C 
ATOM     12  N   UNL     1       0.016 -10.058   8.672  0.00  0.00    -0.291 N 
ATOM     13  C   UNL     1       0.067  -9.012   7.646  0.00  0.00    +0.148 C 
ATOM     14  C   UNL     1       1.023 -10.430   9.486  0.00  0.00    +0.221 C 
ATOM     15  O   UNL     1       2.101  -9.879   9.408  0.00  0.00    -0.275 OA
BRANCH  14  16
ATOM     16  C   UNL     1       0.810 -11.529  10.494  0.00  0.00    +0.138 C 
BRANCH  16  17
ATOM     17  C   UNL     1       2.082 -11.750  11.273  0.00  0.00    -0.001 A 
ATOM     18  C   UNL     1       2.487 -11.167  12.428  0.00  0.00    +0.011 A 
ATOM     19  C   UNL     1       3.707 -11.528  12.969  0.00  0.00    +0.008 A 
ATOM     20  C   UNL     1       4.461 -12.455  12.328  0.00  0.00    +0.045 A 
ATOM     21  S   UNL     1       3.440 -12.852  10.918  0.00  0.00    -0.101 S 
ENDBRANCH  16  17
ENDBRANCH  14  16
ENDBRANCH   3   5
BRANCH   1  25
ATOM     22  C   UNL     1      -0.970  -3.605   1.773  0.00  0.00    +0.030 A 
ATOM     23  C   UNL     1      -2.280  -4.059   1.652  0.00  0.00    +0.024 A 
ATOM     24  C   UNL     1      -2.737  -5.071   2.465  0.00  0.00    +0.015 A 
ATOM     25  C   UNL     1      -1.884  -5.643   3.413  0.00  0.00    +0.037 A 
ATOM     26  C   UNL     1      -0.568  -5.185   3.532  0.00  0.00    +0.015 A 
ATOM     27  C   UNL     1      -0.116  -4.176   2.712  0.00  0.00    +0.024 A 
BRANCH  22  32
ATOM     28  C   UNL     1      -0.039   1.464  -0.002  0.00  0.00    -0.096 C 
ATOM     29  N   UNL     1      -0.008  -0.004  -0.004  0.00  0.00    +0.380 N 
ATOM     30  C   UNL     1      -1.383  -0.521  -0.015  0.00  0.00    -0.060 C 
ATOM     31  C   UNL     1      -1.352  -2.048  -0.132  0.00  0.00    +0.086 C 
ATOM     32  N   UNL     1      -0.511  -2.583   0.950  0.00  0.00    -0.333 N 
ATOM     33  C   UNL     1       0.828  -2.004   1.137  0.00  0.00    +0.086 C 
ATOM     34  C   UNL     1       0.695  -0.479   1.195  0.00  0.00    -0.060 C 
ATOM     35  H   UNL     1       0.477  -0.328  -0.827  0.00  0.00    -0.082 HD
ENDBRANCH  22  32
ENDBRANCH   1  25
TORSDOF 5
