REMARK  Name = CHEMBL1209676
REMARK  8 active torsions:
REMARK  status: ('A' for Active; 'I' for Inactive)
REMARK    1  A    between atoms: C_1  and  C_2
REMARK    2  A    between atoms: C_2  and  C_4
REMARK    3  A    between atoms: C_2  and  O_14
REMARK    4  A    between atoms: C_9  and  C_10
REMARK    5  A    between atoms: O_14  and  C_15
REMARK    6  A    between atoms: C_17  and  N_23
REMARK    7  A    between atoms: C_19  and  C_20
REMARK    8  A    between atoms: C_30  and  C_32
REMARK                            x       y       z     vdW  Elec       q    Type
REMARK                         _______ _______ _______ _____ _____    ______ ____
ROOT
ATOM      1  C   UNL     1      -1.868  -0.817   1.221  0.00  0.00    +0.143 A 
ATOM      2  C   UNL     1      -1.179  -0.566   2.381  0.00  0.00    +0.080 A 
ATOM      3  C   UNL     1      -1.746  -0.901   3.581  0.00  0.00    +0.090 A 
ATOM      4  S   UNL     1      -3.311  -1.599   3.083  0.00  0.00    -0.062 S 
ATOM      5  C   UNL     1      -3.130  -1.403   1.317  0.00  0.00    +0.117 A 
ENDROOT
BRANCH   3   6
ATOM      6  N   UNL     1      -1.232  -0.740   4.864  0.00  0.00    -0.292 N 
ATOM      7  C   UNL     1       0.007  -1.114   5.292  0.00  0.00    +0.205 A 
ATOM      8  N   UNL     1       0.155  -0.813   6.549  0.00  0.00    -0.235 NA
ATOM      9  C   UNL     1      -0.977  -0.224   7.016  0.00  0.00    +0.090 A 
ATOM     10  C   UNL     1      -1.882  -0.164   5.941  0.00  0.00    +0.074 A 
ATOM     11  C   UNL     1      -3.139   0.398   6.119  0.00  0.00    +0.029 A 
ATOM     12  C   UNL     1      -3.501   0.901   7.348  0.00  0.00    +0.011 A 
ATOM     13  C   UNL     1      -2.608   0.849   8.423  0.00  0.00    -0.014 A 
ATOM     14  C   UNL     1      -1.351   0.283   8.261  0.00  0.00    +0.038 A 
BRANCH  13  15
ATOM     15  C   UNL     1      -3.009   1.393   9.743  0.00  0.00    +0.000 A 
ATOM     16  C   UNL     1      -4.276   1.954   9.925  0.00  0.00    +0.011 A 
ATOM     17  C   UNL     1      -4.601   2.448  11.177  0.00  0.00    +0.020 A 
ATOM     18  C   UNL     1      -3.671   2.372  12.198  0.00  0.00    +0.111 A 
ATOM     19  N   UNL     1      -2.482   1.837  11.995  0.00  0.00    -0.263 NA
ATOM     20  C   UNL     1      -2.130   1.349  10.824  0.00  0.00    +0.119 A 
ENDBRANCH  13  15
ENDBRANCH   3   6
BRANCH   5  21
ATOM     21  C   UNL     1      -4.030  -1.752   0.286  0.00  0.00    +0.252 C 
ATOM     22  O   UNL     1      -3.734  -1.544  -0.878  0.00  0.00    -0.270 OA
ATOM     23  N   UNL     1      -5.216  -2.317   0.588  0.00  0.00    -0.325 N 
ATOM     24  H   UNL     1      -5.451  -2.483   1.515  0.00  0.00    +0.145 HD
ATOM     25  H   UNL     1      -5.834  -2.556  -0.120  0.00  0.00    +0.145 HD
ENDBRANCH   5  21
BRANCH   1  26
ATOM     26  O   UNL     1      -1.339  -0.499   0.012  0.00  0.00    -0.483 OA
BRANCH  26  28
ATOM     27  C   UNL     1      -0.005   1.502   0.256  0.00  0.00    +0.057 C 
ATOM     28  C   UNL     1       0.003  -0.006   0.001  0.00  0.00    +0.201 C 
BRANCH  28  29
ATOM     29  C   UNL     1       0.630  -0.286  -1.341  0.00  0.00    +0.004 A 
ATOM     30  C   UNL     1      -0.169  -0.429  -2.460  0.00  0.00    +0.008 A 
ATOM     31  C   UNL     1       0.406  -0.685  -3.691  0.00  0.00    +0.000 A 
ATOM     32  C   UNL     1       1.779  -0.798  -3.802  0.00  0.00    +0.001 A 
ATOM     33  C   UNL     1       2.578  -0.654  -2.683  0.00  0.00    +0.013 A 
ATOM     34  C   UNL     1       2.003  -0.393  -1.453  0.00  0.00    +0.061 A 
BRANCH  34  35
ATOM     35  C   UNL     1       2.874  -0.231  -0.234  0.00  0.00    +0.418 C 
ATOM     36  F   UNL     1       4.217  -0.381  -0.596  0.00  0.00    -0.166 F 
ATOM     37  F   UNL     1       2.678   1.042   0.313  0.00  0.00    -0.166 F 
ATOM     38  F   UNL     1       2.535  -1.203   0.714  0.00  0.00    -0.166 F 
ENDBRANCH  34  35
ENDBRANCH  28  29
ENDBRANCH  26  28
ENDBRANCH   1  26
TORSDOF 7
