REMARK  Name = CHEMBL1209757
REMARK  8 active torsions:
REMARK  status: ('A' for Active; 'I' for Inactive)
REMARK    1  A    between atoms: C_1  and  C_2
REMARK    2  A    between atoms: C_2  and  C_4
REMARK    3  A    between atoms: C_2  and  O_14
REMARK    4  A    between atoms: C_9  and  C_10
REMARK    5  A    between atoms: O_14  and  C_15
REMARK    6  A    between atoms: C_17  and  N_23
REMARK    7  A    between atoms: C_19  and  C_20
REMARK    8  A    between atoms: C_30  and  C_32
REMARK                            x       y       z     vdW  Elec       q    Type
REMARK                         _______ _______ _______ _____ _____    ______ ____
ROOT
ATOM      1  C   UNL     1      -0.106  -0.774  -2.243  0.00  0.00    +0.143 A 
ATOM      2  C   UNL     1      -1.460  -0.544  -2.221  0.00  0.00    +0.080 A 
ATOM      3  C   UNL     1      -2.210  -0.870  -3.319  0.00  0.00    +0.090 A 
ATOM      4  S   UNL     1      -0.985  -1.527  -4.439  0.00  0.00    -0.062 S 
ATOM      5  C   UNL     1       0.450  -1.329  -3.395  0.00  0.00    +0.117 A 
ENDROOT
BRANCH   3   6
ATOM      6  N   UNL     1      -3.580  -0.725  -3.513  0.00  0.00    -0.292 N 
ATOM      7  C   UNL     1      -4.565  -1.131  -2.661  0.00  0.00    +0.205 A 
ATOM      8  N   UNL     1      -5.732  -0.838  -3.155  0.00  0.00    -0.235 NA
ATOM      9  C   UNL     1      -5.580  -0.223  -4.357  0.00  0.00    +0.090 A 
ATOM     10  C   UNL     1      -4.198  -0.137  -4.602  0.00  0.00    +0.074 A 
ATOM     11  C   UNL     1      -3.732   0.456  -5.768  0.00  0.00    +0.029 A 
ATOM     12  C   UNL     1      -4.614   0.961  -6.681  0.00  0.00    +0.011 A 
ATOM     13  C   UNL     1      -5.992   0.886  -6.452  0.00  0.00    -0.009 A 
ATOM     14  C   UNL     1      -6.477   0.289  -5.294  0.00  0.00    +0.039 A 
BRANCH  13  15
ATOM     15  C   UNL     1      -6.936   1.436  -7.448  0.00  0.00    +0.019 A 
ATOM     16  C   UNL     1      -6.669   2.046  -8.645  0.00  0.00    +0.016 A 
ATOM     17  C   UNL     1      -7.725   2.483  -9.415  0.00  0.00    +0.008 A 
ATOM     18  C   UNL     1      -8.992   2.298  -8.967  0.00  0.00    +0.046 A 
ATOM     19  S   UNL     1      -8.721   1.472  -7.408  0.00  0.00    -0.097 S 
ENDBRANCH  13  15
ENDBRANCH   3   6
BRANCH   5  20
ATOM     20  C   UNL     1       1.798  -1.652  -3.666  0.00  0.00    +0.252 C 
ATOM     21  O   UNL     1       2.655  -1.446  -2.824  0.00  0.00    -0.270 OA
ATOM     22  N   UNL     1       2.138  -2.187  -4.855  0.00  0.00    -0.325 N 
ATOM     23  H   UNL     1       1.456  -2.350  -5.525  0.00  0.00    +0.145 HD
ATOM     24  H   UNL     1       3.063  -2.409  -5.041  0.00  0.00    +0.145 HD
ENDBRANCH   5  20
BRANCH   1  25
ATOM     25  O   UNL     1       0.671  -0.465  -1.174  0.00  0.00    -0.483 OA
BRANCH  25  27
ATOM     26  C   UNL     1      -0.238   1.501  -0.101  0.00  0.00    +0.057 C 
ATOM     27  C   UNL     1       0.002  -0.006   0.003  0.00  0.00    +0.201 C 
BRANCH  27  28
ATOM     28  C   UNL     1       0.856  -0.297   1.211  0.00  0.00    +0.004 A 
ATOM     29  C   UNL     1       2.226  -0.416   1.076  0.00  0.00    +0.008 A 
ATOM     30  C   UNL     1       3.009  -0.682   2.184  0.00  0.00    +0.000 A 
ATOM     31  C   UNL     1       2.421  -0.829   3.427  0.00  0.00    +0.001 A 
ATOM     32  C   UNL     1       1.050  -0.709   3.561  0.00  0.00    +0.013 A 
ATOM     33  C   UNL     1       0.268  -0.438   2.454  0.00  0.00    +0.061 A 
BRANCH  33  34
ATOM     34  C   UNL     1      -1.225  -0.302   2.602  0.00  0.00    +0.418 C 
ATOM     35  F   UNL     1      -1.580  -0.485   3.943  0.00  0.00    -0.166 F 
ATOM     36  F   UNL     1      -1.621   0.973   2.184  0.00  0.00    -0.166 F 
ATOM     37  F   UNL     1      -1.862  -1.268   1.815  0.00  0.00    -0.166 F 
ENDBRANCH  33  34
ENDBRANCH  27  28
ENDBRANCH  25  27
ENDBRANCH   1  25
TORSDOF 7
