REMARK  Name = CHEMBL493545
REMARK  10 active torsions:
REMARK  status: ('A' for Active; 'I' for Inactive)
REMARK    1  A    between atoms: C_1  and  C_2
REMARK    2  A    between atoms: C_2  and  C_4
REMARK    3  A    between atoms: C_2  and  O_11
REMARK    4  A    between atoms: O_11  and  C_12
REMARK    5  A    between atoms: C_14  and  N_20
REMARK    6  A    between atoms: C_16  and  C_17
REMARK    7  A    between atoms: C_26  and  O_29
REMARK    8  A    between atoms: O_29  and  C_30
REMARK    9  A    between atoms: C_30  and  C_31
REMARK   10  A    between atoms: N_34  and  C_37
REMARK                            x       y       z     vdW  Elec       q    Type
REMARK                         _______ _______ _______ _____ _____    ______ ____
ROOT
ATOM      1  C   UNL     1      -0.030  -0.600   2.302  0.00  0.00    +0.143 A 
ATOM      2  C   UNL     1      -1.386  -0.382   2.304  0.00  0.00    +0.080 A 
ATOM      3  C   UNL     1      -2.081  -0.515   3.476  0.00  0.00    +0.090 A 
ATOM      4  S   UNL     1      -0.799  -0.963   4.634  0.00  0.00    -0.062 S 
ATOM      5  C   UNL     1       0.583  -0.954   3.503  0.00  0.00    +0.117 A 
ENDROOT
BRANCH   3   6
ATOM      6  N   UNL     1      -3.443  -0.345   3.706  0.00  0.00    -0.292 N 
ATOM      7  C   UNL     1      -4.202   0.724   3.323  0.00  0.00    +0.205 A 
ATOM      8  N   UNL     1      -5.434   0.554   3.702  0.00  0.00    -0.235 NA
ATOM      9  C   UNL     1      -5.555  -0.632   4.353  0.00  0.00    +0.090 A 
ATOM     10  C   UNL     1      -4.282  -1.229   4.360  0.00  0.00    +0.077 A 
ATOM     11  C   UNL     1      -4.102  -2.466   4.959  0.00  0.00    +0.074 A 
ATOM     12  C   UNL     1      -5.179  -3.108   5.544  0.00  0.00    +0.123 A 
ATOM     13  C   UNL     1      -6.439  -2.517   5.532  0.00  0.00    +0.048 A 
ATOM     14  C   UNL     1      -6.629  -1.294   4.953  0.00  0.00    +0.033 A 
BRANCH  12  15
ATOM     15  O   UNL     1      -5.007  -4.322   6.132  0.00  0.00    -0.492 OA
BRANCH  15  16
ATOM     16  C   UNL     1      -6.160  -4.929   6.716  0.00  0.00    +0.232 C 
BRANCH  16  17
ATOM     17  C   UNL     1      -5.773  -6.279   7.325  0.00  0.00    +0.023 C 
ATOM     18  C   UNL     1      -5.342  -7.237   6.211  0.00  0.00    -0.012 C 
ATOM     19  C   UNL     1      -5.033  -8.608   6.817  0.00  0.00    -0.079 C 
ATOM     20  N   UNL     1      -6.230  -9.135   7.482  0.00  0.00    +0.378 N 
ATOM     21  C   UNL     1      -6.607  -8.258   8.597  0.00  0.00    -0.079 C 
ATOM     22  C   UNL     1      -6.978  -6.874   8.059  0.00  0.00    -0.012 C 
ATOM     23  C   UNL     1      -5.951 -10.483   7.994  0.00  0.00    -0.096 C 
ATOM     24  H   UNL     1      -6.990  -9.180   6.819  0.00  0.00    -0.082 HD
ENDBRANCH  16  17
ENDBRANCH  15  16
ENDBRANCH  12  15
ENDBRANCH   3   6
BRANCH   5  25
ATOM     25  C   UNL     1       1.944  -1.232   3.759  0.00  0.00    +0.252 C 
ATOM     26  O   UNL     1       2.758  -1.175   2.854  0.00  0.00    -0.270 OA
ATOM     27  N   UNL     1       2.342  -1.561   5.004  0.00  0.00    -0.325 N 
ATOM     28  H   UNL     1       1.694  -1.607   5.724  0.00  0.00    +0.145 HD
ATOM     29  H   UNL     1       3.277  -1.752   5.179  0.00  0.00    +0.145 HD
ENDBRANCH   5  25
BRANCH   1  30
ATOM     30  O   UNL     1       0.693  -0.477   1.160  0.00  0.00    -0.483 OA
BRANCH  30  32
ATOM     31  C   UNL     1      -0.296   1.264  -0.193  0.00  0.00    +0.057 C 
ATOM     32  C   UNL     1      -0.034  -0.236  -0.046  0.00  0.00    +0.202 C 
BRANCH  32  33
ATOM     33  C   UNL     1       0.770  -0.723  -1.224  0.00  0.00    +0.011 A 
ATOM     34  C   UNL     1       2.146  -0.815  -1.131  0.00  0.00    +0.008 A 
ATOM     35  C   UNL     1       2.884  -1.261  -2.211  0.00  0.00    +0.000 A 
ATOM     36  C   UNL     1       2.247  -1.617  -3.385  0.00  0.00    +0.001 A 
ATOM     37  C   UNL     1       0.871  -1.526  -3.479  0.00  0.00    +0.020 A 
ATOM     38  C   UNL     1       0.131  -1.084  -2.397  0.00  0.00    +0.048 A 
ATOM     39 CL   UNL     1      -1.598  -0.976  -2.512  0.00  0.00    -0.083 Cl
ENDBRANCH  32  33
ENDBRANCH  30  32
ENDBRANCH   1  30
TORSDOF 8
