REMARK  Name = CHEMBL559891
REMARK  6 active torsions:
REMARK  status: ('A' for Active; 'I' for Inactive)
REMARK    1  A    between atoms: C_4  and  C_26
REMARK    2  A    between atoms: C_5  and  C_7
REMARK    3  A    between atoms: C_7  and  O_8
REMARK    4  A    between atoms: O_8  and  C_9
REMARK    5  A    between atoms: C_11  and  C_17
REMARK    6  A    between atoms: C_13  and  C_14
REMARK                            x       y       z     vdW  Elec       q    Type
REMARK                         _______ _______ _______ _____ _____    ______ ____
ROOT
ATOM      1  C   UNL     1      -0.271  -4.029  -0.015  0.00  0.00    +0.141 A 
ATOM      2  C   UNL     1       0.815  -4.864  -0.025  0.00  0.00    +0.062 A 
ATOM      3  C   UNL     1       0.603  -6.234  -0.031  0.00  0.00    +0.027 A 
ATOM      4  S   UNL     1      -1.179  -6.344  -0.022  0.00  0.00    -0.080 S 
ATOM      5  C   UNL     1      -1.545  -4.597  -0.005  0.00  0.00    +0.116 A 
ENDROOT
BRANCH   3   6
ATOM      6  C   UNL     1       1.595  -7.322  -0.043  0.00  0.00    +0.034 A 
ATOM      7  C   UNL     1       2.690  -7.443  -0.910  0.00  0.00    +0.144 A 
ATOM      8  N   UNL     1       3.343  -8.540  -0.617  0.00  0.00    -0.174 NA
ATOM      9  N   UNL     1       2.710  -9.188   0.451  0.00  0.00    -0.239 N 
ATOM     10  C   UNL     1       1.627  -8.433   0.816  0.00  0.00    +0.075 A 
ATOM     11  C   UNL     1       0.806  -8.846   1.875  0.00  0.00    +0.028 A 
ATOM     12  C   UNL     1       1.100 -10.002   2.535  0.00  0.00    +0.004 A 
ATOM     13  C   UNL     1       2.218 -10.755   2.145  0.00  0.00    +0.020 A 
ATOM     14  C   UNL     1       2.993 -10.345   1.117  0.00  0.00    +0.113 A 
ENDBRANCH   3   6
BRANCH   5  15
ATOM     15  C   UNL     1      -2.803  -3.954   0.013  0.00  0.00    +0.252 C 
ATOM     16  O   UNL     1      -2.865  -2.738   0.021  0.00  0.00    -0.270 OA
ATOM     17  N   UNL     1      -3.934  -4.687   0.020  0.00  0.00    -0.325 N 
ATOM     18  H   UNL     1      -3.884  -5.656   0.014  0.00  0.00    +0.145 HD
ATOM     19  H   UNL     1      -4.797  -4.246   0.032  0.00  0.00    +0.145 HD
ENDBRANCH   5  15
BRANCH   1  20
ATOM     20  O   UNL     1      -0.112  -2.680  -0.009  0.00  0.00    -0.486 OA
BRANCH  20  21
ATOM     21  C   UNL     1       1.229  -2.186  -0.020  0.00  0.00    +0.265 C 
BRANCH  21  26
ATOM     22  C   UNL     1      -0.017   1.378   0.010  0.00  0.00    +0.000 A 
ATOM     23  C   UNL     1       1.171   2.085   0.002  0.00  0.00    +0.001 A 
ATOM     24  C   UNL     1       2.377   1.411  -0.013  0.00  0.00    +0.013 A 
ATOM     25  C   UNL     1       2.396   0.028  -0.020  0.00  0.00    +0.061 A 
ATOM     26  C   UNL     1       1.209  -0.679  -0.012  0.00  0.00    +0.001 A 
ATOM     27  C   UNL     1       0.002  -0.004   0.002  0.00  0.00    +0.007 A 
BRANCH  25  28
ATOM     28  C   UNL     1       3.711  -0.707  -0.038  0.00  0.00    +0.418 C 
ATOM     29  F   UNL     1       4.762   0.216  -0.044  0.00  0.00    -0.166 F 
ATOM     30  F   UNL     1       3.808  -1.516   1.100  0.00  0.00    -0.166 F 
ATOM     31  F   UNL     1       3.784  -1.505  -1.185  0.00  0.00    -0.166 F 
ENDBRANCH  25  28
ENDBRANCH  21  26
ENDBRANCH  20  21
ENDBRANCH   1  20
TORSDOF 6
