REMARK  Name = CHEMBL516110
REMARK  5 active torsions:
REMARK  status: ('A' for Active; 'I' for Inactive)
REMARK    1  A    between atoms: C_1  and  N_2
REMARK    2  A    between atoms: N_5  and  C_8
REMARK    3  A    between atoms: C_11  and  C_14
REMARK    4  A    between atoms: C_26  and  C_28
REMARK    5  A    between atoms: C_28  and  C_29
REMARK                            x       y       z     vdW  Elec       q    Type
REMARK                         _______ _______ _______ _____ _____    ______ ____
ROOT
ATOM      1  C   UNL     1      -2.371  -6.727   4.288  0.00  0.00    +0.249 C 
ATOM      2  O   UNL     1      -3.515  -7.124   4.184  0.00  0.00    -0.270 OA
ATOM      3  N   UNL     1      -1.547  -7.277   5.202  0.00  0.00    -0.265 N 
ATOM      4  C   UNL     1      -2.009  -8.307   6.032  0.00  0.00    +0.152 A 
ATOM      5  C   UNL     1      -1.263  -8.964   7.027  0.00  0.00    +0.034 A 
ATOM      6  C   UNL     1      -2.062  -9.888   7.601  0.00  0.00    +0.060 A 
ATOM      7  N   UNL     1      -3.270  -9.824   6.997  0.00  0.00    -0.278 N 
ATOM      8  H   UNL     1      -4.041 -10.374   7.207  0.00  0.00    +0.189 HD
ATOM      9  N   UNL     1      -3.215  -8.822   6.021  0.00  0.00    -0.158 NA
ATOM     10  C   UNL     1      -1.293 -10.614   8.675  0.00  0.00    +0.163 C 
ATOM     11  N   UNL     1       0.060 -10.048   8.709  0.00  0.00    -0.291 N 
ATOM     12  C   UNL     1       0.097  -9.006   7.676  0.00  0.00    +0.148 C 
ATOM     13  C   UNL     1       1.068 -10.412   9.527  0.00  0.00    +0.221 C 
ATOM     14  O   UNL     1       2.143  -9.856   9.448  0.00  0.00    -0.275 OA
ATOM     15  H   UNL     1      -0.634  -6.960   5.284  0.00  0.00    +0.157 HD
ENDROOT
BRANCH   1  19
ATOM     16  C   UNL     1      -0.970  -3.605   1.773  0.00  0.00    +0.030 A 
ATOM     17  C   UNL     1      -2.280  -4.059   1.652  0.00  0.00    +0.024 A 
ATOM     18  C   UNL     1      -2.737  -5.071   2.466  0.00  0.00    +0.015 A 
ATOM     19  C   UNL     1      -1.884  -5.643   3.414  0.00  0.00    +0.037 A 
ATOM     20  C   UNL     1      -0.568  -5.185   3.533  0.00  0.00    +0.015 A 
ATOM     21  C   UNL     1      -0.116  -4.176   2.712  0.00  0.00    +0.024 A 
BRANCH  16  26
ATOM     22  C   UNL     1      -0.039   1.464  -0.002  0.00  0.00    -0.096 C 
ATOM     23  N   UNL     1      -0.008  -0.004  -0.004  0.00  0.00    +0.380 N 
ATOM     24  C   UNL     1      -1.383  -0.521  -0.015  0.00  0.00    -0.060 C 
ATOM     25  C   UNL     1      -1.352  -2.048  -0.132  0.00  0.00    +0.086 C 
ATOM     26  N   UNL     1      -0.511  -2.583   0.950  0.00  0.00    -0.333 N 
ATOM     27  C   UNL     1       0.828  -2.004   1.137  0.00  0.00    +0.086 C 
ATOM     28  C   UNL     1       0.695  -0.479   1.195  0.00  0.00    -0.060 C 
ATOM     29  H   UNL     1       0.477  -0.328  -0.827  0.00  0.00    -0.082 HD
ENDBRANCH  16  26
ENDBRANCH   1  19
BRANCH  13  30
ATOM     30  C   UNL     1       0.860 -11.509  10.538  0.00  0.00    +0.138 C 
BRANCH  30  31
ATOM     31  C   UNL     1       2.131 -11.721  11.320  0.00  0.00    -0.001 A 
ATOM     32  C   UNL     1       2.532 -11.132  12.473  0.00  0.00    +0.011 A 
ATOM     33  C   UNL     1       3.752 -11.485  13.016  0.00  0.00    +0.008 A 
ATOM     34  C   UNL     1       4.512 -12.410  12.380  0.00  0.00    +0.045 A 
ATOM     35  S   UNL     1       3.495 -12.818  10.971  0.00  0.00    -0.101 S 
ENDBRANCH  30  31
ENDBRANCH  13  30
TORSDOF 4
