REMARK  Name = CHEMBL1209603
REMARK  8 active torsions:
REMARK  status: ('A' for Active; 'I' for Inactive)
REMARK    1  A    between atoms: C_1  and  C_2
REMARK    2  A    between atoms: C_2  and  C_4
REMARK    3  A    between atoms: C_2  and  O_14
REMARK    4  A    between atoms: C_9  and  C_10
REMARK    5  A    between atoms: O_14  and  C_15
REMARK    6  A    between atoms: C_17  and  N_23
REMARK    7  A    between atoms: C_19  and  C_20
REMARK    8  A    between atoms: C_30  and  C_32
REMARK                            x       y       z     vdW  Elec       q    Type
REMARK                         _______ _______ _______ _____ _____    ______ ____
ROOT
ATOM      1  C   UNL     1      -0.106  -0.774  -2.243  0.00  0.00    +0.143 A 
ATOM      2  C   UNL     1      -1.460  -0.544  -2.221  0.00  0.00    +0.080 A 
ATOM      3  C   UNL     1      -2.210  -0.870  -3.319  0.00  0.00    +0.090 A 
ATOM      4  S   UNL     1      -0.985  -1.527  -4.439  0.00  0.00    -0.062 S 
ATOM      5  C   UNL     1       0.450  -1.329  -3.395  0.00  0.00    +0.117 A 
ENDROOT
BRANCH   3   6
ATOM      6  N   UNL     1      -3.580  -0.726  -3.512  0.00  0.00    -0.292 N 
ATOM      7  C   UNL     1      -4.565  -1.132  -2.661  0.00  0.00    +0.205 A 
ATOM      8  N   UNL     1      -5.732  -0.840  -3.155  0.00  0.00    -0.235 NA
ATOM      9  C   UNL     1      -5.580  -0.225  -4.357  0.00  0.00    +0.090 A 
ATOM     10  C   UNL     1      -4.198  -0.137  -4.602  0.00  0.00    +0.074 A 
ATOM     11  C   UNL     1      -3.732   0.456  -5.767  0.00  0.00    +0.029 A 
ATOM     12  C   UNL     1      -4.624   0.963  -6.685  0.00  0.00    +0.010 A 
ATOM     13  C   UNL     1      -6.000   0.884  -6.451  0.00  0.00    -0.016 A 
ATOM     14  C   UNL     1      -6.479   0.286  -5.294  0.00  0.00    +0.038 A 
BRANCH  13  15
ATOM     15  C   UNL     1      -6.952   1.434  -7.447  0.00  0.00    -0.018 A 
ATOM     16  C   UNL     1      -8.324   1.363  -7.216  0.00  0.00    +0.008 A 
ATOM     17  C   UNL     1      -9.205   1.877  -8.146  0.00  0.00    +0.001 A 
ATOM     18  C   UNL     1      -8.728   2.461  -9.306  0.00  0.00    +0.000 A 
ATOM     19  C   UNL     1      -7.367   2.533  -9.540  0.00  0.00    +0.001 A 
ATOM     20  C   UNL     1      -6.477   2.029  -8.614  0.00  0.00    +0.008 A 
ENDBRANCH  13  15
ENDBRANCH   3   6
BRANCH   5  21
ATOM     21  C   UNL     1       1.798  -1.651  -3.666  0.00  0.00    +0.252 C 
ATOM     22  O   UNL     1       2.655  -1.446  -2.824  0.00  0.00    -0.270 OA
ATOM     23  N   UNL     1       2.138  -2.187  -4.855  0.00  0.00    -0.325 N 
ATOM     24  H   UNL     1       1.456  -2.350  -5.525  0.00  0.00    +0.145 HD
ATOM     25  H   UNL     1       3.064  -2.408  -5.041  0.00  0.00    +0.145 HD
ENDBRANCH   5  21
BRANCH   1  26
ATOM     26  O   UNL     1       0.671  -0.465  -1.174  0.00  0.00    -0.483 OA
BRANCH  26  28
ATOM     27  C   UNL     1      -0.238   1.501  -0.101  0.00  0.00    +0.057 C 
ATOM     28  C   UNL     1       0.002  -0.006   0.003  0.00  0.00    +0.201 C 
BRANCH  28  29
ATOM     29  C   UNL     1       0.856  -0.297   1.211  0.00  0.00    +0.004 A 
ATOM     30  C   UNL     1       2.226  -0.416   1.076  0.00  0.00    +0.008 A 
ATOM     31  C   UNL     1       3.009  -0.682   2.184  0.00  0.00    +0.000 A 
ATOM     32  C   UNL     1       2.421  -0.829   3.427  0.00  0.00    +0.001 A 
ATOM     33  C   UNL     1       1.050  -0.709   3.561  0.00  0.00    +0.013 A 
ATOM     34  C   UNL     1       0.268  -0.438   2.454  0.00  0.00    +0.061 A 
BRANCH  34  35
ATOM     35  C   UNL     1      -1.225  -0.302   2.602  0.00  0.00    +0.418 C 
ATOM     36  F   UNL     1      -1.580  -0.485   3.943  0.00  0.00    -0.166 F 
ATOM     37  F   UNL     1      -1.621   0.973   2.184  0.00  0.00    -0.166 F 
ATOM     38  F   UNL     1      -1.862  -1.268   1.815  0.00  0.00    -0.166 F 
ENDBRANCH  34  35
ENDBRANCH  28  29
ENDBRANCH  26  28
ENDBRANCH   1  26
TORSDOF 7
