REMARK  Name = CHEMBL1209016
REMARK  11 active torsions:
REMARK  status: ('A' for Active; 'I' for Inactive)
REMARK    1  A    between atoms: C_1  and  C_2
REMARK    2  A    between atoms: C_2  and  C_4
REMARK    3  A    between atoms: C_2  and  O_11
REMARK    4  A    between atoms: O_11  and  C_12
REMARK    5  A    between atoms: C_14  and  N_20
REMARK    6  A    between atoms: C_16  and  C_17
REMARK    7  A    between atoms: C_27  and  C_29
REMARK    8  A    between atoms: N_32  and  C_34
REMARK    9  A    between atoms: C_34  and  C_35
REMARK   10  A    between atoms: C_35  and  N_36
REMARK   11  A    between atoms: N_39  and  C_42
REMARK                            x       y       z     vdW  Elec       q    Type
REMARK                         _______ _______ _______ _____ _____    ______ ____
ROOT
ATOM      1  N   UNL     1      -1.232  -0.739   4.864  0.00  0.00    -0.292 N 
ATOM      2  C   UNL     1       0.007  -1.113   5.293  0.00  0.00    +0.205 A 
ATOM      3  N   UNL     1       0.155  -0.811   6.549  0.00  0.00    -0.235 NA
ATOM      4  C   UNL     1      -0.978  -0.223   7.016  0.00  0.00    +0.090 A 
ATOM      5  C   UNL     1      -1.882  -0.163   5.942  0.00  0.00    +0.074 A 
ATOM      6  C   UNL     1      -3.139   0.399   6.119  0.00  0.00    +0.029 A 
ATOM      7  C   UNL     1      -3.501   0.902   7.349  0.00  0.00    +0.011 A 
ATOM      8  C   UNL     1      -2.608   0.850   8.423  0.00  0.00    -0.013 A 
ATOM      9  C   UNL     1      -1.352   0.284   8.261  0.00  0.00    +0.038 A 
ENDROOT
BRANCH   1  12
ATOM     10  C   UNL     1      -1.868  -0.817   1.221  0.00  0.00    +0.143 A 
ATOM     11  C   UNL     1      -1.179  -0.566   2.381  0.00  0.00    +0.080 A 
ATOM     12  C   UNL     1      -1.746  -0.901   3.581  0.00  0.00    +0.090 A 
ATOM     13  S   UNL     1      -3.311  -1.599   3.083  0.00  0.00    -0.062 S 
ATOM     14  C   UNL     1      -3.130  -1.403   1.317  0.00  0.00    +0.117 A 
BRANCH  14  15
ATOM     15  C   UNL     1      -4.029  -1.753   0.286  0.00  0.00    +0.252 C 
ATOM     16  O   UNL     1      -3.733  -1.544  -0.878  0.00  0.00    -0.270 OA
ATOM     17  N   UNL     1      -5.215  -2.317   0.588  0.00  0.00    -0.325 N 
ATOM     18  H   UNL     1      -5.451  -2.483   1.515  0.00  0.00    +0.145 HD
ATOM     19  H   UNL     1      -5.833  -2.557  -0.120  0.00  0.00    +0.145 HD
ENDBRANCH  14  15
BRANCH  10  20
ATOM     20  O   UNL     1      -1.339  -0.499   0.012  0.00  0.00    -0.483 OA
BRANCH  20  22
ATOM     21  C   UNL     1      -0.005   1.502   0.256  0.00  0.00    +0.057 C 
ATOM     22  C   UNL     1       0.003  -0.006   0.001  0.00  0.00    +0.202 C 
BRANCH  22  23
ATOM     23  C   UNL     1       0.630  -0.286  -1.340  0.00  0.00    +0.011 A 
ATOM     24  C   UNL     1      -0.168  -0.430  -2.460  0.00  0.00    +0.008 A 
ATOM     25  C   UNL     1       0.406  -0.686  -3.691  0.00  0.00    +0.000 A 
ATOM     26  C   UNL     1       1.780  -0.799  -3.803  0.00  0.00    +0.001 A 
ATOM     27  C   UNL     1       2.579  -0.656  -2.684  0.00  0.00    +0.020 A 
ATOM     28  C   UNL     1       2.004  -0.394  -1.453  0.00  0.00    +0.048 A 
ATOM     29 CL   UNL     1       3.008  -0.207  -0.049  0.00  0.00    -0.083 Cl
ENDBRANCH  22  23
ENDBRANCH  20  22
ENDBRANCH  10  20
ENDBRANCH   1  12
BRANCH   8  30
ATOM     30  C   UNL     1      -3.009   1.395   9.745  0.00  0.00    +0.020 A 
ATOM     31  C   UNL     1      -2.218   1.418  10.910  0.00  0.00    +0.142 A 
ATOM     32  N   UNL     1      -2.917   1.976  11.864  0.00  0.00    -0.179 NA
ATOM     33  N   UNL     1      -4.170   2.328  11.349  0.00  0.00    -0.270 N 
ATOM     34  C   UNL     1      -4.208   1.970  10.049  0.00  0.00    +0.116 A 
BRANCH  33  35
ATOM     35  C   UNL     1      -5.253   2.977  12.093  0.00  0.00    +0.159 C 
BRANCH  35  36
ATOM     36  C   UNL     1      -5.580   2.154  13.340  0.00  0.00    +0.107 C 
BRANCH  36  37
ATOM     37  N   UNL     1      -6.665   2.805  14.086  0.00  0.00    -0.304 NA
ATOM     38  C   UNL     1      -6.227   4.097  14.632  0.00  0.00    +0.066 C 
ATOM     39  C   UNL     1      -7.400   4.769  15.349  0.00  0.00    -0.064 C 
ATOM     40  N   UNL     1      -7.877   3.897  16.431  0.00  0.00    +0.379 N 
ATOM     41  C   UNL     1      -8.335   2.620  15.867  0.00  0.00    -0.064 C 
ATOM     42  C   UNL     1      -7.169   1.931  15.155  0.00  0.00    +0.066 C 
ATOM     43  C   UNL     1      -8.992   4.551  17.130  0.00  0.00    -0.096 C 
ATOM     44  H   UNL     1      -7.125   3.728  17.082  0.00  0.00    -0.082 HD
ENDBRANCH  36  37
ENDBRANCH  35  36
ENDBRANCH  33  35
ENDBRANCH   8  30
TORSDOF 9
