REMARK  Name = CHEMBL475881
REMARK  16 active torsions:
REMARK  status: ('A' for Active; 'I' for Inactive)
REMARK    1  A    between atoms: C_1  and  C_2
REMARK    2  A    between atoms: C_2  and  N_3
REMARK    3  A    between atoms: C_7  and  N_8
REMARK    4  A    between atoms: N_8  and  C_9
REMARK    5  A    between atoms: C_15  and  C_19
REMARK    6  A    between atoms: N_21  and  C_22
REMARK    7  A    between atoms: C_22  and  C_23
REMARK    8  A    between atoms: C_23  and  N_24
REMARK    9  A    between atoms: N_24  and  C_25
REMARK   10  A    between atoms: N_24  and  C_27
REMARK   11  A    between atoms: C_25  and  C_26
REMARK   12  A    between atoms: C_27  and  C_28
REMARK   13  A    between atoms: C_31  and  C_32
REMARK   14  A    between atoms: C_31  and  C_34
REMARK   15  A    between atoms: N_36  and  C_37
REMARK   16  A    between atoms: C_37  and  C_38
REMARK                            x       y       z     vdW  Elec       q    Type
REMARK                         _______ _______ _______ _____ _____    ______ ____
ROOT
ATOM      1  N   UNL     1       2.019  -0.683  -4.199  0.00  0.00    -0.319 N 
ATOM      2  H   UNL     1       2.976  -0.819  -4.117  0.00  0.00    +0.152 HD
ENDROOT
BRANCH   1   3
ATOM      3  C   UNL     1       1.352  -1.084  -5.361  0.00  0.00    +0.032 A 
ATOM      4  C   UNL     1      -0.022  -0.884  -5.479  0.00  0.00    +0.025 A 
ATOM      5  C   UNL     1      -0.691  -1.273  -6.617  0.00  0.00    +0.028 A 
ATOM      6  C   UNL     1       0.004  -1.872  -7.663  0.00  0.00    +0.047 A 
ATOM      7  C   UNL     1       1.388  -2.074  -7.547  0.00  0.00    +0.014 A 
ATOM      8  C   UNL     1       2.060  -1.673  -6.395  0.00  0.00    +0.034 A 
ATOM      9  C   UNL     1       1.810  -2.718  -8.805  0.00  0.00    +0.062 A 
ATOM     10  C   UNL     1       0.685  -2.854  -9.565  0.00  0.00    +0.096 A 
ATOM     11  N   UNL     1      -0.383  -2.357  -8.897  0.00  0.00    -0.360 N 
ATOM     12  H   UNL     1      -1.291  -2.343  -9.238  0.00  0.00    +0.165 HD
BRANCH   9  13
ATOM     13  C   UNL     1       3.172  -3.132  -9.167  0.00  0.00    +0.246 C 
ATOM     14  O   UNL     1       4.090  -2.950  -8.390  0.00  0.00    -0.270 OA
ATOM     15  N   UNL     1       3.404  -3.712 -10.361  0.00  0.00    -0.313 N 
ATOM     16  H   UNL     1       2.672  -3.857 -10.981  0.00  0.00    +0.149 HD
BRANCH  15  17
ATOM     17  C   UNL     1       4.763  -4.125 -10.723  0.00  0.00    +0.086 C 
BRANCH  17  18
ATOM     18  C   UNL     1       4.751  -4.752 -12.118  0.00  0.00    -0.060 C 
BRANCH  18  19
ATOM     19  N   UNL     1       6.129  -5.044 -12.536  0.00  0.00    +0.380 N 
ATOM     20  H   UNL     1       6.684  -4.204 -12.475  0.00  0.00    -0.082 HD
BRANCH  19  21
ATOM     21  C   UNL     1       6.699  -6.072 -11.655  0.00  0.00    -0.082 C 
ATOM     22  C   UNL     1       8.172  -6.287 -12.009  0.00  0.00    -0.017 C 
ENDBRANCH  19  21
BRANCH  19  23
ATOM     23  C   UNL     1       6.128  -5.532 -13.921  0.00  0.00    -0.082 C 
ATOM     24  C   UNL     1       5.671  -4.410 -14.856  0.00  0.00    -0.017 C 
ENDBRANCH  19  23
ENDBRANCH  18  19
ENDBRANCH  17  18
ENDBRANCH  15  17
ENDBRANCH   9  13
ENDBRANCH   1   3
BRANCH   1  29
ATOM     25  N   UNL     1       2.331   1.172   0.074  0.00  0.00    -0.301 N 
ATOM     26  C   UNL     1       1.447   0.906  -0.876  0.00  0.00    +0.267 A 
ATOM     27  O   UNL     1       0.264   1.172  -0.754  0.00  0.00    -0.266 OA
ATOM     28  C   UNL     1       1.968   0.288  -2.048  0.00  0.00    +0.092 A 
ATOM     29  C   UNL     1       1.321  -0.101  -3.176  0.00  0.00    +0.092 C 
ATOM     30  S   UNL     1       3.700   0.162  -1.637  0.00  0.00    -0.063 S 
ATOM     31  C   UNL     1       3.650   0.861  -0.109  0.00  0.00    +0.106 A 
ATOM     32  C   UNL     1       4.714   1.073   0.775  0.00  0.00    +0.144 C 
BRANCH  32  33
ATOM     33  C   UNL     1       6.044   0.802   0.362  0.00  0.00    +0.257 C 
ATOM     34  O   UNL     1       6.259   0.384  -0.761  0.00  0.00    -0.269 OA
ATOM     35  N   UNL     1       7.069   1.006   1.214  0.00  0.00    -0.302 N 
ATOM     36  H   UNL     1       6.897   1.339   2.108  0.00  0.00    +0.149 HD
BRANCH  35  37
ATOM     37  C   UNL     1       8.442   0.726   0.787  0.00  0.00    +0.217 C 
BRANCH  37  38
ATOM     38  C   UNL     1       9.406   1.040   1.933  0.00  0.00    +0.405 C 
ATOM     39  F   UNL     1       9.089   0.245   3.040  0.00  0.00    -0.169 F 
ATOM     40  F   UNL     1      10.717   0.773   1.526  0.00  0.00    -0.169 F 
ATOM     41  F   UNL     1       9.292   2.391   2.281  0.00  0.00    -0.169 F 
ENDBRANCH  37  38
ENDBRANCH  35  37
ENDBRANCH  32  33
BRANCH  25  43
ATOM     42  C   UNL     1       1.649   0.734   2.381  0.00  0.00    +0.027 C 
ATOM     43  C   UNL     1       1.896   1.808   1.320  0.00  0.00    +0.122 C 
ENDBRANCH  25  43
BRANCH  32  44
ATOM     44  C   UNL     1       4.461   1.565   2.096  0.00  0.00    +0.107 C 
ATOM     45  N   UNL     1       4.260   1.954   3.144  0.00  0.00    -0.191 NA
ENDBRANCH  32  44
ENDBRANCH   1  29
TORSDOF 13
