REMARK  Name = CHEMBL476782
REMARK  14 active torsions:
REMARK  status: ('A' for Active; 'I' for Inactive)
REMARK    1  A    between atoms: C_1  and  C_2
REMARK    2  A    between atoms: C_2  and  N_3
REMARK    3  A    between atoms: C_7  and  N_8
REMARK    4  A    between atoms: N_8  and  C_9
REMARK    5  A    between atoms: C_13  and  N_15
REMARK    6  A    between atoms: C_16  and  C_18
REMARK    7  A    between atoms: C_18  and  C_19
REMARK    8  A    between atoms: C_18  and  C_20
REMARK    9  A    between atoms: C_18  and  C_21
REMARK   10  A    between atoms: C_24  and  C_25
REMARK   11  A    between atoms: C_24  and  C_27
REMARK   12  A    between atoms: N_29  and  C_30
REMARK   13  A    between atoms: C_30  and  C_35
REMARK   14  A    between atoms: C_35  and  O_36
REMARK                            x       y       z     vdW  Elec       q    Type
REMARK                         _______ _______ _______ _____ _____    ______ ____
ROOT
ATOM      1  N   UNL     1      -3.311   0.459   0.100  0.00  0.00    -0.301 N 
ATOM      2  C   UNL     1      -4.230   0.309   1.042  0.00  0.00    +0.267 A 
ATOM      3  O   UNL     1      -4.038   0.651   2.196  0.00  0.00    -0.266 OA
ATOM      4  C   UNL     1      -5.458  -0.276   0.618  0.00  0.00    +0.092 A 
ATOM      5  C   UNL     1      -6.573  -0.554   1.341  0.00  0.00    +0.092 C 
ATOM      6  S   UNL     1      -5.137  -0.546  -1.116  0.00  0.00    -0.063 S 
ATOM      7  C   UNL     1      -3.573   0.066  -1.183  0.00  0.00    +0.106 A 
ATOM      8  C   UNL     1      -2.730   0.152  -2.298  0.00  0.00    +0.144 C 
ENDROOT
BRANCH   8   9
ATOM      9  C   UNL     1      -3.210  -0.220  -3.580  0.00  0.00    +0.257 C 
ATOM     10  O   UNL     1      -4.354  -0.614  -3.711  0.00  0.00    -0.269 OA
ATOM     11  N   UNL     1      -2.398  -0.137  -4.653  0.00  0.00    -0.303 N 
ATOM     12  H   UNL     1      -1.464   0.098  -4.538  0.00  0.00    +0.150 HD
BRANCH  11  13
ATOM     13  C   UNL     1      -2.927  -0.402  -5.993  0.00  0.00    +0.058 C 
ATOM     14  C   UNL     1      -1.889  -0.008  -7.073  0.00  0.00    +0.028 C 
ATOM     15  C   UNL     1      -2.075   1.525  -7.184  0.00  0.00    +0.002 C 
ATOM     16  C   UNL     1      -3.598   1.732  -7.042  0.00  0.00    +0.002 C 
ATOM     17  C   UNL     1      -4.139   0.507  -6.285  0.00  0.00    +0.028 C 
BRANCH  13  18
ATOM     18  C   UNL     1      -3.317  -1.875  -6.132  0.00  0.00    +0.181 C 
BRANCH  18  19
ATOM     19  O   UNL     1      -2.156  -2.692  -5.971  0.00  0.00    -0.393 OA
ATOM     20  H   UNL     1      -2.329  -3.640  -6.047  0.00  0.00    +0.209 HD
ENDBRANCH  18  19
ENDBRANCH  13  18
ENDBRANCH  11  13
ENDBRANCH   8   9
BRANCH   1  22
ATOM     21  C   UNL     1      -1.001  -0.062   0.711  0.00  0.00    +0.027 C 
ATOM     22  C   UNL     1      -2.013   1.051   0.432  0.00  0.00    +0.122 C 
ENDBRANCH   1  22
BRANCH   5  23
ATOM     23  N   UNL     1      -6.612  -0.263   2.677  0.00  0.00    -0.319 N 
ATOM     24  H   UNL     1      -5.843   0.142   3.108  0.00  0.00    +0.152 HD
BRANCH  23  25
ATOM     25  C   UNL     1      -7.760  -0.549   3.420  0.00  0.00    +0.033 A 
ATOM     26  C   UNL     1      -8.860  -1.134   2.804  0.00  0.00    +0.023 A 
ATOM     27  C   UNL     1      -9.995  -1.416   3.539  0.00  0.00    +0.004 A 
ATOM     28  C   UNL     1     -10.041  -1.118   4.887  0.00  0.00    +0.023 A 
ATOM     29  C   UNL     1      -8.945  -0.534   5.509  0.00  0.00    +0.035 A 
ATOM     30  C   UNL     1      -7.801  -0.254   4.776  0.00  0.00    +0.046 A 
BRANCH  29  31
ATOM     31  N   UNL     1      -8.993  -0.232   6.875  0.00  0.00    -0.285 N 
ATOM     32  C   UNL     1      -9.709  -1.009   7.712  0.00  0.00    +0.223 C 
ATOM     33  O   UNL     1     -10.245  -2.015   7.296  0.00  0.00    -0.275 OA
ATOM     34  H   UNL     1      -8.511   0.536   7.219  0.00  0.00    +0.155 HD
BRANCH  32  35
ATOM     35  C   UNL     1      -9.844  -0.627   9.163  0.00  0.00    +0.039 C 
ATOM     36  C   UNL     1     -10.700  -1.669   9.887  0.00  0.00    +0.020 C 
ATOM     37  C   UNL     1      -8.457  -0.571   9.807  0.00  0.00    +0.020 C 
ATOM     38  C   UNL     1     -10.512   0.745   9.270  0.00  0.00    +0.020 C 
ENDBRANCH  32  35
ENDBRANCH  29  31
ENDBRANCH  23  25
ENDBRANCH   5  23
BRANCH   8  39
ATOM     39  C   UNL     1      -1.384   0.616  -2.144  0.00  0.00    +0.107 C 
ATOM     40  N   UNL     1      -0.316   0.984  -2.022  0.00  0.00    -0.191 NA
ENDBRANCH   8  39
TORSDOF 10
