REMARK  Name = CHEMBL476145
REMARK  8 active torsions:
REMARK  status: ('A' for Active; 'I' for Inactive)
REMARK    1  A    between atoms: C_1  and  C_2
REMARK    2  A    between atoms: C_2  and  C_3
REMARK    3  A    between atoms: C_2  and  C_4
REMARK    4  A    between atoms: C_2  and  C_5
REMARK    5  A    between atoms: C_8  and  N_11
REMARK    6  A    between atoms: C_13  and  C_26
REMARK    7  A    between atoms: N_18  and  C_19
REMARK    8  A    between atoms: C_19  and  C_20
REMARK                            x       y       z     vdW  Elec       q    Type
REMARK                         _______ _______ _______ _____ _____    ______ ____
ROOT
ATOM      1  N   UNL     1       2.657  -1.834  -4.664  0.00  0.00    -0.299 N 
ATOM      2  C   UNL     1       3.941  -1.403  -4.943  0.00  0.00    +0.139 A 
ATOM      3  C   UNL     1       4.571  -1.761  -6.152  0.00  0.00    +0.081 A 
ATOM      4  C   UNL     1       5.867  -1.298  -6.383  0.00  0.00    +0.129 A 
ATOM      5  N   UNL     1       6.454  -0.546  -5.468  0.00  0.00    -0.222 NA
ATOM      6  C   UNL     1       5.832  -0.228  -4.341  0.00  0.00    +0.217 A 
ATOM      7  N   UNL     1       4.600  -0.639  -4.080  0.00  0.00    -0.199 NA
ATOM      8  N   UNL     1       6.486   0.561  -3.414  0.00  0.00    -0.309 N 
ATOM      9  H   UNL     1       2.213  -2.455  -5.263  0.00  0.00    +0.154 HD
ATOM     10  H   UNL     1       6.044   0.803  -2.585  0.00  0.00    +0.149 HD
ENDROOT
BRANCH   1  14
ATOM     11  C   UNL     1       0.697  -0.470  -1.252  0.00  0.00    -0.042 A 
ATOM     12  C   UNL     1       1.586   0.357  -1.914  0.00  0.00    +0.006 A 
ATOM     13  C   UNL     1       2.237  -0.092  -3.046  0.00  0.00    +0.023 A 
ATOM     14  C   UNL     1       2.000  -1.377  -3.518  0.00  0.00    +0.032 A 
ATOM     15  C   UNL     1       1.107  -2.205  -2.850  0.00  0.00    +0.023 A 
ATOM     16  C   UNL     1       0.463  -1.751  -1.716  0.00  0.00    +0.006 A 
BRANCH  11  18
ATOM     17  C   UNL     1       0.346  -0.872   1.170  0.00  0.00    +0.015 C 
ATOM     18  C   UNL     1      -0.013   0.024  -0.017  0.00  0.00    -0.013 C 
ATOM     19  C   UNL     1      -1.524  -0.016  -0.248  0.00  0.00    +0.015 C 
ATOM     20  C   UNL     1       0.421   1.461   0.279  0.00  0.00    +0.015 C 
ENDBRANCH  11  18
ENDBRANCH   1  14
BRANCH   3  21
ATOM     21  C   UNL     1       3.878  -2.605  -7.148  0.00  0.00    +0.211 A 
ATOM     22  N   UNL     1       4.360  -3.013  -8.324  0.00  0.00    -0.106 NA
ATOM     23  N   UNL     1       3.448  -3.727  -8.889  0.00  0.00    -0.021 NA
ATOM     24  N   UNL     1       2.417  -3.785  -8.122  0.00  0.00    -0.021 NA
ATOM     25  N   UNL     1       2.648  -3.114  -7.046  0.00  0.00    -0.106 NA
ENDBRANCH   3  21
BRANCH   8  26
ATOM     26  C   UNL     1       7.846   1.033  -3.684  0.00  0.00    +0.141 C 
BRANCH  26  27
ATOM     27  C   UNL     1       8.328   1.867  -2.525  0.00  0.00    -0.012 A 
ATOM     28  C   UNL     1       8.104   3.236  -2.504  0.00  0.00    +0.008 A 
ATOM     29  C   UNL     1       8.564   3.963  -1.417  0.00  0.00    +0.020 A 
ATOM     30  C   UNL     1       9.227   3.305  -0.398  0.00  0.00    +0.111 A 
ATOM     31  N   UNL     1       9.422   2.002  -0.452  0.00  0.00    -0.263 NA
ATOM     32  C   UNL     1       8.993   1.277  -1.467  0.00  0.00    +0.115 A 
ENDBRANCH  26  27
ENDBRANCH   8  26
TORSDOF 5
