REMARK  Name = CHEMBL475881
REMARK  16 active torsions:
REMARK  status: ('A' for Active; 'I' for Inactive)
REMARK    1  A    between atoms: C_1  and  C_2
REMARK    2  A    between atoms: C_2  and  N_3
REMARK    3  A    between atoms: C_7  and  N_8
REMARK    4  A    between atoms: N_8  and  C_9
REMARK    5  A    between atoms: C_15  and  C_19
REMARK    6  A    between atoms: N_21  and  C_22
REMARK    7  A    between atoms: C_22  and  C_23
REMARK    8  A    between atoms: C_23  and  N_24
REMARK    9  A    between atoms: N_24  and  C_25
REMARK   10  A    between atoms: N_24  and  C_27
REMARK   11  A    between atoms: C_25  and  C_26
REMARK   12  A    between atoms: C_27  and  C_28
REMARK   13  A    between atoms: C_31  and  C_32
REMARK   14  A    between atoms: C_31  and  C_34
REMARK   15  A    between atoms: N_36  and  C_37
REMARK   16  A    between atoms: C_37  and  C_38
REMARK                            x       y       z     vdW  Elec       q    Type
REMARK                         _______ _______ _______ _____ _____    ______ ____
ROOT
ATOM      1  N   UNL     1      -1.194  -2.846  -3.348  0.00  0.00    -0.319 N 
ATOM      2  H   UNL     1      -1.869  -2.432  -2.788  0.00  0.00    +0.152 HD
ENDROOT
BRANCH   1   3
ATOM      3  C   UNL     1      -1.510  -3.239  -4.652  0.00  0.00    +0.032 A 
ATOM      4  C   UNL     1      -0.540  -3.839  -5.453  0.00  0.00    +0.025 A 
ATOM      5  C   UNL     1      -0.838  -4.231  -6.738  0.00  0.00    +0.028 A 
ATOM      6  C   UNL     1      -2.116  -4.030  -7.250  0.00  0.00    +0.047 A 
ATOM      7  C   UNL     1      -3.095  -3.425  -6.445  0.00  0.00    +0.014 A 
ATOM      8  C   UNL     1      -2.788  -3.036  -5.144  0.00  0.00    +0.034 A 
ATOM      9  C   UNL     1      -4.314  -3.360  -7.272  0.00  0.00    +0.062 A 
ATOM     10  C   UNL     1      -3.994  -3.911  -8.477  0.00  0.00    +0.096 A 
ATOM     11  N   UNL     1      -2.699  -4.308  -8.470  0.00  0.00    -0.360 N 
ATOM     12  H   UNL     1      -2.245  -4.729  -9.217  0.00  0.00    +0.165 HD
BRANCH   9  13
ATOM     13  C   UNL     1      -5.617  -2.809  -6.875  0.00  0.00    +0.246 C 
ATOM     14  O   UNL     1      -5.767  -2.345  -5.761  0.00  0.00    -0.270 OA
ATOM     15  N   UNL     1      -6.646  -2.819  -7.746  0.00  0.00    -0.313 N 
ATOM     16  H   UNL     1      -6.526  -3.189  -8.634  0.00  0.00    +0.149 HD
BRANCH  15  17
ATOM     17  C   UNL     1      -7.945  -2.270  -7.351  0.00  0.00    +0.086 C 
BRANCH  17  18
ATOM     18  C   UNL     1      -8.930  -2.403  -8.514  0.00  0.00    -0.060 C 
BRANCH  18  19
ATOM     19  N   UNL     1     -10.265  -1.975  -8.076  0.00  0.00    +0.380 N 
ATOM     20  H   UNL     1     -10.535  -2.500  -7.257  0.00  0.00    -0.082 HD
BRANCH  19  21
ATOM     21  C   UNL     1     -10.239  -0.542  -7.753  0.00  0.00    -0.082 C 
ATOM     22  C   UNL     1     -11.595  -0.124  -7.179  0.00  0.00    -0.017 C 
ENDBRANCH  19  21
BRANCH  19  23
ATOM     23  C   UNL     1     -11.235  -2.217  -9.153  0.00  0.00    -0.082 C 
ATOM     24  C   UNL     1     -11.370  -3.723  -9.389  0.00  0.00    -0.017 C 
ENDBRANCH  19  23
ENDBRANCH  18  19
ENDBRANCH  17  18
ENDBRANCH  15  17
ENDBRANCH   9  13
ENDBRANCH   1   3
BRANCH   1  29
ATOM     25  N   UNL     1       0.135  -1.789   0.548  0.00  0.00    -0.301 N 
ATOM     26  C   UNL     1      -0.450  -2.047  -0.612  0.00  0.00    +0.267 A 
ATOM     27  O   UNL     1      -1.618  -1.773  -0.826  0.00  0.00    -0.266 OA
ATOM     28  C   UNL     1       0.376  -2.665  -1.595  0.00  0.00    +0.092 A 
ATOM     29  C   UNL     1       0.069  -3.046  -2.861  0.00  0.00    +0.092 C 
ATOM     30  S   UNL     1       1.923  -2.803  -0.716  0.00  0.00    -0.063 S 
ATOM     31  C   UNL     1       1.450  -2.108   0.740  0.00  0.00    +0.106 A 
ATOM     32  C   UNL     1       2.226  -1.906   1.888  0.00  0.00    +0.144 C 
BRANCH  32  33
ATOM     33  C   UNL     1       3.616  -2.185   1.863  0.00  0.00    +0.257 C 
ATOM     34  O   UNL     1       4.135  -2.601   0.843  0.00  0.00    -0.269 OA
ATOM     35  N   UNL     1       4.362  -1.990   2.968  0.00  0.00    -0.302 N 
ATOM     36  H   UNL     1       3.949  -1.658   3.781  0.00  0.00    +0.149 HD
BRANCH  35  37
ATOM     37  C   UNL     1       5.798  -2.278   2.943  0.00  0.00    +0.217 C 
BRANCH  37  38
ATOM     38  C   UNL     1       6.404  -1.973   4.314  0.00  0.00    +0.405 C 
ATOM     39  F   UNL     1       5.786  -2.769   5.284  0.00  0.00    -0.169 F 
ATOM     40  F   UNL     1       7.776  -2.249   4.289  0.00  0.00    -0.169 F 
ATOM     41  F   UNL     1       6.205  -0.623   4.622  0.00  0.00    -0.169 F 
ENDBRANCH  37  38
ENDBRANCH  35  37
ENDBRANCH  32  33
BRANCH  25  43
ATOM     42  C   UNL     1      -1.169  -2.229   2.570  0.00  0.00    +0.027 C 
ATOM     43  C   UNL     1      -0.628  -1.154   1.626  0.00  0.00    +0.122 C 
ENDBRANCH  25  43
BRANCH  32  44
ATOM     44  C   UNL     1       1.615  -1.416   3.088  0.00  0.00    +0.107 C 
ATOM     45  N   UNL     1       1.131  -1.028   4.039  0.00  0.00    -0.191 NA
ENDBRANCH  32  44
ENDBRANCH   1  29
TORSDOF 13
