REMARK  Name = CHEMBL1208958
REMARK  8 active torsions:
REMARK  status: ('A' for Active; 'I' for Inactive)
REMARK    1  A    between atoms: C_1  and  C_2
REMARK    2  A    between atoms: C_2  and  C_4
REMARK    3  A    between atoms: C_2  and  O_11
REMARK    4  A    between atoms: O_11  and  C_12
REMARK    5  A    between atoms: C_14  and  N_20
REMARK    6  A    between atoms: C_16  and  C_17
REMARK    7  A    between atoms: C_27  and  C_29
REMARK    8  A    between atoms: N_38  and  C_41
REMARK                            x       y       z     vdW  Elec       q    Type
REMARK                         _______ _______ _______ _____ _____    ______ ____
ROOT
ATOM      1  N   UNL     1      -3.580  -0.726  -3.512  0.00  0.00    -0.292 N 
ATOM      2  C   UNL     1      -4.565  -1.132  -2.661  0.00  0.00    +0.205 A 
ATOM      3  N   UNL     1      -5.732  -0.840  -3.155  0.00  0.00    -0.235 NA
ATOM      4  C   UNL     1      -5.580  -0.225  -4.357  0.00  0.00    +0.090 A 
ATOM      5  C   UNL     1      -4.197  -0.137  -4.601  0.00  0.00    +0.074 A 
ATOM      6  C   UNL     1      -3.732   0.457  -5.767  0.00  0.00    +0.029 A 
ATOM      7  C   UNL     1      -4.616   0.961  -6.679  0.00  0.00    +0.010 A 
ATOM      8  C   UNL     1      -5.993   0.885  -6.450  0.00  0.00    -0.016 A 
ATOM      9  C   UNL     1      -6.477   0.287  -5.294  0.00  0.00    +0.038 A 
ENDROOT
BRANCH   8  10
ATOM     10  C   UNL     1      -6.940   1.437  -7.449  0.00  0.00    -0.013 A 
ATOM     11  C   UNL     1      -8.322   1.377  -7.238  0.00  0.00    +0.028 A 
ATOM     12  C   UNL     1      -9.171   1.901  -8.188  0.00  0.00    +0.113 A 
ATOM     13  N   UNL     1      -8.698   2.455  -9.290  0.00  0.00    -0.240 NA
ATOM     14  C   UNL     1      -7.398   2.534  -9.531  0.00  0.00    +0.122 A 
ATOM     15  C   UNL     1      -6.476   2.035  -8.621  0.00  0.00    +0.052 A 
ATOM     16  N   UNL     1      -6.952   3.128 -10.706  0.00  0.00    -0.319 N 
ATOM     17  C   UNL     1      -7.878   3.864 -11.581  0.00  0.00    +0.088 C 
ATOM     18  C   UNL     1      -7.269   5.235 -11.892  0.00  0.00    -0.060 C 
ATOM     19  N   UNL     1      -5.922   5.056 -12.448  0.00  0.00    +0.380 N 
ATOM     20  C   UNL     1      -5.041   4.450 -11.442  0.00  0.00    -0.060 C 
ATOM     21  C   UNL     1      -5.539   3.045 -11.107  0.00  0.00    +0.088 C 
ATOM     22  C   UNL     1      -5.382   6.362 -12.847  0.00  0.00    -0.096 C 
ATOM     23  H   UNL     1      -5.971   4.454 -13.257  0.00  0.00    -0.082 HD
ENDBRANCH   8  10
BRANCH   1  26
ATOM     24  C   UNL     1      -0.106  -0.774  -2.243  0.00  0.00    +0.143 A 
ATOM     25  C   UNL     1      -1.460  -0.544  -2.221  0.00  0.00    +0.080 A 
ATOM     26  C   UNL     1      -2.210  -0.870  -3.319  0.00  0.00    +0.090 A 
ATOM     27  S   UNL     1      -0.985  -1.527  -4.439  0.00  0.00    -0.062 S 
ATOM     28  C   UNL     1       0.450  -1.329  -3.395  0.00  0.00    +0.117 A 
BRANCH  28  29
ATOM     29  C   UNL     1       1.798  -1.651  -3.666  0.00  0.00    +0.252 C 
ATOM     30  O   UNL     1       2.655  -1.446  -2.824  0.00  0.00    -0.270 OA
ATOM     31  N   UNL     1       2.138  -2.187  -4.855  0.00  0.00    -0.325 N 
ATOM     32  H   UNL     1       1.456  -2.350  -5.525  0.00  0.00    +0.145 HD
ATOM     33  H   UNL     1       3.064  -2.408  -5.041  0.00  0.00    +0.145 HD
ENDBRANCH  28  29
BRANCH  24  34
ATOM     34  O   UNL     1       0.671  -0.465  -1.174  0.00  0.00    -0.483 OA
BRANCH  34  36
ATOM     35  C   UNL     1      -0.228   1.506  -0.102  0.00  0.00    +0.057 C 
ATOM     36  C   UNL     1       0.003  -0.003   0.002  0.00  0.00    +0.202 C 
BRANCH  36  37
ATOM     37  C   UNL     1       0.851  -0.299   1.211  0.00  0.00    +0.011 A 
ATOM     38  C   UNL     1       2.221  -0.427   1.080  0.00  0.00    +0.008 A 
ATOM     39  C   UNL     1       3.000  -0.698   2.189  0.00  0.00    +0.000 A 
ATOM     40  C   UNL     1       2.409  -0.843   3.431  0.00  0.00    +0.001 A 
ATOM     41  C   UNL     1       1.039  -0.715   3.563  0.00  0.00    +0.020 A 
ATOM     42  C   UNL     1       0.260  -0.438   2.454  0.00  0.00    +0.048 A 
ATOM     43 CL   UNL     1      -1.460  -0.271   2.621  0.00  0.00    -0.083 Cl
ENDBRANCH  36  37
ENDBRANCH  34  36
ENDBRANCH  24  34
ENDBRANCH   1  26
TORSDOF 6
