REMARK  Name = CHEMBL564067
REMARK  9 active torsions:
REMARK  status: ('A' for Active; 'I' for Inactive)
REMARK    1  A    between atoms: C_1  and  C_2
REMARK    2  A    between atoms: C_2  and  C_4
REMARK    3  A    between atoms: C_2  and  O_19
REMARK    4  A    between atoms: C_7  and  C_11
REMARK    5  A    between atoms: C_11  and  N_12
REMARK    6  A    between atoms: C_15  and  O_18
REMARK    7  A    between atoms: O_19  and  C_20
REMARK    8  A    between atoms: C_22  and  C_28
REMARK    9  A    between atoms: C_24  and  C_25
REMARK                            x       y       z     vdW  Elec       q    Type
REMARK                         _______ _______ _______ _____ _____    ______ ____
ROOT
ATOM      1  O   UNL     1      -1.339  -0.499   0.012  0.00  0.00    -0.483 OA
ENDROOT
BRANCH   1   2
ATOM      2  C   UNL     1      -1.965  -0.607  -1.188  0.00  0.00    +0.141 A 
ATOM      3  C   UNL     1      -1.294  -0.350  -2.354  0.00  0.00    +0.064 A 
ATOM      4  C   UNL     1      -1.977  -0.474  -3.557  0.00  0.00    +0.042 A 
ATOM      5  S   UNL     1      -3.607  -0.965  -3.021  0.00  0.00    -0.079 S 
ATOM      6  C   UNL     1      -3.305  -0.987  -1.262  0.00  0.00    +0.116 A 
BRANCH   4   7
ATOM      7  C   UNL     1      -1.484  -0.256  -4.922  0.00  0.00    +0.078 A 
ATOM      8  C   UNL     1      -0.185   0.027  -5.295  0.00  0.00    +0.111 A 
ATOM      9  N   UNL     1      -0.149   0.153  -6.617  0.00  0.00    -0.345 N 
ATOM     10  C   UNL     1      -1.367  -0.034  -7.117  0.00  0.00    +0.116 A 
ATOM     11  N   UNL     1      -2.226  -0.298  -6.083  0.00  0.00    -0.300 N 
ATOM     12  C   UNL     1      -3.546  -0.536  -6.324  0.00  0.00    +0.093 A 
ATOM     13  C   UNL     1      -4.030  -0.518  -7.585  0.00  0.00    +0.018 A 
ATOM     14  C   UNL     1      -3.175  -0.255  -8.666  0.00  0.00    +0.005 A 
ATOM     15  C   UNL     1      -1.855  -0.007  -8.437  0.00  0.00    +0.045 A 
ATOM     16  H   UNL     1       0.644   0.353  -7.138  0.00  0.00    +0.167 HD
ENDBRANCH   4   7
BRANCH   6  17
ATOM     17  C   UNL     1      -4.196  -1.305  -0.213  0.00  0.00    +0.252 C 
ATOM     18  O   UNL     1      -3.814  -1.265   0.944  0.00  0.00    -0.270 OA
ATOM     19  N   UNL     1      -5.468  -1.654  -0.491  0.00  0.00    -0.325 N 
ATOM     20  H   UNL     1      -5.771  -1.686  -1.412  0.00  0.00    +0.145 HD
ATOM     21  H   UNL     1      -6.079  -1.872   0.229  0.00  0.00    +0.145 HD
ENDBRANCH   6  17
ENDBRANCH   1   2
BRANCH   1  23
ATOM     22  C   UNL     1       0.292   1.279  -0.131  0.00  0.00    +0.057 C 
ATOM     23  C   UNL     1       0.065  -0.229  -0.010  0.00  0.00    +0.202 C 
BRANCH  23  24
ATOM     24  C   UNL     1       0.693  -0.732   1.264  0.00  0.00    +0.011 A 
ATOM     25  C   UNL     1      -0.072  -0.864   2.407  0.00  0.00    +0.009 A 
ATOM     26  C   UNL     1       0.504  -1.325   3.575  0.00  0.00    +0.002 A 
ATOM     27  C   UNL     1       1.847  -1.655   3.602  0.00  0.00    -0.063 A 
ATOM     28  C   UNL     1       2.613  -1.523   2.459  0.00  0.00    +0.022 A 
ATOM     29  C   UNL     1       2.035  -1.067   1.288  0.00  0.00    +0.048 A 
ATOM     30 CL   UNL     1       2.996  -0.907  -0.150  0.00  0.00    -0.083 Cl
BRANCH  27  31
ATOM     31  C   UNL     1       2.474  -2.157   4.876  0.00  0.00    -0.043 C 
BRANCH  31  32
ATOM     32  N   UNL     1       2.366  -3.621   4.932  0.00  0.00    +0.382 N 
ATOM     33  C   UNL     1       0.951  -4.003   5.009  0.00  0.00    -0.076 C 
ATOM     34  C   UNL     1       0.828  -5.528   4.985  0.00  0.00    +0.013 C 
ATOM     35  C   UNL     1       1.583  -6.114   6.182  0.00  0.00    +0.111 C 
ATOM     36  C   UNL     1       3.041  -5.648   6.131  0.00  0.00    +0.013 C 
ATOM     37  C   UNL     1       3.082  -4.119   6.112  0.00  0.00    -0.076 C 
ATOM     38  H   UNL     1       2.775  -4.019   4.099  0.00  0.00    -0.081 HD
BRANCH  35  39
ATOM     39  O   UNL     1       1.535  -7.541   6.125  0.00  0.00    -0.392 OA
ATOM     40  H   UNL     1       1.995  -7.980   6.854  0.00  0.00    +0.210 HD
ENDBRANCH  35  39
ENDBRANCH  31  32
ENDBRANCH  27  31
ENDBRANCH  23  24
ENDBRANCH   1  23
TORSDOF 8
