REMARK  Name = CHEMBL473630
REMARK  9 active torsions:
REMARK  status: ('A' for Active; 'I' for Inactive)
REMARK    1  A    between atoms: C_1  and  O_2
REMARK    2  A    between atoms: O_2  and  C_3
REMARK    3  A    between atoms: C_8  and  O_9
REMARK    4  A    between atoms: O_9  and  C_10
REMARK    5  A    between atoms: N_11  and  C_14
REMARK    6  A    between atoms: C_16  and  O_22
REMARK    7  A    between atoms: C_17  and  C_19
REMARK    8  A    between atoms: O_22  and  C_23
REMARK    9  A    between atoms: C_23  and  C_24
REMARK                            x       y       z     vdW  Elec       q    Type
REMARK                         _______ _______ _______ _____ _____    ______ ____
ROOT
ATOM      1  C   UNL     1       2.785  -3.443  -4.864  0.00  0.00    +0.090 A 
ATOM      2  C   UNL     1       2.562  -3.956  -6.113  0.00  0.00    +0.080 A 
ATOM      3  C   UNL     1       2.922  -5.255  -6.377  0.00  0.00    +0.142 A 
ATOM      4  C   UNL     1       3.503  -5.999  -5.353  0.00  0.00    +0.117 A 
ATOM      5  S   UNL     1       3.536  -4.821  -4.012  0.00  0.00    -0.062 S 
ENDROOT
BRANCH   1  12
ATOM      6  C   UNL     1       0.606  -0.608  -1.057  0.00  0.00    +0.164 A 
ATOM      7  C   UNL     1       1.169   0.161  -2.055  0.00  0.00    +0.079 A 
ATOM      8  C   UNL     1       1.790  -0.460  -3.143  0.00  0.00    +0.093 A 
ATOM      9  C   UNL     1       1.835  -1.863  -3.208  0.00  0.00    +0.078 A 
ATOM     10  C   UNL     1       1.266  -2.625  -2.198  0.00  0.00    +0.077 A 
ATOM     11  C   UNL     1       0.659  -2.001  -1.124  0.00  0.00    +0.164 A 
ATOM     12  N   UNL     1       2.504  -2.168  -4.382  0.00  0.00    -0.292 N 
ATOM     13  C   UNL     1       2.835  -0.986  -4.977  0.00  0.00    +0.205 A 
ATOM     14  N   UNL     1       2.418   0.010  -4.253  0.00  0.00    -0.235 NA
BRANCH   6  16
ATOM     15  C   UNL     1      -0.017   1.425   0.010  0.00  0.00    +0.277 C 
ATOM     16  O   UNL     1       0.002  -0.004   0.002  0.00  0.00    -0.491 OA
ENDBRANCH   6  16
BRANCH  11  17
ATOM     17  O   UNL     1       0.106  -2.748  -0.131  0.00  0.00    -0.491 OA
ATOM     18  C   UNL     1       0.194  -4.168  -0.262  0.00  0.00    +0.277 C 
ENDBRANCH  11  17
ENDBRANCH   1  12
BRANCH   4  19
ATOM     19  C   UNL     1       3.955  -7.338  -5.372  0.00  0.00    +0.252 C 
ATOM     20  O   UNL     1       3.857  -8.000  -6.390  0.00  0.00    -0.270 OA
ATOM     21  N   UNL     1       4.495  -7.883  -4.263  0.00  0.00    -0.325 N 
ATOM     22  H   UNL     1       4.574  -7.356  -3.453  0.00  0.00    +0.145 HD
ATOM     23  H   UNL     1       4.805  -8.802  -4.276  0.00  0.00    +0.145 HD
ENDBRANCH   4  19
BRANCH   3  24
ATOM     24  O   UNL     1       2.716  -5.799  -7.604  0.00  0.00    -0.490 OA
BRANCH  24  25
ATOM     25  C   UNL     1       2.114  -4.961  -8.593  0.00  0.00    +0.232 C 
BRANCH  25  26
ATOM     26  C   UNL     1       1.964  -5.742  -9.900  0.00  0.00    +0.027 C 
ATOM     27  C   UNL     1       3.353  -6.035 -10.504  0.00  0.00    +0.007 C 
ATOM     28  C   UNL     1       3.140  -5.896 -12.031  0.00  0.00    +0.000 C 
ATOM     29  C   UNL     1       2.159  -4.702 -12.133  0.00  0.00    +0.000 C 
ATOM     30  C   UNL     1       1.204  -4.895 -10.936  0.00  0.00    +0.007 C 
ENDBRANCH  25  26
ENDBRANCH  24  25
ENDBRANCH   3  24
TORSDOF 7
