REMARK  Name = CHEMBL493930
REMARK  9 active torsions:
REMARK  status: ('A' for Active; 'I' for Inactive)
REMARK    1  A    between atoms: C_1  and  C_2
REMARK    2  A    between atoms: C_2  and  C_4
REMARK    3  A    between atoms: C_2  and  O_11
REMARK    4  A    between atoms: O_11  and  C_12
REMARK    5  A    between atoms: C_14  and  N_20
REMARK    6  A    between atoms: C_16  and  C_17
REMARK    7  A    between atoms: C_26  and  O_29
REMARK    8  A    between atoms: O_29  and  C_30
REMARK    9  A    between atoms: N_33  and  C_36
REMARK                            x       y       z     vdW  Elec       q    Type
REMARK                         _______ _______ _______ _____ _____    ______ ____
ROOT
ATOM      1  C   UNL     1      -0.115  -0.361   2.435  0.00  0.00    +0.143 A 
ATOM      2  C   UNL     1      -1.448  -0.072   2.589  0.00  0.00    +0.080 A 
ATOM      3  C   UNL     1      -2.054  -0.336   3.787  0.00  0.00    +0.090 A 
ATOM      4  S   UNL     1      -0.716  -1.019   4.751  0.00  0.00    -0.062 S 
ATOM      5  C   UNL     1       0.567  -0.921   3.514  0.00  0.00    +0.117 A 
ENDROOT
BRANCH   3   6
ATOM      6  N   UNL     1      -3.378  -0.126   4.160  0.00  0.00    -0.292 N 
ATOM      7  C   UNL     1      -4.091   1.028   4.002  0.00  0.00    +0.205 A 
ATOM      8  N   UNL     1      -5.297   0.873   4.461  0.00  0.00    -0.235 NA
ATOM      9  C   UNL     1      -5.446  -0.388   4.947  0.00  0.00    +0.090 A 
ATOM     10  C   UNL     1      -4.220  -1.048   4.756  0.00  0.00    +0.077 A 
ATOM     11  C   UNL     1      -4.076  -2.368   5.156  0.00  0.00    +0.074 A 
ATOM     12  C   UNL     1      -5.144  -3.027   5.738  0.00  0.00    +0.123 A 
ATOM     13  C   UNL     1      -6.358  -2.372   5.923  0.00  0.00    +0.048 A 
ATOM     14  C   UNL     1      -6.510  -1.069   5.542  0.00  0.00    +0.033 A 
BRANCH  12  15
ATOM     15  O   UNL     1      -5.007  -4.322   6.132  0.00  0.00    -0.489 OA
BRANCH  15  16
ATOM     16  C   UNL     1      -6.178  -4.979   6.619  0.00  0.00    +0.170 C 
ATOM     17  C   UNL     1      -6.352  -4.677   8.110  0.00  0.00    +0.026 C 
ATOM     18  C   UNL     1      -7.562  -5.447   8.643  0.00  0.00    -0.076 C 
ATOM     19  N   UNL     1      -7.351  -6.888   8.455  0.00  0.00    +0.378 N 
ATOM     20  C   UNL     1      -7.255  -7.195   7.023  0.00  0.00    -0.076 C 
ATOM     21  C   UNL     1      -6.034  -6.492   6.428  0.00  0.00    +0.026 C 
ATOM     22  C   UNL     1      -8.479  -7.627   9.038  0.00  0.00    -0.096 C 
ATOM     23  H   UNL     1      -6.497  -7.164   8.915  0.00  0.00    -0.082 HD
ENDBRANCH  15  16
ENDBRANCH  12  15
ENDBRANCH   3   6
BRANCH   5  24
ATOM     24  C   UNL     1       1.923  -1.308   3.605  0.00  0.00    +0.252 C 
ATOM     25  O   UNL     1       2.663  -1.165   2.648  0.00  0.00    -0.270 OA
ATOM     26  N   UNL     1       2.397  -1.837   4.750  0.00  0.00    -0.325 N 
ATOM     27  H   UNL     1       1.808  -1.952   5.512  0.00  0.00    +0.145 HD
ATOM     28  H   UNL     1       3.328  -2.103   4.813  0.00  0.00    +0.145 HD
ENDBRANCH   5  24
BRANCH   1  29
ATOM     29  O   UNL     1       0.521  -0.114   1.261  0.00  0.00    -0.483 OA
BRANCH  29  31
ATOM     30  C   UNL     1      -0.461   1.859   0.268  0.00  0.00    +0.057 C 
ATOM     31  C   UNL     1      -0.283   0.342   0.171  0.00  0.00    +0.202 C 
BRANCH  31  32
ATOM     32  C   UNL     1       0.393  -0.002  -1.131  0.00  0.00    +0.011 A 
ATOM     33  C   UNL     1       1.764  -0.176  -1.173  0.00  0.00    +0.008 A 
ATOM     34  C   UNL     1       2.384  -0.492  -2.367  0.00  0.00    +0.000 A 
ATOM     35  C   UNL     1       1.634  -0.635  -3.520  0.00  0.00    +0.001 A 
ATOM     36  C   UNL     1       0.264  -0.461  -3.479  0.00  0.00    +0.020 A 
ATOM     37  C   UNL     1      -0.359  -0.150  -2.283  0.00  0.00    +0.048 A 
ATOM     38 CL   UNL     1      -2.081   0.061  -2.229  0.00  0.00    -0.083 Cl
ENDBRANCH  31  32
ENDBRANCH  29  31
ENDBRANCH   1  29
TORSDOF 7
