REMARK  Name = CHEMBL1208964
REMARK  9 active torsions:
REMARK  status: ('A' for Active; 'I' for Inactive)
REMARK    1  A    between atoms: C_1  and  C_2
REMARK    2  A    between atoms: C_2  and  C_4
REMARK    3  A    between atoms: C_2  and  O_11
REMARK    4  A    between atoms: O_11  and  C_12
REMARK    5  A    between atoms: C_14  and  N_20
REMARK    6  A    between atoms: C_16  and  C_17
REMARK    7  A    between atoms: C_27  and  C_29
REMARK    8  A    between atoms: N_35  and  C_36
REMARK    9  A    between atoms: N_39  and  C_42
REMARK                            x       y       z     vdW  Elec       q    Type
REMARK                         _______ _______ _______ _____ _____    ______ ____
ROOT
ATOM      1  N   UNL     1      -1.232  -0.740   4.864  0.00  0.00    -0.292 N 
ATOM      2  C   UNL     1       0.007  -1.114   5.292  0.00  0.00    +0.205 A 
ATOM      3  N   UNL     1       0.155  -0.814   6.549  0.00  0.00    -0.235 NA
ATOM      4  C   UNL     1      -0.977  -0.226   7.016  0.00  0.00    +0.090 A 
ATOM      5  C   UNL     1      -1.882  -0.164   5.941  0.00  0.00    +0.074 A 
ATOM      6  C   UNL     1      -3.138   0.399   6.119  0.00  0.00    +0.029 A 
ATOM      7  C   UNL     1      -3.499   0.899   7.338  0.00  0.00    +0.010 A 
ATOM      8  C   UNL     1      -2.611   0.849   8.416  0.00  0.00    -0.016 A 
ATOM      9  C   UNL     1      -1.353   0.282   8.260  0.00  0.00    +0.038 A 
ENDROOT
BRANCH   8  10
ATOM     10  C   UNL     1      -3.016   1.396   9.734  0.00  0.00    -0.013 A 
ATOM     11  C   UNL     1      -2.141   1.361  10.826  0.00  0.00    +0.026 A 
ATOM     12  C   UNL     1      -2.553   1.879  12.034  0.00  0.00    +0.085 A 
ATOM     13  N   UNL     1      -3.757   2.404  12.174  0.00  0.00    -0.350 N 
ATOM     14  C   UNL     1      -4.617   2.458  11.168  0.00  0.00    +0.097 A 
ATOM     15  C   UNL     1      -4.277   1.962   9.916  0.00  0.00    +0.050 A 
ATOM     16  N   UNL     1      -5.873   3.022  11.367  0.00  0.00    -0.328 N 
ATOM     17  H   UNL     1      -6.114   3.373  12.239  0.00  0.00    +0.148 HD
ATOM     18  H   UNL     1      -4.018   2.761  13.037  0.00  0.00    +0.166 HD
BRANCH  16  19
ATOM     19  C   UNL     1      -6.831   3.085  10.261  0.00  0.00    +0.068 C 
ATOM     20  C   UNL     1      -6.570   4.344   9.429  0.00  0.00    +0.003 C 
ATOM     21  C   UNL     1      -7.623   4.446   8.324  0.00  0.00    -0.077 C 
ATOM     22  N   UNL     1      -8.961   4.522   8.923  0.00  0.00    +0.378 N 
ATOM     23  C   UNL     1      -9.246   3.287   9.663  0.00  0.00    -0.077 C 
ATOM     24  C   UNL     1      -8.256   3.140  10.820  0.00  0.00    +0.003 C 
ATOM     25  C   UNL     1      -9.962   4.697   7.862  0.00  0.00    -0.096 C 
ATOM     26  H   UNL     1      -9.002   5.308   9.554  0.00  0.00    -0.082 HD
ENDBRANCH  16  19
ENDBRANCH   8  10
BRANCH   1  29
ATOM     27  C   UNL     1      -1.868  -0.817   1.221  0.00  0.00    +0.143 A 
ATOM     28  C   UNL     1      -1.179  -0.566   2.381  0.00  0.00    +0.080 A 
ATOM     29  C   UNL     1      -1.746  -0.901   3.581  0.00  0.00    +0.090 A 
ATOM     30  S   UNL     1      -3.311  -1.599   3.083  0.00  0.00    -0.062 S 
ATOM     31  C   UNL     1      -3.130  -1.403   1.317  0.00  0.00    +0.117 A 
BRANCH  31  32
ATOM     32  C   UNL     1      -4.030  -1.752   0.286  0.00  0.00    +0.252 C 
ATOM     33  O   UNL     1      -3.734  -1.543  -0.878  0.00  0.00    -0.270 OA
ATOM     34  N   UNL     1      -5.216  -2.316   0.588  0.00  0.00    -0.325 N 
ATOM     35  H   UNL     1      -5.451  -2.483   1.515  0.00  0.00    +0.145 HD
ATOM     36  H   UNL     1      -5.834  -2.556  -0.120  0.00  0.00    +0.145 HD
ENDBRANCH  31  32
BRANCH  27  37
ATOM     37  O   UNL     1      -1.339  -0.499   0.012  0.00  0.00    -0.483 OA
BRANCH  37  39
ATOM     38  C   UNL     1      -0.005   1.502   0.256  0.00  0.00    +0.057 C 
ATOM     39  C   UNL     1       0.003  -0.006   0.001  0.00  0.00    +0.202 C 
BRANCH  39  40
ATOM     40  C   UNL     1       0.630  -0.286  -1.340  0.00  0.00    +0.011 A 
ATOM     41  C   UNL     1      -0.168  -0.430  -2.460  0.00  0.00    +0.008 A 
ATOM     42  C   UNL     1       0.406  -0.686  -3.691  0.00  0.00    +0.000 A 
ATOM     43  C   UNL     1       1.780  -0.799  -3.803  0.00  0.00    +0.001 A 
ATOM     44  C   UNL     1       2.579  -0.656  -2.684  0.00  0.00    +0.020 A 
ATOM     45  C   UNL     1       2.004  -0.394  -1.453  0.00  0.00    +0.048 A 
ATOM     46 CL   UNL     1       3.008  -0.207  -0.049  0.00  0.00    -0.083 Cl
ENDBRANCH  39  40
ENDBRANCH  37  39
ENDBRANCH  27  37
ENDBRANCH   1  29
TORSDOF 7
