REMARK  Name = CHEMBL477605
REMARK  5 active torsions:
REMARK  status: ('A' for Active; 'I' for Inactive)
REMARK    1  A    between atoms: C_1  and  C_2
REMARK    2  A    between atoms: C_2  and  C_3
REMARK    3  A    between atoms: C_2  and  N_9
REMARK    4  A    between atoms: C_13  and  C_26
REMARK    5  A    between atoms: C_14  and  N_16
REMARK                            x       y       z     vdW  Elec       q    Type
REMARK                         _______ _______ _______ _____ _____    ______ ____
ROOT
ATOM      1  N   UNL     1       0.680  -0.650  -1.141  0.00  0.00    -0.307 N 
ATOM      2  C   UNL     1       2.060  -0.674  -1.185  0.00  0.00    +0.217 A 
ATOM      3  N   UNL     1       2.744  -0.272  -0.121  0.00  0.00    -0.222 NA
ATOM      4  C   UNL     1       4.065  -0.278  -0.117  0.00  0.00    +0.136 A 
ATOM      5  C   UNL     1       4.747  -0.717  -1.257  0.00  0.00    +0.110 A 
ATOM      6  C   UNL     1       3.984  -1.137  -2.369  0.00  0.00    +0.144 A 
ATOM      7  N   UNL     1       2.659  -1.103  -2.285  0.00  0.00    -0.198 NA
ATOM      8  H   UNL     1       0.165  -0.945  -1.908  0.00  0.00    +0.149 HD
ENDROOT
BRANCH   6   9
ATOM      9  N   UNL     1       4.605  -1.579  -3.519  0.00  0.00    -0.309 N 
ATOM     10  C   UNL     1       4.947  -2.998  -3.707  0.00  0.00    +0.111 C 
ATOM     11  C   UNL     1       4.130  -3.527  -4.885  0.00  0.00    +0.054 C 
ATOM     12  C   UNL     1       4.210  -2.585  -6.058  0.00  0.00    -0.041 A 
ATOM     13  C   UNL     1       3.899  -3.092  -7.314  0.00  0.00    +0.004 A 
ATOM     14  C   UNL     1       3.942  -2.281  -8.428  0.00  0.00    +0.000 A 
ATOM     15  C   UNL     1       4.296  -0.951  -8.297  0.00  0.00    +0.000 A 
ATOM     16  C   UNL     1       4.609  -0.446  -7.052  0.00  0.00    +0.005 A 
ATOM     17  C   UNL     1       4.571  -1.263  -5.931  0.00  0.00    -0.027 A 
ATOM     18  C   UNL     1       4.944  -0.655  -4.606  0.00  0.00    +0.142 C 
ENDBRANCH   6   9
BRANCH   1  20
ATOM     19  C   UNL     1      -0.127   1.345   0.022  0.00  0.00    +0.033 C 
ATOM     20  C   UNL     1      -0.006  -0.180   0.065  0.00  0.00    +0.100 C 
BRANCH  20  21
ATOM     21  C   UNL     1      -1.382  -0.792   0.131  0.00  0.00    -0.027 A 
ATOM     22  C   UNL     1      -2.135  -0.924  -1.020  0.00  0.00    +0.005 A 
ATOM     23  C   UNL     1      -3.397  -1.485  -0.960  0.00  0.00    +0.000 A 
ATOM     24  C   UNL     1      -3.905  -1.914   0.252  0.00  0.00    +0.000 A 
ATOM     25  C   UNL     1      -3.152  -1.782   1.403  0.00  0.00    +0.000 A 
ATOM     26  C   UNL     1      -1.888  -1.225   1.342  0.00  0.00    +0.005 A 
ENDBRANCH  20  21
ENDBRANCH   1  20
BRANCH   5  27
ATOM     27  C   UNL     1       6.178  -0.739  -1.296  0.00  0.00    +0.104 C 
ATOM     28  N   UNL     1       7.313  -0.757  -1.327  0.00  0.00    -0.191 NA
ENDBRANCH   5  27
TORSDOF 4
