REMARK  Name = CHEMBL561286
REMARK  9 active torsions:
REMARK  status: ('A' for Active; 'I' for Inactive)
REMARK    1  A    between atoms: C_1  and  C_2
REMARK    2  A    between atoms: C_2  and  C_4
REMARK    3  A    between atoms: C_2  and  O_16
REMARK    4  A    between atoms: C_7  and  C_11
REMARK    5  A    between atoms: C_11  and  N_12
REMARK    6  A    between atoms: N_12  and  C_13
REMARK    7  A    between atoms: O_16  and  C_17
REMARK    8  A    between atoms: C_19  and  C_25
REMARK    9  A    between atoms: C_21  and  C_22
REMARK                            x       y       z     vdW  Elec       q    Type
REMARK                         _______ _______ _______ _____ _____    ______ ____
ROOT
ATOM      1  C   UNL     1      -1.965  -0.607  -1.188  0.00  0.00    +0.141 A 
ATOM      2  C   UNL     1      -1.294  -0.350  -2.354  0.00  0.00    +0.064 A 
ATOM      3  C   UNL     1      -1.977  -0.474  -3.557  0.00  0.00    +0.042 A 
ATOM      4  S   UNL     1      -3.607  -0.965  -3.021  0.00  0.00    -0.079 S 
ATOM      5  C   UNL     1      -3.305  -0.987  -1.262  0.00  0.00    +0.116 A 
ENDROOT
BRANCH   3   6
ATOM      6  C   UNL     1      -1.484  -0.256  -4.922  0.00  0.00    +0.080 A 
ATOM      7  C   UNL     1      -0.185   0.027  -5.295  0.00  0.00    +0.140 A 
ATOM      8  N   UNL     1      -0.149   0.153  -6.617  0.00  0.00    -0.235 NA
ATOM      9  C   UNL     1      -1.367  -0.034  -7.117  0.00  0.00    +0.138 A 
ATOM     10  N   UNL     1      -2.226  -0.298  -6.083  0.00  0.00    -0.299 N 
ATOM     11  C   UNL     1      -3.546  -0.536  -6.324  0.00  0.00    +0.093 A 
ATOM     12  C   UNL     1      -4.030  -0.518  -7.585  0.00  0.00    +0.018 A 
ATOM     13  C   UNL     1      -3.175  -0.255  -8.666  0.00  0.00    +0.005 A 
ATOM     14  C   UNL     1      -1.855  -0.007  -8.437  0.00  0.00    +0.047 A 
ENDBRANCH   3   6
BRANCH   5  15
ATOM     15  C   UNL     1      -4.196  -1.305  -0.213  0.00  0.00    +0.252 C 
ATOM     16  O   UNL     1      -3.814  -1.265   0.944  0.00  0.00    -0.270 OA
ATOM     17  N   UNL     1      -5.468  -1.654  -0.491  0.00  0.00    -0.325 N 
ATOM     18  H   UNL     1      -5.771  -1.686  -1.412  0.00  0.00    +0.145 HD
ATOM     19  H   UNL     1      -6.079  -1.872   0.229  0.00  0.00    +0.145 HD
ENDBRANCH   5  15
BRANCH   1  20
ATOM     20  O   UNL     1      -1.339  -0.499   0.012  0.00  0.00    -0.483 OA
BRANCH  20  22
ATOM     21  C   UNL     1       0.292   1.279  -0.131  0.00  0.00    +0.057 C 
ATOM     22  C   UNL     1       0.065  -0.229  -0.010  0.00  0.00    +0.202 C 
BRANCH  22  23
ATOM     23  C   UNL     1       0.693  -0.732   1.264  0.00  0.00    +0.011 A 
ATOM     24  C   UNL     1      -0.072  -0.864   2.407  0.00  0.00    +0.009 A 
ATOM     25  C   UNL     1       0.504  -1.325   3.575  0.00  0.00    +0.002 A 
ATOM     26  C   UNL     1       1.847  -1.655   3.602  0.00  0.00    -0.063 A 
ATOM     27  C   UNL     1       2.613  -1.523   2.459  0.00  0.00    +0.022 A 
ATOM     28  C   UNL     1       2.035  -1.067   1.288  0.00  0.00    +0.048 A 
ATOM     29 CL   UNL     1       2.996  -0.907  -0.150  0.00  0.00    -0.083 Cl
BRANCH  26  30
ATOM     30  C   UNL     1       2.474  -2.157   4.876  0.00  0.00    -0.046 C 
BRANCH  30  31
ATOM     31  N   UNL     1       2.366  -3.621   4.932  0.00  0.00    +0.384 N 
ATOM     32  H   UNL     1       1.393  -3.887   4.908  0.00  0.00    -0.085 HD
ATOM     33  H   UNL     1       2.844  -4.024   4.140  0.00  0.00    -0.085 HD
BRANCH  31  34
ATOM     34  C   UNL     1       2.978  -4.111   6.174  0.00  0.00    -0.072 C 
ATOM     35  C   UNL     1       4.207  -5.013   6.048  0.00  0.00    -0.017 C 
ATOM     36  C   UNL     1       2.864  -5.606   6.476  0.00  0.00    -0.017 C 
ENDBRANCH  31  34
ENDBRANCH  30  31
ENDBRANCH  26  30
ENDBRANCH  22  23
ENDBRANCH  20  22
ENDBRANCH   1  20
TORSDOF 8
