REMARK  Name = CHEMBL222419
REMARK  10 active torsions:
REMARK  status: ('A' for Active; 'I' for Inactive)
REMARK    1  A    between atoms: C_1  and  C_2
REMARK    2  A    between atoms: C_2  and  C_4
REMARK    3  A    between atoms: C_2  and  O_11
REMARK    4  A    between atoms: O_11  and  C_12
REMARK    5  A    between atoms: C_14  and  N_20
REMARK    6  A    between atoms: C_16  and  C_17
REMARK    7  A    between atoms: C_26  and  O_31
REMARK    8  A    between atoms: C_27  and  O_29
REMARK    9  A    between atoms: O_29  and  C_30
REMARK   10  A    between atoms: O_31  and  C_32
REMARK                            x       y       z     vdW  Elec       q    Type
REMARK                         _______ _______ _______ _____ _____    ______ ____
ROOT
ATOM      1  C   UNL     1      -1.964  -0.607  -1.188  0.00  0.00    +0.143 A 
ATOM      2  C   UNL     1      -1.292  -0.355  -2.358  0.00  0.00    +0.080 A 
ATOM      3  C   UNL     1      -1.957  -0.475  -3.549  0.00  0.00    +0.090 A 
ATOM      4  S   UNL     1      -3.594  -0.958  -3.026  0.00  0.00    -0.062 S 
ATOM      5  C   UNL     1      -3.305  -0.981  -1.265  0.00  0.00    +0.117 A 
ENDROOT
BRANCH   3   6
ATOM      6  N   UNL     1      -1.479  -0.270  -4.840  0.00  0.00    -0.292 N 
ATOM      7  C   UNL     1      -0.785   0.818  -5.283  0.00  0.00    +0.205 A 
ATOM      8  N   UNL     1      -0.495   0.678  -6.543  0.00  0.00    -0.235 NA
ATOM      9  C   UNL     1      -0.980  -0.508  -6.998  0.00  0.00    +0.093 A 
ATOM     10  C   UNL     1      -1.613  -1.136  -5.912  0.00  0.00    +0.078 A 
ATOM     11  C   UNL     1      -2.204  -2.380  -6.077  0.00  0.00    +0.077 A 
ATOM     12  C   UNL     1      -2.167  -3.002  -7.311  0.00  0.00    +0.164 A 
ATOM     13  C   UNL     1      -1.536  -2.384  -8.392  0.00  0.00    +0.164 A 
ATOM     14  C   UNL     1      -0.952  -1.143  -8.242  0.00  0.00    +0.079 A 
BRANCH  13  15
ATOM     15  O   UNL     1      -1.504  -3.005  -9.602  0.00  0.00    -0.491 OA
ATOM     16  C   UNL     1      -0.843  -2.318 -10.666  0.00  0.00    +0.277 C 
ENDBRANCH  13  15
BRANCH  12  17
ATOM     17  O   UNL     1      -2.746  -4.222  -7.472  0.00  0.00    -0.491 OA
ATOM     18  C   UNL     1      -3.374  -4.799  -6.326  0.00  0.00    +0.277 C 
ENDBRANCH  12  17
ENDBRANCH   3   6
BRANCH   5  19
ATOM     19  C   UNL     1      -4.202  -1.295  -0.219  0.00  0.00    +0.252 C 
ATOM     20  O   UNL     1      -3.826  -1.256   0.939  0.00  0.00    -0.270 OA
ATOM     21  N   UNL     1      -5.474  -1.637  -0.504  0.00  0.00    -0.325 N 
ATOM     22  H   UNL     1      -5.774  -1.669  -1.426  0.00  0.00    +0.145 HD
ATOM     23  H   UNL     1      -6.090  -1.853   0.214  0.00  0.00    +0.145 HD
ENDBRANCH   5  19
BRANCH   1  24
ATOM     24  O   UNL     1      -1.339  -0.499   0.012  0.00  0.00    -0.483 OA
BRANCH  24  26
ATOM     25  C   UNL     1       0.300   1.272  -0.134  0.00  0.00    +0.057 C 
ATOM     26  C   UNL     1       0.066  -0.235  -0.010  0.00  0.00    +0.202 C 
BRANCH  26  27
ATOM     27  C   UNL     1       0.691  -0.738   1.266  0.00  0.00    +0.011 A 
ATOM     28  C   UNL     1      -0.076  -0.864   2.409  0.00  0.00    +0.008 A 
ATOM     29  C   UNL     1       0.498  -1.325   3.579  0.00  0.00    +0.000 A 
ATOM     30  C   UNL     1       1.839  -1.660   3.607  0.00  0.00    +0.001 A 
ATOM     31  C   UNL     1       2.607  -1.534   2.465  0.00  0.00    +0.020 A 
ATOM     32  C   UNL     1       2.032  -1.078   1.292  0.00  0.00    +0.048 A 
ATOM     33 CL   UNL     1       2.994  -0.926  -0.145  0.00  0.00    -0.083 Cl
ENDBRANCH  26  27
ENDBRANCH  24  26
ENDBRANCH   1  24
TORSDOF 7
