REMARK  Name = CHEMBL478654
REMARK  8 active torsions:
REMARK  status: ('A' for Active; 'I' for Inactive)
REMARK    1  A    between atoms: C_1  and  C_2
REMARK    2  A    between atoms: N_4  and  C_5
REMARK    3  A    between atoms: N_4  and  C_6
REMARK    4  A    between atoms: C_10  and  N_12
REMARK    5  A    between atoms: C_14  and  C_27
REMARK    6  A    between atoms: N_19  and  C_20
REMARK    7  A    between atoms: C_20  and  C_21
REMARK    8  A    between atoms: C_21  and  C_22
REMARK                            x       y       z     vdW  Elec       q    Type
REMARK                         _______ _______ _______ _____ _____    ______ ____
ROOT
ATOM      1  N   UNL     1      -3.434  -5.308   0.069  0.00  0.00    -0.299 N 
ATOM      2  C   UNL     1      -3.293  -6.680   0.165  0.00  0.00    +0.139 A 
ATOM      3  C   UNL     1      -4.425  -7.511   0.285  0.00  0.00    +0.079 A 
ATOM      4  C   UNL     1      -4.225  -8.889   0.378  0.00  0.00    +0.100 A 
ATOM      5  N   UNL     1      -2.991  -9.363   0.349  0.00  0.00    -0.333 N 
ATOM      6  C   UNL     1      -1.948  -8.552   0.235  0.00  0.00    +0.195 A 
ATOM      7  N   UNL     1      -2.088  -7.238   0.139  0.00  0.00    -0.200 NA
ATOM      8  N   UNL     1      -0.677  -9.094   0.210  0.00  0.00    -0.315 N 
ATOM      9  H   UNL     1      -4.310  -4.902   0.168  0.00  0.00    +0.154 HD
ATOM     10  H   UNL     1       0.096  -8.514   0.127  0.00  0.00    +0.149 HD
ATOM     11  H   UNL     1      -2.846 -10.320   0.414  0.00  0.00    +0.168 HD
ENDROOT
BRANCH   1  16
ATOM     12  C   UNL     1      -0.189  -4.159  -1.232  0.00  0.00    +0.038 A 
ATOM     13  C   UNL     1      -0.101  -2.906  -0.638  0.00  0.00    +0.023 A 
ATOM     14  C   UNL     1      -1.115  -2.456   0.184  0.00  0.00    +0.004 A 
ATOM     15  C   UNL     1      -2.221  -3.250   0.420  0.00  0.00    +0.023 A 
ATOM     16  C   UNL     1      -2.316  -4.504  -0.170  0.00  0.00    +0.034 A 
ATOM     17  C   UNL     1      -1.301  -4.957  -1.002  0.00  0.00    +0.046 A 
BRANCH  12  21
ATOM     18  C   UNL     1       3.079  -5.605  -2.412  0.00  0.00    +0.109 C 
ATOM     19  C   UNL     1       2.019  -4.990  -1.534  0.00  0.00    +0.216 C 
ATOM     20  O   UNL     1       2.229  -4.835  -0.349  0.00  0.00    -0.276 OA
ATOM     21  N   UNL     1       0.839  -4.614  -2.064  0.00  0.00    -0.275 N 
ATOM     22  C   UNL     1       0.633  -4.680  -3.513  0.00  0.00    +0.138 C 
ENDBRANCH  12  21
ENDBRANCH   1  16
BRANCH   3  23
ATOM     23  C   UNL     1      -5.787  -6.939   0.313  0.00  0.00    +0.211 A 
ATOM     24  N   UNL     1      -6.934  -7.612   0.423  0.00  0.00    -0.106 NA
ATOM     25  N   UNL     1      -7.892  -6.749   0.409  0.00  0.00    -0.021 NA
ATOM     26  N   UNL     1      -7.397  -5.566   0.296  0.00  0.00    -0.021 NA
ATOM     27  N   UNL     1      -6.112  -5.646   0.240  0.00  0.00    -0.106 NA
ENDBRANCH   3  23
BRANCH   8  28
ATOM     28  C   UNL     1      -0.497 -10.544   0.309  0.00  0.00    +0.109 C 
BRANCH  28  29
ATOM     29  C   UNL     1       0.995 -10.878   0.257  0.00  0.00    +0.061 C 
BRANCH  29  30
ATOM     30  C   UNL     1       1.181 -12.370   0.358  0.00  0.00    -0.009 A 
ATOM     31  C   UNL     1       1.237 -13.293  -0.633  0.00  0.00    +0.011 A 
ATOM     32  C   UNL     1       1.416 -14.623  -0.301  0.00  0.00    +0.008 A 
ATOM     33  C   UNL     1       1.530 -14.965   1.005  0.00  0.00    +0.045 A 
ATOM     34  S   UNL     1       1.391 -13.380   1.815  0.00  0.00    -0.102 S 
ENDBRANCH  29  30
ENDBRANCH  28  29
ENDBRANCH   8  28
TORSDOF 6
