REMARK  Name = CHEMBL522618
REMARK  4 active torsions:
REMARK  status: ('A' for Active; 'I' for Inactive)
REMARK    1  A    between atoms: C_1  and  C_2
REMARK    2  A    between atoms: C_2  and  C_4
REMARK    3  A    between atoms: C_2  and  N_10
REMARK    4  A    between atoms: C_19  and  C_20
REMARK                            x       y       z     vdW  Elec       q    Type
REMARK                         _______ _______ _______ _____ _____    ______ ____
ROOT
ATOM      1  N   UNL     1       0.711  -0.489   1.189  0.00  0.00    -0.322 N 
ATOM      2  C   UNL     1       2.099  -0.604   1.173  0.00  0.00    +0.120 A 
ATOM      3  C   UNL     1       2.802  -0.250   0.031  0.00  0.00    +0.057 A 
ATOM      4  C   UNL     1       4.190  -0.371   0.037  0.00  0.00    +0.054 A 
ATOM      5  C   UNL     1       4.822  -0.847   1.199  0.00  0.00    +0.186 A 
ATOM      6  C   UNL     1       4.042  -1.178   2.297  0.00  0.00    +0.162 A 
ATOM      7  N   UNL     1       2.731  -1.044   2.252  0.00  0.00    -0.237 NA
ATOM      8  O   UNL     1       6.147  -0.871   0.950  0.00  0.00    -0.353 OA
ATOM      9  N   UNL     1       6.389  -0.415  -0.366  0.00  0.00    -0.077 NA
ATOM     10  C   UNL     1       5.256  -0.109  -0.941  0.00  0.00    +0.121 A 
ATOM     11  H   UNL     1       0.213  -0.731   1.986  0.00  0.00    +0.148 HD
ENDROOT
BRANCH  10  12
ATOM     12  C   UNL     1       5.079   0.406  -2.319  0.00  0.00    +0.008 A 
ATOM     13  C   UNL     1       3.959   0.038  -3.064  0.00  0.00    +0.014 A 
ATOM     14  C   UNL     1       3.795   0.517  -4.346  0.00  0.00    +0.050 A 
ATOM     15  C   UNL     1       4.742   1.365  -4.901  0.00  0.00    +0.166 A 
ATOM     16  C   UNL     1       5.864   1.736  -4.161  0.00  0.00    +0.167 A 
ATOM     17  C   UNL     1       6.030   1.263  -2.873  0.00  0.00    +0.059 A 
ATOM     18  O   UNL     1       6.634   2.567  -4.924  0.00  0.00    -0.453 OA
ATOM     19  C   UNL     1       6.182   2.374  -6.277  0.00  0.00    +0.466 C 
ATOM     20  O   UNL     1       4.810   1.964  -6.125  0.00  0.00    -0.453 OA
ENDBRANCH  10  12
BRANCH   1  22
ATOM     21  C   UNL     1      -0.019   1.526   0.010  0.00  0.00    +0.033 C 
ATOM     22  C   UNL     1       0.002  -0.004   0.002  0.00  0.00    +0.099 C 
BRANCH  22  23
ATOM     23  C   UNL     1      -1.412  -0.526   0.013  0.00  0.00    -0.028 A 
ATOM     24  C   UNL     1      -2.123  -0.571   1.197  0.00  0.00    +0.005 A 
ATOM     25  C   UNL     1      -3.420  -1.049   1.207  0.00  0.00    +0.000 A 
ATOM     26  C   UNL     1      -4.006  -1.482   0.032  0.00  0.00    +0.000 A 
ATOM     27  C   UNL     1      -3.295  -1.436  -1.153  0.00  0.00    +0.000 A 
ATOM     28  C   UNL     1      -2.000  -0.954  -1.163  0.00  0.00    +0.005 A 
ENDBRANCH  22  23
ENDBRANCH   1  22
TORSDOF 3
