REMARK  Name = CHEMBL1094408
REMARK  7 active torsions:
REMARK  status: ('A' for Active; 'I' for Inactive)
REMARK    1  A    between atoms: C_1  and  N_2
REMARK    2  A    between atoms: C_5  and  C_7
REMARK    3  A    between atoms: N_18  and  C_19
REMARK    4  A    between atoms: C_21  and  N_27
REMARK    5  A    between atoms: C_24  and  O_25
REMARK    6  A    between atoms: O_25  and  C_26
REMARK    7  A    between atoms: N_30  and  C_33
REMARK                            x       y       z     vdW  Elec       q    Type
REMARK                         _______ _______ _______ _____ _____    ______ ____
ROOT
ATOM      1  C   UNL     1       0.028   1.104  -0.058  0.00  0.00    +0.173 C 
ATOM      2  N   UNL     1       0.783  -0.151  -0.035  0.00  0.00    -0.264 N 
ATOM      3  C   UNL     1       1.285  -0.774  -1.118  0.00  0.00    +0.091 A 
ATOM      4  C   UNL     1       1.941  -1.900  -0.668  0.00  0.00    +0.012 A 
ATOM      5  C   UNL     1       1.773  -1.905   0.717  0.00  0.00    +0.151 A 
ATOM      6  N   UNL     1       1.074  -0.824   1.028  0.00  0.00    -0.166 NA
ATOM      7  C   UNL     1       2.665  -2.836  -1.592  0.00  0.00    +0.044 C 
ATOM      8  C   UNL     1       1.971  -2.858  -2.953  0.00  0.00    +0.043 C 
ATOM      9  C   UNL     1       1.624  -1.483  -3.445  0.00  0.00    -0.001 A 
ATOM     10  C   UNL     1       1.262  -0.460  -2.557  0.00  0.00    +0.097 A 
ATOM     11  N   UNL     1       0.925   0.732  -3.025  0.00  0.00    -0.212 NA
ATOM     12  C   UNL     1       0.951   0.965  -4.331  0.00  0.00    +0.220 A 
ATOM     13  N   UNL     1       1.311   0.028  -5.196  0.00  0.00    -0.222 NA
ATOM     14  C   UNL     1       1.647  -1.189  -4.795  0.00  0.00    +0.120 A 
ATOM     15  N   UNL     1       0.592   2.218  -4.801  0.00  0.00    -0.281 N 
ATOM     16  H   UNL     1       0.284   2.898  -4.183  0.00  0.00    +0.155 HD
ENDROOT
BRANCH  15  17
ATOM     17  C   UNL     1       0.675   2.502  -6.170  0.00  0.00    +0.077 A 
ATOM     18  C   UNL     1       0.406   1.510  -7.103  0.00  0.00    +0.050 A 
ATOM     19  C   UNL     1       0.488   1.795  -8.459  0.00  0.00    +0.032 A 
ATOM     20  C   UNL     1       0.839   3.071  -8.881  0.00  0.00    +0.027 A 
ATOM     21  C   UNL     1       1.108   4.059  -7.952  0.00  0.00    +0.049 A 
ATOM     22  C   UNL     1       1.021   3.781  -6.598  0.00  0.00    +0.141 A 
BRANCH  19  23
ATOM     23  N   UNL     1       0.217   0.797  -9.400  0.00  0.00    -0.333 N 
ATOM     24  C   UNL     1      -0.296  -0.518  -8.983  0.00  0.00    +0.086 C 
ATOM     25  C   UNL     1      -1.531  -0.848  -9.828  0.00  0.00    -0.060 C 
ATOM     26  N   UNL     1      -1.187  -0.756 -11.253  0.00  0.00    +0.380 N 
ATOM     27  C   UNL     1      -0.834   0.628 -11.594  0.00  0.00    -0.060 C 
ATOM     28  C   UNL     1       0.431   1.033 -10.837  0.00  0.00    +0.086 C 
ATOM     29  C   UNL     1      -2.338  -1.178 -12.061  0.00  0.00    -0.096 C 
ATOM     30  H   UNL     1      -0.403  -1.360 -11.448  0.00  0.00    -0.082 HD
ENDBRANCH  19  23
BRANCH  22  31
ATOM     31  O   UNL     1       1.280   4.757  -5.685  0.00  0.00    -0.493 OA
ATOM     32  C   UNL     1       1.629   6.045  -6.194  0.00  0.00    +0.277 C 
ENDBRANCH  22  31
ENDBRANCH  15  17
BRANCH   5  33
ATOM     33  C   UNL     1       2.284  -2.922   1.659  0.00  0.00    +0.262 C 
ATOM     34  O   UNL     1       2.921  -3.871   1.244  0.00  0.00    -0.269 OA
ATOM     35  N   UNL     1       2.045  -2.797   2.980  0.00  0.00    -0.324 N 
ATOM     36  H   UNL     1       1.537  -2.040   3.312  0.00  0.00    +0.145 HD
ATOM     37  H   UNL     1       2.380  -3.465   3.599  0.00  0.00    +0.145 HD
ENDBRANCH   5  33
TORSDOF 4
