REMARK  Name = CHEMBL606395
REMARK  5 active torsions:
REMARK  status: ('A' for Active; 'I' for Inactive)
REMARK    1  A    between atoms: C_1  and  O_2
REMARK    2  A    between atoms: O_2  and  C_3
REMARK    3  A    between atoms: C_6  and  N_9
REMARK    4  A    between atoms: C_19  and  O_26
REMARK    5  A    between atoms: O_26  and  C_27
REMARK                            x       y       z     vdW  Elec       q    Type
REMARK                         _______ _______ _______ _____ _____    ______ ____
ROOT
ATOM      1  N   UNL     1      -4.890  -2.581   0.034  0.00  0.00    -0.284 N 
ATOM      2  C   UNL     1      -4.946  -3.961  -0.072  0.00  0.00    +0.220 A 
ATOM      3  N   UNL     1      -3.816  -4.654  -0.074  0.00  0.00    -0.222 NA
ATOM      4  C   UNL     1      -3.832  -5.974  -0.171  0.00  0.00    +0.120 A 
ATOM      5  C   UNL     1      -5.048  -6.627  -0.272  0.00  0.00    +0.006 A 
ATOM      6  C   UNL     1      -6.217  -5.882  -0.273  0.00  0.00    +0.081 A 
ATOM      7  N   UNL     1      -6.126  -4.550  -0.163  0.00  0.00    -0.214 NA
ATOM      8  C   UNL     1      -7.559  -6.488  -0.394  0.00  0.00    +0.022 A 
ATOM      9  C   UNL     1      -8.493  -5.802  -1.187  0.00  0.00    +0.015 A 
ATOM     10  C   UNL     1      -9.764  -6.296  -1.361  0.00  0.00    +0.046 A 
ATOM     11  C   UNL     1     -10.133  -7.488  -0.748  0.00  0.00    +0.122 A 
ATOM     12  C   UNL     1      -9.222  -8.171   0.037  0.00  0.00    +0.069 A 
ATOM     13  C   UNL     1      -7.929  -7.677   0.224  0.00  0.00    +0.046 A 
ATOM     14  N   UNL     1      -7.092  -8.421   1.040  0.00  0.00    -0.285 N 
ATOM     15  C   UNL     1      -5.808  -8.681   0.820  0.00  0.00    +0.222 C 
ATOM     16  O   UNL     1      -5.207  -9.384   1.603  0.00  0.00    -0.275 OA
ATOM     17  C   UNL     1      -5.080  -8.128  -0.374  0.00  0.00    +0.135 C 
ATOM     18  H   UNL     1      -5.708  -2.067   0.122  0.00  0.00    +0.155 HD
ATOM     19  H   UNL     1      -7.481  -8.788   1.849  0.00  0.00    +0.155 HD
ENDROOT
BRANCH   1  23
ATOM     20  C   UNL     1      -1.203  -0.635  -0.025  0.00  0.00    +0.120 A 
ATOM     21  C   UNL     1      -1.391  -1.787  -0.773  0.00  0.00    +0.047 A 
ATOM     22  C   UNL     1      -2.611  -2.433  -0.754  0.00  0.00    +0.027 A 
ATOM     23  C   UNL     1      -3.651  -1.927   0.015  0.00  0.00    +0.034 A 
ATOM     24  C   UNL     1      -3.463  -0.774   0.764  0.00  0.00    +0.027 A 
ATOM     25  C   UNL     1      -2.240  -0.132   0.748  0.00  0.00    +0.047 A 
BRANCH  20  27
ATOM     26  C   UNL     1       1.022  -0.573  -0.861  0.00  0.00    +0.277 C 
ATOM     27  O   UNL     1      -0.001  -0.000  -0.043  0.00  0.00    -0.495 OA
ENDBRANCH  20  27
ENDBRANCH   1  23
BRANCH  11  28
ATOM     28  O   UNL     1     -11.386  -7.981  -0.919  0.00  0.00    -0.495 OA
ATOM     29  C   UNL     1     -12.274  -7.222  -1.743  0.00  0.00    +0.277 C 
ENDBRANCH  11  28
TORSDOF 3
