REMARK  Name = CHEMBL513909
REMARK  10 active torsions:
REMARK  status: ('A' for Active; 'I' for Inactive)
REMARK    1  A    between atoms: C_1  and  C_2
REMARK    2  A    between atoms: C_2  and  C_3
REMARK    3  A    between atoms: N_7  and  C_39
REMARK    4  A    between atoms: N_14  and  C_15
REMARK    5  A    between atoms: N_20  and  C_21
REMARK    6  A    between atoms: C_24  and  C_29
REMARK    7  A    between atoms: C_26  and  O_27
REMARK    8  A    between atoms: O_27  and  C_28
REMARK    9  A    between atoms: N_31  and  C_32
REMARK   10  A    between atoms: N_35  and  C_38
REMARK                            x       y       z     vdW  Elec       q    Type
REMARK                         _______ _______ _______ _____ _____    ______ ____
ROOT
ATOM      1  C   UNL     1      -1.397  -0.535   0.011  0.00  0.00    +0.161 C 
ATOM      2  C   UNL     1      -1.401  -2.038   0.125  0.00  0.00    +0.240 C 
ATOM      3  O   UNL     1      -1.403  -2.557   1.221  0.00  0.00    -0.273 OA
ATOM      4  N   UNL     1      -1.402  -2.811  -0.979  0.00  0.00    -0.269 N 
ATOM      5  C   UNL     1      -1.458  -2.227  -2.251  0.00  0.00    +0.095 A 
ATOM      6  C   UNL     1      -1.179  -2.952  -3.394  0.00  0.00    +0.141 A 
ATOM      7  N   UNL     1      -1.254  -2.342  -4.571  0.00  0.00    -0.221 NA
ATOM      8  C   UNL     1      -1.589  -1.064  -4.661  0.00  0.00    +0.221 A 
ATOM      9  N   UNL     1      -1.862  -0.334  -3.587  0.00  0.00    -0.197 NA
ATOM     10  C   UNL     1      -1.805  -0.876  -2.381  0.00  0.00    +0.149 A 
ATOM     11  N   UNL     1      -2.074  -0.141  -1.233  0.00  0.00    -0.299 N 
ATOM     12  N   UNL     1      -1.655  -0.472  -5.913  0.00  0.00    -0.281 N 
ATOM     13  C   UNL     1      -1.345  -4.269  -0.848  0.00  0.00    +0.138 C 
ATOM     14  H   UNL     1      -1.982   0.437  -6.003  0.00  0.00    +0.155 HD
ENDROOT
BRANCH  12  15
ATOM     15  C   UNL     1      -1.253  -1.183  -7.043  0.00  0.00    +0.076 A 
ATOM     16  C   UNL     1      -0.335  -2.220  -6.920  0.00  0.00    +0.028 A 
ATOM     17  C   UNL     1       0.065  -2.925  -8.033  0.00  0.00    +0.015 A 
ATOM     18  C   UNL     1      -0.452  -2.599  -9.290  0.00  0.00    +0.040 A 
ATOM     19  C   UNL     1      -1.375  -1.557  -9.415  0.00  0.00    +0.060 A 
ATOM     20  C   UNL     1      -1.777  -0.857  -8.295  0.00  0.00    +0.142 A 
BRANCH  18  21
ATOM     21  C   UNL     1      -0.024  -3.354 -10.484  0.00  0.00    +0.244 C 
ATOM     22  O   UNL     1      -0.474  -3.069 -11.577  0.00  0.00    -0.270 OA
ATOM     23  N   UNL     1       0.866  -4.359 -10.362  0.00  0.00    -0.309 N 
ATOM     24  H   UNL     1       1.226  -4.585  -9.490  0.00  0.00    +0.149 HD
BRANCH  23  25
ATOM     25  C   UNL     1       1.292  -5.108 -11.547  0.00  0.00    +0.070 C 
ATOM     26  C   UNL     1       0.293  -6.235 -11.826  0.00  0.00    +0.003 C 
ATOM     27  C   UNL     1       0.785  -7.062 -13.016  0.00  0.00    -0.077 C 
ATOM     28  N   UNL     1       2.100  -7.636 -12.707  0.00  0.00    +0.378 N 
ATOM     29  C   UNL     1       3.079  -6.561 -12.509  0.00  0.00    -0.077 C 
ATOM     30  C   UNL     1       2.676  -5.715 -11.300  0.00  0.00    +0.003 C 
ATOM     31  C   UNL     1       2.533  -8.492 -13.820  0.00  0.00    -0.096 C 
ATOM     32  H   UNL     1       2.035  -8.190 -11.866  0.00  0.00    -0.082 HD
ENDBRANCH  23  25
ENDBRANCH  18  21
BRANCH  20  33
ATOM     33  O   UNL     1      -2.679   0.154  -8.412  0.00  0.00    -0.493 OA
ATOM     34  C   UNL     1      -3.174   0.434  -9.724  0.00  0.00    +0.277 C 
ENDBRANCH  20  33
ENDBRANCH  12  15
BRANCH  11  35
ATOM     35  C   UNL     1      -3.002   0.992  -1.261  0.00  0.00    +0.076 C 
ATOM     36  C   UNL     1      -4.382   0.532  -1.774  0.00  0.00    +0.022 C 
ATOM     37  C   UNL     1      -4.886   1.722  -2.628  0.00  0.00    +0.002 C 
ATOM     38  C   UNL     1      -3.593   2.213  -3.326  0.00  0.00    +0.002 C 
ATOM     39  C   UNL     1      -2.500   2.061  -2.248  0.00  0.00    +0.022 C 
ENDBRANCH  11  35
BRANCH   1  41
ATOM     40  C   UNL     1       0.049   1.503  -0.001  0.00  0.00    +0.006 C 
ATOM     41  C   UNL     1       0.046  -0.027  -0.009  0.00  0.00    +0.028 C 
ENDBRANCH   1  41
TORSDOF 6
