REMARK  Name = CHEMBL477604
REMARK  8 active torsions:
REMARK  status: ('A' for Active; 'I' for Inactive)
REMARK    1  A    between atoms: C_1  and  C_2
REMARK    2  A    between atoms: C_2  and  C_3
REMARK    3  A    between atoms: C_2  and  N_9
REMARK    4  A    between atoms: C_13  and  C_25
REMARK    5  A    between atoms: C_14  and  N_16
REMARK    6  A    between atoms: N_16  and  C_17
REMARK    7  A    between atoms: C_21  and  O_23
REMARK    8  A    between atoms: O_23  and  C_24
REMARK                            x       y       z     vdW  Elec       q    Type
REMARK                         _______ _______ _______ _____ _____    ______ ____
ROOT
ATOM      1  N   UNL     1       0.693  -0.910  -1.035  0.00  0.00    -0.307 N 
ATOM      2  C   UNL     1       2.066  -0.807  -1.131  0.00  0.00    +0.217 A 
ATOM      3  N   UNL     1       2.745  -0.291  -0.114  0.00  0.00    -0.222 NA
ATOM      4  C   UNL     1       4.059  -0.172  -0.160  0.00  0.00    +0.136 A 
ATOM      5  C   UNL     1       4.740  -0.599  -1.305  0.00  0.00    +0.110 A 
ATOM      6  C   UNL     1       3.984  -1.142  -2.366  0.00  0.00    +0.146 A 
ATOM      7  N   UNL     1       2.666  -1.230  -2.234  0.00  0.00    -0.198 NA
ATOM      8  H   UNL     1       0.182  -1.289  -1.768  0.00  0.00    +0.149 HD
ENDROOT
BRANCH   1  10
ATOM      9  C   UNL     1      -0.262   1.053   0.067  0.00  0.00    +0.033 C 
ATOM     10  C   UNL     1       0.006  -0.450   0.174  0.00  0.00    +0.100 C 
BRANCH  10  11
ATOM     11  C   UNL     1      -1.302  -1.184   0.320  0.00  0.00    -0.027 A 
ATOM     12  C   UNL     1      -2.077  -1.442  -0.794  0.00  0.00    +0.005 A 
ATOM     13  C   UNL     1      -3.277  -2.116  -0.660  0.00  0.00    +0.000 A 
ATOM     14  C   UNL     1      -3.701  -2.532   0.588  0.00  0.00    +0.000 A 
ATOM     15  C   UNL     1      -2.924  -2.274   1.703  0.00  0.00    +0.000 A 
ATOM     16  C   UNL     1      -1.723  -1.605   1.568  0.00  0.00    +0.005 A 
ENDBRANCH  10  11
ENDBRANCH   1  10
BRANCH   6  17
ATOM     17  N   UNL     1       4.605  -1.580  -3.520  0.00  0.00    -0.298 N 
ATOM     18  H   UNL     1       5.574  -1.593  -3.574  0.00  0.00    +0.154 HD
BRANCH  17  19
ATOM     19  C   UNL     1       3.838  -2.003  -4.609  0.00  0.00    +0.036 A 
ATOM     20  C   UNL     1       2.634  -1.373  -4.898  0.00  0.00    +0.023 A 
ATOM     21  C   UNL     1       1.876  -1.792  -5.974  0.00  0.00    +0.005 A 
ATOM     22  C   UNL     1       2.313  -2.837  -6.766  0.00  0.00    +0.046 A 
ATOM     23  C   UNL     1       3.515  -3.470  -6.482  0.00  0.00    +0.122 A 
ATOM     24  C   UNL     1       4.281  -3.049  -5.407  0.00  0.00    +0.069 A 
BRANCH  23  25
ATOM     25  O   UNL     1       3.943  -4.497  -7.261  0.00  0.00    -0.495 OA
ATOM     26  C   UNL     1       3.105  -4.874  -8.356  0.00  0.00    +0.277 C 
ENDBRANCH  23  25
ENDBRANCH  17  19
ENDBRANCH   6  17
BRANCH   5  27
ATOM     27  C   UNL     1       6.165  -0.489  -1.398  0.00  0.00    +0.104 C 
ATOM     28  N   UNL     1       7.295  -0.401  -1.472  0.00  0.00    -0.191 NA
ENDBRANCH   5  27
TORSDOF 6
