REMARK  Name = CHEMBL597393
REMARK  6 active torsions:
REMARK  status: ('A' for Active; 'I' for Inactive)
REMARK    1  A    between atoms: C_1  and  O_2
REMARK    2  A    between atoms: O_2  and  C_3
REMARK    3  A    between atoms: N_19  and  C_20
REMARK    4  A    between atoms: C_23  and  O_27
REMARK    5  A    between atoms: C_24  and  O_26
REMARK    6  A    between atoms: O_27  and  C_28
REMARK                            x       y       z     vdW  Elec       q    Type
REMARK                         _______ _______ _______ _____ _____    ______ ____
ROOT
ATOM      1  C   UNL     1       0.079  -0.097  -1.718  0.00  0.00    +0.122 A 
ATOM      2  C   UNL     1       0.721   0.552  -2.767  0.00  0.00    +0.046 A 
ATOM      3  C   UNL     1       1.448  -0.174  -3.678  0.00  0.00    +0.015 A 
ATOM      4  C   UNL     1       1.554  -1.570  -3.562  0.00  0.00    +0.022 A 
ATOM      5  C   UNL     1       0.916  -2.220  -2.512  0.00  0.00    +0.046 A 
ATOM      6  C   UNL     1       0.181  -1.470  -1.591  0.00  0.00    +0.069 A 
ATOM      7  N   UNL     1       0.967  -3.588  -2.299  0.00  0.00    -0.285 N 
ATOM      8  C   UNL     1       0.871  -4.533  -3.228  0.00  0.00    +0.222 C 
ATOM      9  O   UNL     1       0.889  -5.697  -2.888  0.00  0.00    -0.275 OA
ATOM     10  C   UNL     1       0.741  -4.199  -4.688  0.00  0.00    +0.135 C 
ATOM     11  C   UNL     1       1.987  -3.486  -5.136  0.00  0.00    +0.006 A 
ATOM     12  C   UNL     1       2.353  -2.264  -4.594  0.00  0.00    +0.081 A 
ATOM     13  N   UNL     1       3.480  -1.684  -5.025  0.00  0.00    -0.214 NA
ATOM     14  C   UNL     1       4.223  -2.264  -5.953  0.00  0.00    +0.220 A 
ATOM     15  N   UNL     1       3.889  -3.428  -6.490  0.00  0.00    -0.222 NA
ATOM     16  C   UNL     1       2.789  -4.059  -6.108  0.00  0.00    +0.120 A 
ATOM     17  N   UNL     1       5.383  -1.635  -6.375  0.00  0.00    -0.283 N 
ATOM     18  H   UNL     1       1.085  -3.884  -1.383  0.00  0.00    +0.155 HD
ATOM     19  H   UNL     1       5.683  -0.825  -5.935  0.00  0.00    +0.155 HD
ENDROOT
BRANCH  17  20
ATOM     20  C   UNL     1       6.122  -2.171  -7.436  0.00  0.00    +0.037 A 
ATOM     21  C   UNL     1       5.472  -2.818  -8.479  0.00  0.00    +0.027 A 
ATOM     22  C   UNL     1       6.200  -3.347  -9.527  0.00  0.00    +0.051 A 
ATOM     23  C   UNL     1       7.581  -3.234  -9.541  0.00  0.00    +0.161 A 
ATOM     24  C   UNL     1       8.236  -2.586  -8.498  0.00  0.00    +0.160 A 
ATOM     25  C   UNL     1       7.505  -2.051  -7.450  0.00  0.00    +0.072 A 
BRANCH  24  26
ATOM     26  O   UNL     1       9.591  -2.475  -8.510  0.00  0.00    -0.503 OA
ATOM     27  H   UNL     1       9.916  -1.676  -8.947  0.00  0.00    +0.292 HD
ENDBRANCH  24  26
BRANCH  23  28
ATOM     28  O   UNL     1       8.297  -3.756 -10.573  0.00  0.00    -0.491 OA
ATOM     29  C   UNL     1       7.560  -4.408 -11.610  0.00  0.00    +0.277 C 
ENDBRANCH  23  28
ENDBRANCH  17  20
BRANCH   1  31
ATOM     30  C   UNL     1      -0.704   2.032  -1.009  0.00  0.00    +0.277 C 
ATOM     31  O   UNL     1      -0.642   0.617  -0.816  0.00  0.00    -0.495 OA
ENDBRANCH   1  31
TORSDOF 4
