REMARK  Name = CHEMBL1222044
REMARK  4 active torsions:
REMARK  status: ('A' for Active; 'I' for Inactive)
REMARK    1  A    between atoms: C_2  and  S_17
REMARK    2  A    between atoms: C_4  and  N_14
REMARK    3  A    between atoms: C_9  and  C_11
REMARK    4  A    between atoms: S_17  and  C_18
REMARK                            x       y       z     vdW  Elec       q    Type
REMARK                         _______ _______ _______ _____ _____    ______ ____
ROOT
ATOM      1  C   UNL     1      -0.017   1.414   0.010  0.00  0.00    +0.045 A 
ATOM      2  C   UNL     1       1.158   2.127   0.002  0.00  0.00    +0.020 A 
ATOM      3  C   UNL     1       2.398   1.487  -0.013  0.00  0.00    +0.049 A 
ATOM      4  C   UNL     1       2.450   0.118  -0.021  0.00  0.00    +0.143 A 
ATOM      5  C   UNL     1       1.284  -0.610  -0.013  0.00  0.00    +0.071 A 
ATOM      6  C   UNL     1       0.002  -0.004   0.002  0.00  0.00    +0.103 A 
ATOM      7  N   UNL     1      -1.039  -0.845   0.007  0.00  0.00    -0.120 N 
ATOM      8  O   UNL     1      -2.347  -0.304   0.022  0.00  0.00    -0.163 OA
ATOM      9  C   UNL     1      -0.897  -2.153  -0.002  0.00  0.00    +0.185 A 
ATOM     10  S   UNL     1       0.880  -2.341  -0.019  0.00  0.00    -0.059 S 
ENDROOT
BRANCH   9  11
ATOM     11  C   UNL     1      -1.938  -3.196   0.002  0.00  0.00    +0.268 C 
ATOM     12  O   UNL     1      -3.113  -2.882   0.015  0.00  0.00    -0.268 OA
ATOM     13  N   UNL     1      -1.588  -4.497  -0.010  0.00  0.00    -0.324 N 
ATOM     14  H   UNL     1      -0.651  -4.747  -0.020  0.00  0.00    +0.145 HD
ATOM     15  H   UNL     1      -2.273  -5.184  -0.007  0.00  0.00    +0.145 HD
ENDBRANCH   9  11
BRANCH   4  16
ATOM     16  N   UNL     1       3.758  -0.576  -0.038  0.00  0.00    +0.058 N 
ATOM     17  O   UNL     1       4.782   0.066  -0.045  0.00  0.00    -0.126 OA
ATOM     18  O   UNL     1       3.802  -1.784  -0.045  0.00  0.00    -0.126 OA
ENDBRANCH   4  16
BRANCH   2  19
ATOM     19  S   UNL     1       1.098   3.888   0.012  0.00  0.00    -0.016 S 
BRANCH  19  20
ATOM     20  C   UNL     1       2.841   4.387  -0.002  0.00  0.00    +0.448 C 
ATOM     21  F   UNL     1       3.460   3.888  -1.153  0.00  0.00    -0.160 F 
ATOM     22  F   UNL     1       2.927   5.784   0.005  0.00  0.00    -0.160 F 
ATOM     23  F   UNL     1       3.482   3.875   1.132  0.00  0.00    -0.160 F 
ENDBRANCH  19  20
ENDBRANCH   2  19
TORSDOF 4
