REMARK  Name = CHEMBL1208894
REMARK  7 active torsions:
REMARK  status: ('A' for Active; 'I' for Inactive)
REMARK    1  A    between atoms: C_1  and  C_2
REMARK    2  A    between atoms: C_2  and  C_4
REMARK    3  A    between atoms: C_2  and  O_11
REMARK    4  A    between atoms: O_11  and  C_12
REMARK    5  A    between atoms: C_14  and  N_20
REMARK    6  A    between atoms: C_16  and  C_17
REMARK    7  A    between atoms: C_27  and  C_29
REMARK                            x       y       z     vdW  Elec       q    Type
REMARK                         _______ _______ _______ _____ _____    ______ ____
ROOT
ATOM      1  N   UNL     1       4.798  -0.520  -1.379  0.00  0.00    -0.292 N 
ATOM      2  C   UNL     1       4.564  -0.917  -2.663  0.00  0.00    +0.205 A 
ATOM      3  N   UNL     1       5.582  -0.616  -3.416  0.00  0.00    -0.235 NA
ATOM      4  C   UNL     1       6.539  -0.006  -2.670  0.00  0.00    +0.090 A 
ATOM      5  C   UNL     1       6.049   0.069  -1.354  0.00  0.00    +0.074 A 
ATOM      6  C   UNL     1       6.816   0.656  -0.356  0.00  0.00    +0.029 A 
ATOM      7  C   UNL     1       8.050   1.165  -0.651  0.00  0.00    +0.010 A 
ATOM      8  C   UNL     1       8.551   1.101  -1.954  0.00  0.00    -0.016 A 
ATOM      9  C   UNL     1       7.801   0.510  -2.963  0.00  0.00    +0.038 A 
ENDROOT
BRANCH   8  10
ATOM     10  C   UNL     1       9.892   1.658  -2.259  0.00  0.00    -0.013 A 
ATOM     11  C   UNL     1      10.411   1.610  -3.558  0.00  0.00    +0.026 A 
ATOM     12  C   UNL     1      11.660   2.138  -3.803  0.00  0.00    +0.085 A 
ATOM     13  N   UNL     1      12.368   2.685  -2.832  0.00  0.00    -0.350 N 
ATOM     14  C   UNL     1      11.917   2.753  -1.589  0.00  0.00    +0.099 A 
ATOM     15  C   UNL     1      10.665   2.248  -1.260  0.00  0.00    +0.050 A 
ATOM     16  N   UNL     1      12.702   3.339  -0.603  0.00  0.00    -0.320 N 
ATOM     17  C   UNL     1      12.294   3.305   0.810  0.00  0.00    +0.087 C 
ATOM     18  C   UNL     1      13.473   2.796   1.645  0.00  0.00    -0.063 C 
ATOM     19  N   UNL     1      14.656   3.625   1.376  0.00  0.00    +0.381 N 
ATOM     20  C   UNL     1      15.067   3.469  -0.025  0.00  0.00    -0.063 C 
ATOM     21  C   UNL     1      13.969   4.006  -0.942  0.00  0.00    +0.087 C 
ATOM     22  H   UNL     1      14.434   4.593   1.554  0.00  0.00    -0.086 HD
ATOM     23  H   UNL     1      15.411   3.337   1.980  0.00  0.00    -0.086 HD
ATOM     24  H   UNL     1      13.244   3.048  -3.035  0.00  0.00    +0.166 HD
ENDBRANCH   8  10
BRANCH   1  27
ATOM     25  C   UNL     1       1.943  -0.594   0.971  0.00  0.00    +0.143 A 
ATOM     26  C   UNL     1       2.610  -0.353  -0.205  0.00  0.00    +0.080 A 
ATOM     27  C   UNL     1       3.937  -0.676  -0.298  0.00  0.00    +0.090 A 
ATOM     28  S   UNL     1       4.282  -1.346   1.320  0.00  0.00    -0.062 S 
ATOM     29  C   UNL     1       2.654  -1.157   2.029  0.00  0.00    +0.117 A 
BRANCH  29  30
ATOM     30  C   UNL     1       2.204  -1.492   3.326  0.00  0.00    +0.252 C 
ATOM     31  O   UNL     1       1.044  -1.291   3.638  0.00  0.00    -0.270 OA
ATOM     32  N   UNL     1       3.058  -2.033   4.217  0.00  0.00    -0.325 N 
ATOM     33  H   UNL     1       3.982  -2.193   3.968  0.00  0.00    +0.145 HD
ATOM     34  H   UNL     1       2.748  -2.263   5.107  0.00  0.00    +0.145 HD
ENDBRANCH  29  30
BRANCH  25  35
ATOM     35  O   UNL     1       0.626  -0.288   1.101  0.00  0.00    -0.483 OA
BRANCH  35  37
ATOM     36  C   UNL     1       0.157   1.688  -0.209  0.00  0.00    +0.057 C 
ATOM     37  C   UNL     1      -0.050   0.179  -0.069  0.00  0.00    +0.202 C 
BRANCH  37  38
ATOM     38  C   UNL     1      -1.522  -0.117   0.051  0.00  0.00    +0.011 A 
ATOM     39  C   UNL     1      -2.102  -0.250   1.298  0.00  0.00    +0.008 A 
ATOM     40  C   UNL     1      -3.453  -0.521   1.408  0.00  0.00    +0.000 A 
ATOM     41  C   UNL     1      -4.225  -0.660   0.270  0.00  0.00    +0.001 A 
ATOM     42  C   UNL     1      -3.647  -0.528  -0.979  0.00  0.00    +0.020 A 
ATOM     43  C   UNL     1      -2.296  -0.251  -1.089  0.00  0.00    +0.048 A 
ATOM     44 CL   UNL     1      -1.570  -0.078  -2.656  0.00  0.00    -0.083 Cl
ENDBRANCH  37  38
ENDBRANCH  35  37
ENDBRANCH  25  35
ENDBRANCH   1  27
TORSDOF 6
