REMARK  Name = CHEMBL482349
REMARK  9 active torsions:
REMARK  status: ('A' for Active; 'I' for Inactive)
REMARK    1  A    between atoms: C_1  and  O_2
REMARK    2  A    between atoms: O_2  and  C_3
REMARK    3  A    between atoms: C_8  and  O_9
REMARK    4  A    between atoms: O_9  and  C_10
REMARK    5  A    between atoms: N_11  and  C_14
REMARK    6  A    between atoms: C_16  and  O_22
REMARK    7  A    between atoms: C_17  and  C_19
REMARK    8  A    between atoms: O_22  and  C_23
REMARK    9  A    between atoms: C_23  and  C_24
REMARK                            x       y       z     vdW  Elec       q    Type
REMARK                         _______ _______ _______ _____ _____    ______ ____
ROOT
ATOM      1  C   UNL     1      -5.516  -3.583   0.036  0.00  0.00    +0.090 A 
ATOM      2  C   UNL     1      -6.473  -4.117   0.856  0.00  0.00    +0.080 A 
ATOM      3  C   UNL     1      -6.849  -5.426   0.681  0.00  0.00    +0.142 A 
ATOM      4  C   UNL     1      -6.233  -6.159  -0.332  0.00  0.00    +0.117 A 
ATOM      5  S   UNL     1      -5.119  -4.954  -1.034  0.00  0.00    -0.062 S 
ENDROOT
BRANCH   1  12
ATOM      6  C   UNL     1      -1.202  -0.638   0.010  0.00  0.00    +0.164 A 
ATOM      7  C   UNL     1      -2.366   0.101   0.019  0.00  0.00    +0.079 A 
ATOM      8  C   UNL     1      -3.603  -0.551   0.027  0.00  0.00    +0.093 A 
ATOM      9  C   UNL     1      -3.647  -1.955   0.026  0.00  0.00    +0.078 A 
ATOM     10  C   UNL     1      -2.469  -2.688   0.016  0.00  0.00    +0.077 A 
ATOM     11  C   UNL     1      -1.251  -2.033   0.003  0.00  0.00    +0.164 A 
ATOM     12  N   UNL     1      -4.989  -2.294   0.035  0.00  0.00    -0.292 N 
ATOM     13  C   UNL     1      -5.700  -1.129   0.041  0.00  0.00    +0.205 A 
ATOM     14  N   UNL     1      -4.889  -0.112   0.037  0.00  0.00    -0.235 NA
BRANCH   6  16
ATOM     15  C   UNL     1      -0.017   1.425   0.010  0.00  0.00    +0.277 C 
ATOM     16  O   UNL     1       0.002  -0.004   0.002  0.00  0.00    -0.491 OA
ENDBRANCH   6  16
BRANCH  11  17
ATOM     17  O   UNL     1      -0.096  -2.752  -0.011  0.00  0.00    -0.491 OA
ATOM     18  C   UNL     1      -0.218  -4.176  -0.018  0.00  0.00    +0.277 C 
ENDBRANCH  11  17
ENDBRANCH   1  12
BRANCH   4  19
ATOM     19  C   UNL     1      -6.442  -7.505  -0.710  0.00  0.00    +0.252 C 
ATOM     20  O   UNL     1      -7.258  -8.185  -0.113  0.00  0.00    -0.270 OA
ATOM     21  N   UNL     1      -5.738  -8.035  -1.729  0.00  0.00    -0.325 N 
ATOM     22  H   UNL     1      -5.089  -7.494  -2.204  0.00  0.00    +0.145 HD
ATOM     23  H   UNL     1      -5.881  -8.959  -1.988  0.00  0.00    +0.145 HD
ENDBRANCH   4  19
BRANCH   3  24
ATOM     24  O   UNL     1      -7.794  -5.991   1.474  0.00  0.00    -0.483 OA
BRANCH  24  25
ATOM     25  C   UNL     1      -8.371  -5.164   2.487  0.00  0.00    +0.303 C 
BRANCH  25  26
ATOM     26  C   UNL     1      -9.392  -5.957   3.262  0.00  0.00    +0.142 A 
ATOM     27  C   UNL     1      -9.150  -6.682   4.369  0.00  0.00    +0.048 A 
ATOM     28  C   UNL     1     -10.382  -7.254   4.761  0.00  0.00    +0.041 A 
ATOM     29  C   UNL     1     -11.303  -6.844   3.870  0.00  0.00    +0.195 A 
ATOM     30  O   UNL     1     -10.699  -6.054   2.968  0.00  0.00    -0.464 OA
ENDBRANCH  25  26
ENDBRANCH  24  25
ENDBRANCH   3  24
TORSDOF 7
