REMARK  Name = CHEMBL477615
REMARK  11 active torsions:
REMARK  status: ('A' for Active; 'I' for Inactive)
REMARK    1  A    between atoms: C_1  and  C_2
REMARK    2  A    between atoms: C_2  and  C_3
REMARK    3  A    between atoms: C_3  and  O_4
REMARK    4  A    between atoms: O_4  and  C_5
REMARK    5  A    between atoms: C_5  and  C_7
REMARK    6  A    between atoms: C_7  and  C_25
REMARK    7  A    between atoms: N_9  and  C_23
REMARK    8  A    between atoms: C_13  and  N_14
REMARK    9  A    between atoms: N_14  and  C_15
REMARK   10  A    between atoms: C_18  and  O_21
REMARK   11  A    between atoms: C_23  and  C_24
REMARK                            x       y       z     vdW  Elec       q    Type
REMARK                         _______ _______ _______ _____ _____    ______ ____
ROOT
ATOM      1  C   UNL     1      -2.668  -4.073   0.455  0.00  0.00    +0.166 C 
ATOM      2  C   UNL     1      -3.905  -4.691   0.229  0.00  0.00    +0.108 A 
ATOM      3  N   UNL     1      -4.145  -6.001  -0.079  0.00  0.00    -0.301 N 
ATOM      4  C   UNL     1      -5.387  -6.424  -0.262  0.00  0.00    +0.267 A 
ATOM      5  O   UNL     1      -5.644  -7.583  -0.537  0.00  0.00    -0.266 OA
ATOM      6  C   UNL     1      -6.403  -5.437  -0.116  0.00  0.00    +0.092 A 
ATOM      7  C   UNL     1      -7.749  -5.562  -0.241  0.00  0.00    +0.092 C 
ATOM      8  S   UNL     1      -5.433  -3.992   0.281  0.00  0.00    -0.063 S 
ENDROOT
BRANCH   1   9
ATOM      9  C   UNL     1      -2.600  -2.671   0.639  0.00  0.00    +0.352 C 
ATOM     10  O   UNL     1      -3.617  -2.003   0.602  0.00  0.00    -0.244 OA
BRANCH   9  11
ATOM     11  O   UNL     1      -1.409  -2.076   0.857  0.00  0.00    -0.461 OA
BRANCH  11  12
ATOM     12  C   UNL     1      -1.415  -0.658   1.035  0.00  0.00    +0.232 C 
BRANCH  12  14
ATOM     13  C   UNL     1       0.009   1.351   1.459  0.00  0.00    +0.007 C 
ATOM     14  C   UNL     1       0.016  -0.167   1.269  0.00  0.00    +0.038 C 
ENDBRANCH  12  14
ENDBRANCH  11  12
ENDBRANCH   9  11
ENDBRANCH   1   9
BRANCH   7  15
ATOM     15  N   UNL     1      -8.297  -6.776  -0.549  0.00  0.00    -0.319 N 
ATOM     16  H   UNL     1      -7.724  -7.548  -0.679  0.00  0.00    +0.152 HD
BRANCH  15  17
ATOM     17  C   UNL     1      -9.684  -6.905  -0.678  0.00  0.00    +0.031 A 
ATOM     18  C   UNL     1     -10.505  -5.799  -0.497  0.00  0.00    +0.027 A 
ATOM     19  C   UNL     1     -11.874  -5.927  -0.624  0.00  0.00    +0.047 A 
ATOM     20  C   UNL     1     -12.430  -7.160  -0.931  0.00  0.00    +0.117 A 
ATOM     21  C   UNL     1     -11.611  -8.266  -1.111  0.00  0.00    +0.047 A 
ATOM     22  C   UNL     1     -10.242  -8.138  -0.991  0.00  0.00    +0.027 A 
BRANCH  20  23
ATOM     23  O   UNL     1     -13.778  -7.285  -1.055  0.00  0.00    -0.507 OA
ATOM     24  H   UNL     1     -14.106  -7.135  -1.952  0.00  0.00    +0.292 HD
ENDBRANCH  20  23
ENDBRANCH  15  17
ENDBRANCH   7  15
BRANCH   3  25
ATOM     25  C   UNL     1      -3.027  -6.939  -0.207  0.00  0.00    +0.122 C 
ATOM     26  C   UNL     1      -2.649  -7.473   1.176  0.00  0.00    +0.027 C 
ENDBRANCH   3  25
BRANCH   1  27
ATOM     27  C   UNL     1      -1.472  -4.860   0.499  0.00  0.00    +0.109 C 
ATOM     28  N   UNL     1      -0.523  -5.484   0.534  0.00  0.00    -0.191 NA
ENDBRANCH   1  27
TORSDOF 9
