REMARK  Name = CHEMBL1096095
REMARK  5 active torsions:
REMARK  status: ('A' for Active; 'I' for Inactive)
REMARK    1  A    between atoms: C_1  and  N_2
REMARK    2  A    between atoms: C_5  and  C_7
REMARK    3  A    between atoms: N_18  and  C_19
REMARK    4  A    between atoms: C_24  and  O_25
REMARK    5  A    between atoms: O_25  and  C_26
REMARK                            x       y       z     vdW  Elec       q    Type
REMARK                         _______ _______ _______ _____ _____    ______ ____
ROOT
ATOM      1  C   UNL     1      -0.869   1.602  -0.181  0.00  0.00    +0.173 C 
ATOM      2  N   UNL     1      -0.118   0.376   0.098  0.00  0.00    -0.264 N 
ATOM      3  C   UNL     1       0.560  -0.343  -0.817  0.00  0.00    +0.091 A 
ATOM      4  C   UNL     1       1.141  -1.400  -0.149  0.00  0.00    +0.012 A 
ATOM      5  C   UNL     1       0.747  -1.266   1.182  0.00  0.00    +0.151 A 
ATOM      6  N   UNL     1      -0.002  -0.177   1.259  0.00  0.00    -0.166 NA
ATOM      7  C   UNL     1       2.015  -2.408  -0.838  0.00  0.00    +0.044 C 
ATOM      8  C   UNL     1       1.554  -2.588  -2.285  0.00  0.00    +0.043 C 
ATOM      9  C   UNL     1       1.283  -1.280  -2.970  0.00  0.00    -0.001 A 
ATOM     10  C   UNL     1       0.772  -0.180  -2.266  0.00  0.00    +0.097 A 
ATOM     11  N   UNL     1       0.507   0.949  -2.906  0.00  0.00    -0.212 NA
ATOM     12  C   UNL     1       0.747   1.047  -4.208  0.00  0.00    +0.220 A 
ATOM     13  N   UNL     1       1.252   0.035  -4.898  0.00  0.00    -0.222 NA
ATOM     14  C   UNL     1       1.526  -1.126  -4.322  0.00  0.00    +0.120 A 
ATOM     15  N   UNL     1       0.462   2.235  -4.860  0.00  0.00    -0.281 N 
ATOM     16  H   UNL     1      -0.007   2.944  -4.393  0.00  0.00    +0.155 HD
ENDROOT
BRANCH  15  17
ATOM     17  C   UNL     1       0.850   2.412  -6.193  0.00  0.00    +0.076 A 
ATOM     18  C   UNL     1       0.826   1.340  -7.073  0.00  0.00    +0.027 A 
ATOM     19  C   UNL     1       1.210   1.518  -8.389  0.00  0.00    +0.002 A 
ATOM     20  C   UNL     1       1.619   2.762  -8.832  0.00  0.00    +0.004 A 
ATOM     21  C   UNL     1       1.646   3.835  -7.961  0.00  0.00    +0.048 A 
ATOM     22  C   UNL     1       1.257   3.667  -6.641  0.00  0.00    +0.150 A 
BRANCH  22  23
ATOM     23  O   UNL     1       1.277   4.723  -5.785  0.00  0.00    -0.454 OA
BRANCH  23  24
ATOM     24  C   UNL     1       1.541   5.954  -6.296  0.00  0.00    +0.129 A 
ATOM     25  C   UNL     1       0.557   6.643  -6.992  0.00  0.00    +0.046 A 
ATOM     26  C   UNL     1       0.828   7.895  -7.510  0.00  0.00    +0.004 A 
ATOM     27  C   UNL     1       2.077   8.461  -7.337  0.00  0.00    +0.000 A 
ATOM     28  C   UNL     1       3.059   7.777  -6.644  0.00  0.00    +0.004 A 
ATOM     29  C   UNL     1       2.792   6.527  -6.119  0.00  0.00    +0.046 A 
ENDBRANCH  23  24
ENDBRANCH  22  23
ENDBRANCH  15  17
BRANCH   5  30
ATOM     30  C   UNL     1       1.103  -2.167   2.297  0.00  0.00    +0.262 C 
ATOM     31  O   UNL     1       1.807  -3.138   2.094  0.00  0.00    -0.269 OA
ATOM     32  N   UNL     1       0.648  -1.914   3.541  0.00  0.00    -0.324 N 
ATOM     33  H   UNL     1       0.087  -1.139   3.703  0.00  0.00    +0.145 HD
ATOM     34  H   UNL     1       0.882  -2.505   4.273  0.00  0.00    +0.145 HD
ENDBRANCH   5  30
TORSDOF 4
