REMARK  Name = CHEMBL1208965
REMARK  9 active torsions:
REMARK  status: ('A' for Active; 'I' for Inactive)
REMARK    1  A    between atoms: C_1  and  C_2
REMARK    2  A    between atoms: C_2  and  C_4
REMARK    3  A    between atoms: C_2  and  O_11
REMARK    4  A    between atoms: O_11  and  C_12
REMARK    5  A    between atoms: C_14  and  N_20
REMARK    6  A    between atoms: C_16  and  C_17
REMARK    7  A    between atoms: C_27  and  C_29
REMARK    8  A    between atoms: N_35  and  C_36
REMARK    9  A    between atoms: N_39  and  C_42
REMARK                            x       y       z     vdW  Elec       q    Type
REMARK                         _______ _______ _______ _____ _____    ______ ____
ROOT
ATOM      1  N   UNL     1      -3.580  -0.726  -3.512  0.00  0.00    -0.292 N 
ATOM      2  C   UNL     1      -4.565  -1.132  -2.661  0.00  0.00    +0.205 A 
ATOM      3  N   UNL     1      -5.732  -0.839  -3.155  0.00  0.00    -0.235 NA
ATOM      4  C   UNL     1      -5.580  -0.224  -4.357  0.00  0.00    +0.090 A 
ATOM      5  C   UNL     1      -4.198  -0.137  -4.602  0.00  0.00    +0.074 A 
ATOM      6  C   UNL     1      -3.732   0.456  -5.768  0.00  0.00    +0.029 A 
ATOM      7  C   UNL     1      -4.624   0.963  -6.686  0.00  0.00    +0.011 A 
ATOM      8  C   UNL     1      -6.000   0.885  -6.451  0.00  0.00    -0.014 A 
ATOM      9  C   UNL     1      -6.479   0.287  -5.293  0.00  0.00    +0.038 A 
ENDROOT
BRANCH   8  10
ATOM     10  C   UNL     1      -6.952   1.435  -7.447  0.00  0.00    +0.000 A 
ATOM     11  C   UNL     1      -6.483   2.028  -8.625  0.00  0.00    +0.013 A 
ATOM     12  C   UNL     1      -7.406   2.526  -9.522  0.00  0.00    +0.044 A 
ATOM     13  C   UNL     1      -8.763   2.423  -9.229  0.00  0.00    +0.119 A 
ATOM     14  N   UNL     1      -9.174   1.856  -8.105  0.00  0.00    -0.240 NA
ATOM     15  C   UNL     1      -8.324   1.364  -7.225  0.00  0.00    +0.121 A 
ATOM     16  N   UNL     1      -9.699   2.921 -10.127  0.00  0.00    -0.326 N 
ATOM     17  H   UNL     1     -10.646   2.853  -9.929  0.00  0.00    +0.148 HD
BRANCH  16  18
ATOM     18  C   UNL     1      -9.255   3.550 -11.374  0.00  0.00    +0.068 C 
ATOM     19  C   UNL     1      -8.943   5.028 -11.119  0.00  0.00    +0.003 C 
ATOM     20  C   UNL     1      -8.557   5.697 -12.440  0.00  0.00    -0.077 C 
ATOM     21  N   UNL     1      -9.669   5.587 -13.392  0.00  0.00    +0.378 N 
ATOM     22  C   UNL     1      -9.926   4.174 -13.696  0.00  0.00    -0.077 C 
ATOM     23  C   UNL     1     -10.365   3.446 -12.424  0.00  0.00    +0.003 C 
ATOM     24  C   UNL     1      -9.323   6.298 -14.630  0.00  0.00    -0.096 C 
ATOM     25  H   UNL     1     -10.497   5.999 -12.989  0.00  0.00    -0.082 HD
ENDBRANCH  16  18
ENDBRANCH   8  10
BRANCH   1  28
ATOM     26  C   UNL     1      -0.106  -0.774  -2.243  0.00  0.00    +0.143 A 
ATOM     27  C   UNL     1      -1.460  -0.544  -2.221  0.00  0.00    +0.080 A 
ATOM     28  C   UNL     1      -2.210  -0.870  -3.319  0.00  0.00    +0.090 A 
ATOM     29  S   UNL     1      -0.985  -1.527  -4.439  0.00  0.00    -0.062 S 
ATOM     30  C   UNL     1       0.450  -1.329  -3.395  0.00  0.00    +0.117 A 
BRANCH  30  31
ATOM     31  C   UNL     1       1.798  -1.652  -3.665  0.00  0.00    +0.252 C 
ATOM     32  O   UNL     1       2.655  -1.447  -2.823  0.00  0.00    -0.270 OA
ATOM     33  N   UNL     1       2.138  -2.187  -4.855  0.00  0.00    -0.325 N 
ATOM     34  H   UNL     1       1.456  -2.350  -5.525  0.00  0.00    +0.145 HD
ATOM     35  H   UNL     1       3.063  -2.409  -5.040  0.00  0.00    +0.145 HD
ENDBRANCH  30  31
BRANCH  26  36
ATOM     36  O   UNL     1       0.671  -0.465  -1.174  0.00  0.00    -0.483 OA
BRANCH  36  38
ATOM     37  C   UNL     1      -0.237   1.501  -0.101  0.00  0.00    +0.057 C 
ATOM     38  C   UNL     1       0.002  -0.006   0.003  0.00  0.00    +0.202 C 
BRANCH  38  39
ATOM     39  C   UNL     1       0.855  -0.297   1.211  0.00  0.00    +0.011 A 
ATOM     40  C   UNL     1       2.226  -0.417   1.077  0.00  0.00    +0.008 A 
ATOM     41  C   UNL     1       3.009  -0.683   2.184  0.00  0.00    +0.000 A 
ATOM     42  C   UNL     1       2.421  -0.831   3.427  0.00  0.00    +0.001 A 
ATOM     43  C   UNL     1       1.051  -0.711   3.563  0.00  0.00    +0.020 A 
ATOM     44  C   UNL     1       0.268  -0.439   2.455  0.00  0.00    +0.048 A 
ATOM     45 CL   UNL     1      -1.453  -0.282   2.626  0.00  0.00    -0.083 Cl
ENDBRANCH  38  39
ENDBRANCH  36  38
ENDBRANCH  26  36
ENDBRANCH   1  28
TORSDOF 7
