REMARK  Name = CHEMBL242237
REMARK  4 active torsions:
REMARK  status: ('A' for Active; 'I' for Inactive)
REMARK    1  A    between atoms: C_4  and  N_10
REMARK    2  A    between atoms: C_5  and  C_7
REMARK    3  A    between atoms: N_17  and  C_18
REMARK    4  A    between atoms: C_22  and  O_24
REMARK                            x       y       z     vdW  Elec       q    Type
REMARK                         _______ _______ _______ _____ _____    ______ ____
ROOT
ATOM      1  N   UNL     1       3.676  -0.657   0.458  0.00  0.00    -0.299 N 
ATOM      2  C   UNL     1       4.844   0.020   0.141  0.00  0.00    +0.128 A 
ATOM      3  C   UNL     1       4.834   1.405  -0.039  0.00  0.00    +0.063 A 
ATOM      4  C   UNL     1       6.021   2.037  -0.354  0.00  0.00    +0.118 A 
ATOM      5  N   UNL     1       7.126   1.317  -0.476  0.00  0.00    -0.223 NA
ATOM      6  C   UNL     1       7.107   0.005  -0.299  0.00  0.00    +0.221 A 
ATOM      7  N   UNL     1       5.991  -0.639   0.009  0.00  0.00    -0.199 NA
ATOM      8  N   UNL     1       8.284  -0.713  -0.435  0.00  0.00    -0.283 N 
ATOM      9  H   UNL     1       3.691  -1.620   0.576  0.00  0.00    +0.154 HD
ATOM     10  H   UNL     1       8.270  -1.681  -0.389  0.00  0.00    +0.155 HD
ENDROOT
BRANCH   1  14
ATOM     11  C   UNL     1       0.105   1.445   0.906  0.00  0.00    +0.001 A 
ATOM     12  C   UNL     1       0.868   1.119   2.016  0.00  0.00    +0.002 A 
ATOM     13  C   UNL     1       2.051   0.423   1.871  0.00  0.00    +0.024 A 
ATOM     14  C   UNL     1       2.485   0.044   0.607  0.00  0.00    +0.045 A 
ATOM     15  C   UNL     1       1.714   0.372  -0.519  0.00  0.00    +0.058 A 
ATOM     16  C   UNL     1       0.519   1.077  -0.356  0.00  0.00    +0.015 A 
BRANCH  15  17
ATOM     17  C   UNL     1       2.164  -0.024  -1.867  0.00  0.00    +0.243 C 
ATOM     18  O   UNL     1       3.174  -0.688  -2.000  0.00  0.00    -0.270 OA
ATOM     19  N   UNL     1       1.455   0.350  -2.950  0.00  0.00    -0.325 N 
ATOM     20  H   UNL     1       0.649   0.879  -2.844  0.00  0.00    +0.145 HD
ATOM     21  H   UNL     1       1.751   0.090  -3.837  0.00  0.00    +0.145 HD
ENDBRANCH  15  17
ENDBRANCH   1  14
BRANCH   8  22
ATOM     22  C   UNL     1       9.493  -0.040  -0.638  0.00  0.00    +0.037 A 
ATOM     23  C   UNL     1       9.711   1.195  -0.038  0.00  0.00    +0.023 A 
ATOM     24  C   UNL     1      10.905   1.859  -0.239  0.00  0.00    +0.005 A 
ATOM     25  C   UNL     1      11.886   1.299  -1.037  0.00  0.00    +0.045 A 
ATOM     26  C   UNL     1      11.673   0.067  -1.638  0.00  0.00    +0.119 A 
ATOM     27  C   UNL     1      10.479  -0.607  -1.434  0.00  0.00    +0.068 A 
BRANCH  26  28
ATOM     28  O   UNL     1      12.637  -0.482  -2.422  0.00  0.00    -0.507 OA
ATOM     29  H   UNL     1      13.261  -1.045  -1.943  0.00  0.00    +0.292 HD
ENDBRANCH  26  28
ENDBRANCH   8  22
TORSDOF 4
