REMARK  Name = CHEMBL1209015
REMARK  10 active torsions:
REMARK  status: ('A' for Active; 'I' for Inactive)
REMARK    1  A    between atoms: C_1  and  C_2
REMARK    2  A    between atoms: C_2  and  C_4
REMARK    3  A    between atoms: C_2  and  O_11
REMARK    4  A    between atoms: O_11  and  C_12
REMARK    5  A    between atoms: C_14  and  N_20
REMARK    6  A    between atoms: C_16  and  C_17
REMARK    7  A    between atoms: C_27  and  C_29
REMARK    8  A    between atoms: N_32  and  C_34
REMARK    9  A    between atoms: C_34  and  C_35
REMARK   10  A    between atoms: C_35  and  N_36
REMARK                            x       y       z     vdW  Elec       q    Type
REMARK                         _______ _______ _______ _____ _____    ______ ____
ROOT
ATOM      1  N   UNL     1       4.847  -0.623  -1.357  0.00  0.00    -0.292 N 
ATOM      2  C   UNL     1       4.608  -1.007  -2.643  0.00  0.00    +0.205 A 
ATOM      3  N   UNL     1       5.615  -0.683  -3.401  0.00  0.00    -0.235 NA
ATOM      4  C   UNL     1       6.570  -0.068  -2.655  0.00  0.00    +0.090 A 
ATOM      5  C   UNL     1       6.091  -0.015  -1.335  0.00  0.00    +0.074 A 
ATOM      6  C   UNL     1       6.858   0.570  -0.337  0.00  0.00    +0.029 A 
ATOM      7  C   UNL     1       8.091   1.103  -0.641  0.00  0.00    +0.011 A 
ATOM      8  C   UNL     1       8.576   1.058  -1.950  0.00  0.00    -0.013 A 
ATOM      9  C   UNL     1       7.822   0.471  -2.956  0.00  0.00    +0.038 A 
ENDROOT
BRANCH   1  12
ATOM     10  C   UNL     1       2.013  -0.763   1.015  0.00  0.00    +0.143 A 
ATOM     11  C   UNL     1       2.666  -0.500  -0.163  0.00  0.00    +0.080 A 
ATOM     12  C   UNL     1       3.997  -0.802  -0.270  0.00  0.00    +0.090 A 
ATOM     13  S   UNL     1       4.365  -1.486   1.337  0.00  0.00    -0.062 S 
ATOM     14  C   UNL     1       2.741  -1.327   2.061  0.00  0.00    +0.117 A 
BRANCH  14  15
ATOM     15  C   UNL     1       2.306  -1.684   3.358  0.00  0.00    +0.252 C 
ATOM     16  O   UNL     1       1.146  -1.503   3.682  0.00  0.00    -0.270 OA
ATOM     17  N   UNL     1       3.175  -2.223   4.236  0.00  0.00    -0.325 N 
ATOM     18  H   UNL     1       4.099  -2.367   3.977  0.00  0.00    +0.145 HD
ATOM     19  H   UNL     1       2.877  -2.468   5.125  0.00  0.00    +0.145 HD
ENDBRANCH  14  15
BRANCH  10  20
ATOM     20  O   UNL     1       0.693  -0.477   1.160  0.00  0.00    -0.483 OA
BRANCH  20  22
ATOM     21  C   UNL     1       0.188   1.507  -0.124  0.00  0.00    +0.057 C 
ATOM     22  C   UNL     1       0.001  -0.006   0.002  0.00  0.00    +0.202 C 
BRANCH  22  23
ATOM     23  C   UNL     1      -1.467  -0.323   0.131  0.00  0.00    +0.011 A 
ATOM     24  C   UNL     1      -2.034  -0.476   1.382  0.00  0.00    +0.008 A 
ATOM     25  C   UNL     1      -3.380  -0.766   1.500  0.00  0.00    +0.000 A 
ATOM     26  C   UNL     1      -4.160  -0.903   0.367  0.00  0.00    +0.001 A 
ATOM     27  C   UNL     1      -3.595  -0.750  -0.884  0.00  0.00    +0.020 A 
ATOM     28  C   UNL     1      -2.248  -0.454  -1.003  0.00  0.00    +0.048 A 
ATOM     29 CL   UNL     1      -1.539  -0.255  -2.575  0.00  0.00    -0.083 Cl
ENDBRANCH  22  23
ENDBRANCH  20  22
ENDBRANCH  10  20
ENDBRANCH   1  12
BRANCH   8  30
ATOM     30  C   UNL     1       9.907   1.637  -2.266  0.00  0.00    +0.020 A 
ATOM     31  C   UNL     1      10.520   1.670  -3.533  0.00  0.00    +0.142 A 
ATOM     32  N   UNL     1      11.681   2.257  -3.407  0.00  0.00    -0.179 NA
ATOM     33  N   UNL     1      11.854   2.619  -2.066  0.00  0.00    -0.273 N 
ATOM     34  C   UNL     1      10.755   2.236  -1.382  0.00  0.00    +0.116 A 
BRANCH  33  35
ATOM     35  C   UNL     1      13.022   3.300  -1.503  0.00  0.00    +0.125 C 
BRANCH  35  36
ATOM     36  C   UNL     1      14.286   2.507  -1.839  0.00  0.00    -0.055 C 
BRANCH  36  37
ATOM     37  N   UNL     1      15.458   3.190  -1.275  0.00  0.00    +0.384 N 
ATOM     38  C   UNL     1      15.630   4.492  -1.934  0.00  0.00    -0.050 C 
ATOM     39  C   UNL     1      16.851   5.202  -1.344  0.00  0.00    +0.141 C 
ATOM     40  O   UNL     1      18.005   4.372  -1.510  0.00  0.00    -0.383 OA
ATOM     41  C   UNL     1      17.876   3.082  -0.905  0.00  0.00    +0.141 C 
ATOM     42  C   UNL     1      16.656   2.369  -1.494  0.00  0.00    -0.050 C 
ATOM     43  H   UNL     1      15.322   3.329  -0.285  0.00  0.00    -0.082 HD
ENDBRANCH  36  37
ENDBRANCH  35  36
ENDBRANCH  33  35
ENDBRANCH   8  30
TORSDOF 9
