REMARK  Name = CHEMBL1208958
REMARK  8 active torsions:
REMARK  status: ('A' for Active; 'I' for Inactive)
REMARK    1  A    between atoms: C_1  and  C_2
REMARK    2  A    between atoms: C_2  and  C_4
REMARK    3  A    between atoms: C_2  and  O_11
REMARK    4  A    between atoms: O_11  and  C_12
REMARK    5  A    between atoms: C_14  and  N_20
REMARK    6  A    between atoms: C_16  and  C_17
REMARK    7  A    between atoms: C_27  and  C_29
REMARK    8  A    between atoms: N_38  and  C_41
REMARK                            x       y       z     vdW  Elec       q    Type
REMARK                         _______ _______ _______ _____ _____    ______ ____
ROOT
ATOM      1  N   UNL     1       4.799  -0.521  -1.379  0.00  0.00    -0.292 N 
ATOM      2  C   UNL     1       4.565  -0.917  -2.663  0.00  0.00    +0.205 A 
ATOM      3  N   UNL     1       5.582  -0.617  -3.416  0.00  0.00    -0.235 NA
ATOM      4  C   UNL     1       6.540  -0.007  -2.670  0.00  0.00    +0.090 A 
ATOM      5  C   UNL     1       6.049   0.069  -1.354  0.00  0.00    +0.074 A 
ATOM      6  C   UNL     1       6.817   0.655  -0.356  0.00  0.00    +0.029 A 
ATOM      7  C   UNL     1       8.050   1.165  -0.651  0.00  0.00    +0.010 A 
ATOM      8  C   UNL     1       8.551   1.101  -1.954  0.00  0.00    -0.016 A 
ATOM      9  C   UNL     1       7.802   0.510  -2.963  0.00  0.00    +0.038 A 
ENDROOT
BRANCH   8  10
ATOM     10  C   UNL     1       9.892   1.658  -2.259  0.00  0.00    -0.013 A 
ATOM     11  C   UNL     1      10.411   1.610  -3.558  0.00  0.00    +0.026 A 
ATOM     12  C   UNL     1      11.660   2.138  -3.803  0.00  0.00    +0.085 A 
ATOM     13  N   UNL     1      12.368   2.685  -2.832  0.00  0.00    -0.350 N 
ATOM     14  C   UNL     1      11.917   2.753  -1.589  0.00  0.00    +0.099 A 
ATOM     15  C   UNL     1      10.665   2.248  -1.260  0.00  0.00    +0.050 A 
ATOM     16  N   UNL     1      12.702   3.339  -0.603  0.00  0.00    -0.314 N 
ATOM     17  C   UNL     1      13.965   4.011  -0.944  0.00  0.00    +0.122 C 
ATOM     18  C   UNL     1      13.959   5.409  -0.316  0.00  0.00    +0.103 C 
ATOM     19  N   UNL     1      13.685   5.294   1.123  0.00  0.00    -0.302 NA
ATOM     20  C   UNL     1      12.352   4.730   1.369  0.00  0.00    +0.103 C 
ATOM     21  C   UNL     1      12.289   3.310   0.808  0.00  0.00    +0.122 C 
ATOM     22  C   UNL     1      13.840   6.592   1.793  0.00  0.00    +0.105 C 
ATOM     23  H   UNL     1      13.244   3.049  -3.036  0.00  0.00    +0.166 HD
ENDBRANCH   8  10
BRANCH   1  26
ATOM     24  C   UNL     1       1.943  -0.595   0.971  0.00  0.00    +0.143 A 
ATOM     25  C   UNL     1       2.610  -0.354  -0.205  0.00  0.00    +0.080 A 
ATOM     26  C   UNL     1       3.937  -0.676  -0.297  0.00  0.00    +0.090 A 
ATOM     27  S   UNL     1       4.282  -1.347   1.320  0.00  0.00    -0.062 S 
ATOM     28  C   UNL     1       2.655  -1.158   2.029  0.00  0.00    +0.117 A 
BRANCH  28  29
ATOM     29  C   UNL     1       2.204  -1.493   3.326  0.00  0.00    +0.252 C 
ATOM     30  O   UNL     1       1.044  -1.292   3.639  0.00  0.00    -0.270 OA
ATOM     31  N   UNL     1       3.058  -2.034   4.217  0.00  0.00    -0.325 N 
ATOM     32  H   UNL     1       3.982  -2.194   3.968  0.00  0.00    +0.145 HD
ATOM     33  H   UNL     1       2.749  -2.264   5.107  0.00  0.00    +0.145 HD
ENDBRANCH  28  29
BRANCH  24  34
ATOM     34  O   UNL     1       0.626  -0.289   1.101  0.00  0.00    -0.483 OA
BRANCH  34  36
ATOM     35  C   UNL     1       0.158   1.688  -0.208  0.00  0.00    +0.057 C 
ATOM     36  C   UNL     1      -0.050   0.178  -0.068  0.00  0.00    +0.202 C 
BRANCH  36  37
ATOM     37  C   UNL     1      -1.522  -0.118   0.051  0.00  0.00    +0.011 A 
ATOM     38  C   UNL     1      -2.102  -0.251   1.299  0.00  0.00    +0.008 A 
ATOM     39  C   UNL     1      -3.453  -0.523   1.408  0.00  0.00    +0.000 A 
ATOM     40  C   UNL     1      -4.225  -0.662   0.270  0.00  0.00    +0.001 A 
ATOM     41  C   UNL     1      -3.647  -0.529  -0.978  0.00  0.00    +0.020 A 
ATOM     42  C   UNL     1      -2.296  -0.252  -1.088  0.00  0.00    +0.048 A 
ATOM     43 CL   UNL     1      -1.569  -0.079  -2.656  0.00  0.00    -0.083 Cl
ENDBRANCH  36  37
ENDBRANCH  34  36
ENDBRANCH  24  34
ENDBRANCH   1  26
TORSDOF 6
