REMARK  Name = CHEMBL1209015
REMARK  10 active torsions:
REMARK  status: ('A' for Active; 'I' for Inactive)
REMARK    1  A    between atoms: C_1  and  C_2
REMARK    2  A    between atoms: C_2  and  C_4
REMARK    3  A    between atoms: C_2  and  O_11
REMARK    4  A    between atoms: O_11  and  C_12
REMARK    5  A    between atoms: C_14  and  N_20
REMARK    6  A    between atoms: C_16  and  C_17
REMARK    7  A    between atoms: C_27  and  C_29
REMARK    8  A    between atoms: N_32  and  C_34
REMARK    9  A    between atoms: C_34  and  C_35
REMARK   10  A    between atoms: C_35  and  N_36
REMARK                            x       y       z     vdW  Elec       q    Type
REMARK                         _______ _______ _______ _____ _____    ______ ____
ROOT
ATOM      1  N   UNL     1      -3.580  -0.725  -3.513  0.00  0.00    -0.292 N 
ATOM      2  C   UNL     1      -4.565  -1.131  -2.661  0.00  0.00    +0.205 A 
ATOM      3  N   UNL     1      -5.732  -0.838  -3.155  0.00  0.00    -0.235 NA
ATOM      4  C   UNL     1      -5.579  -0.223  -4.357  0.00  0.00    +0.090 A 
ATOM      5  C   UNL     1      -4.198  -0.137  -4.603  0.00  0.00    +0.074 A 
ATOM      6  C   UNL     1      -3.732   0.456  -5.768  0.00  0.00    +0.029 A 
ATOM      7  C   UNL     1      -4.624   0.964  -6.686  0.00  0.00    +0.011 A 
ATOM      8  C   UNL     1      -6.000   0.886  -6.451  0.00  0.00    -0.013 A 
ATOM      9  C   UNL     1      -6.479   0.289  -5.293  0.00  0.00    +0.038 A 
ENDROOT
BRANCH   1  12
ATOM     10  C   UNL     1      -0.106  -0.774  -2.243  0.00  0.00    +0.143 A 
ATOM     11  C   UNL     1      -1.460  -0.544  -2.221  0.00  0.00    +0.080 A 
ATOM     12  C   UNL     1      -2.210  -0.870  -3.319  0.00  0.00    +0.090 A 
ATOM     13  S   UNL     1      -0.985  -1.527  -4.439  0.00  0.00    -0.062 S 
ATOM     14  C   UNL     1       0.450  -1.329  -3.395  0.00  0.00    +0.117 A 
BRANCH  14  15
ATOM     15  C   UNL     1       1.798  -1.652  -3.665  0.00  0.00    +0.252 C 
ATOM     16  O   UNL     1       2.655  -1.447  -2.823  0.00  0.00    -0.270 OA
ATOM     17  N   UNL     1       2.138  -2.187  -4.855  0.00  0.00    -0.325 N 
ATOM     18  H   UNL     1       1.456  -2.350  -5.525  0.00  0.00    +0.145 HD
ATOM     19  H   UNL     1       3.063  -2.409  -5.040  0.00  0.00    +0.145 HD
ENDBRANCH  14  15
BRANCH  10  20
ATOM     20  O   UNL     1       0.671  -0.465  -1.174  0.00  0.00    -0.483 OA
BRANCH  20  22
ATOM     21  C   UNL     1      -0.237   1.501  -0.101  0.00  0.00    +0.057 C 
ATOM     22  C   UNL     1       0.002  -0.006   0.003  0.00  0.00    +0.202 C 
BRANCH  22  23
ATOM     23  C   UNL     1       0.855  -0.297   1.211  0.00  0.00    +0.011 A 
ATOM     24  C   UNL     1       2.226  -0.417   1.077  0.00  0.00    +0.008 A 
ATOM     25  C   UNL     1       3.009  -0.683   2.184  0.00  0.00    +0.000 A 
ATOM     26  C   UNL     1       2.421  -0.831   3.427  0.00  0.00    +0.001 A 
ATOM     27  C   UNL     1       1.051  -0.711   3.563  0.00  0.00    +0.020 A 
ATOM     28  C   UNL     1       0.268  -0.439   2.455  0.00  0.00    +0.048 A 
ATOM     29 CL   UNL     1      -1.453  -0.282   2.626  0.00  0.00    -0.083 Cl
ENDBRANCH  22  23
ENDBRANCH  20  22
ENDBRANCH  10  20
ENDBRANCH   1  12
BRANCH   8  30
ATOM     30  C   UNL     1      -6.953   1.436  -7.448  0.00  0.00    +0.020 A 
ATOM     31  C   UNL     1      -8.357   1.435  -7.346  0.00  0.00    +0.142 A 
ATOM     32  N   UNL     1      -8.843   2.007  -8.416  0.00  0.00    -0.179 NA
ATOM     33  N   UNL     1      -7.777   2.392  -9.237  0.00  0.00    -0.270 N 
ATOM     34  C   UNL     1      -6.626   2.040  -8.627  0.00  0.00    +0.116 A 
BRANCH  33  35
ATOM     35  C   UNL     1      -7.890   3.066 -10.533  0.00  0.00    +0.159 C 
BRANCH  35  36
ATOM     36  C   UNL     1      -8.793   2.246 -11.457  0.00  0.00    +0.108 C 
BRANCH  36  37
ATOM     37  N   UNL     1      -8.907   2.922 -12.756  0.00  0.00    -0.296 NA
ATOM     38  C   UNL     1      -9.621   4.201 -12.624  0.00  0.00    +0.112 C 
ATOM     39  C   UNL     1      -9.665   4.898 -13.986  0.00  0.00    +0.175 C 
ATOM     40  O   UNL     1     -10.281   4.030 -14.941  0.00  0.00    -0.377 OA
ATOM     41  C   UNL     1      -9.612   2.775 -15.095  0.00  0.00    +0.175 C 
ATOM     42  C   UNL     1      -9.568   2.057 -13.744  0.00  0.00    +0.112 C 
ENDBRANCH  36  37
ENDBRANCH  35  36
ENDBRANCH  33  35
ENDBRANCH   8  30
TORSDOF 9
