REMARK  Name = CHEMBL477616
REMARK  13 active torsions:
REMARK  status: ('A' for Active; 'I' for Inactive)
REMARK    1  A    between atoms: C_1  and  C_2
REMARK    2  A    between atoms: C_2  and  N_3
REMARK    3  A    between atoms: C_7  and  N_8
REMARK    4  A    between atoms: N_8  and  C_9
REMARK    5  A    between atoms: C_12  and  N_15
REMARK    6  A    between atoms: N_18  and  C_19
REMARK    7  A    between atoms: C_19  and  C_20
REMARK    8  A    between atoms: C_20  and  N_21
REMARK    9  A    between atoms: C_28  and  C_29
REMARK   10  A    between atoms: C_28  and  C_31
REMARK   11  A    between atoms: C_31  and  O_33
REMARK   12  A    between atoms: O_33  and  C_34
REMARK   13  A    between atoms: C_34  and  C_35
REMARK                            x       y       z     vdW  Elec       q    Type
REMARK                         _______ _______ _______ _____ _____    ______ ____
ROOT
ATOM      1  C   UNL     1      -6.012  -3.039   2.853  0.00  0.00    +0.031 A 
ATOM      2  C   UNL     1      -5.678  -2.720   4.163  0.00  0.00    +0.025 A 
ATOM      3  C   UNL     1      -6.449  -3.191   5.206  0.00  0.00    +0.025 A 
ATOM      4  C   UNL     1      -7.559  -3.984   4.946  0.00  0.00    +0.035 A 
ATOM      5  C   UNL     1      -7.893  -4.303   3.636  0.00  0.00    +0.025 A 
ATOM      6  C   UNL     1      -7.126  -3.828   2.592  0.00  0.00    +0.025 A 
ENDROOT
BRANCH   4   7
ATOM      7  N   UNL     1      -8.342  -4.462   6.005  0.00  0.00    -0.269 N 
ATOM      8  C   UNL     1      -9.001  -5.631   5.882  0.00  0.00    +0.304 C 
ATOM      9  O   UNL     1      -8.834  -6.322   4.895  0.00  0.00    -0.253 OA
ATOM     10  N   UNL     1      -9.845  -6.035   6.852  0.00  0.00    -0.301 N 
ATOM     11  H   UNL     1      -8.409  -3.952   6.827  0.00  0.00    +0.156 HD
ATOM     12  H   UNL     1      -9.978  -5.484   7.639  0.00  0.00    +0.150 HD
BRANCH  10  13
ATOM     13  C   UNL     1     -10.561  -7.306   6.718  0.00  0.00    +0.087 C 
BRANCH  13  14
ATOM     14  C   UNL     1     -11.446  -7.524   7.947  0.00  0.00    -0.060 C 
BRANCH  14  15
ATOM     15  N   UNL     1     -12.165  -8.799   7.812  0.00  0.00    +0.381 N 
ATOM     16  C   UNL     1     -11.213  -9.935   7.911  0.00  0.00    -0.079 C 
ATOM     17  C   UNL     1     -12.122 -11.123   8.317  0.00  0.00    -0.020 C 
ATOM     18  C   UNL     1     -13.136 -10.469   9.283  0.00  0.00    -0.020 C 
ATOM     19  C   UNL     1     -13.115  -8.969   8.933  0.00  0.00    -0.079 C 
ATOM     20  H   UNL     1     -12.656  -8.831   6.931  0.00  0.00    -0.082 HD
ENDBRANCH  14  15
ENDBRANCH  13  14
ENDBRANCH  10  13
ENDBRANCH   4   7
BRANCH   1  21
ATOM     21  N   UNL     1      -5.231  -2.562   1.795  0.00  0.00    -0.319 N 
ATOM     22  H   UNL     1      -5.466  -2.781   0.880  0.00  0.00    +0.152 HD
BRANCH  21  27
ATOM     23  N   UNL     1      -1.677  -0.214  -0.116  0.00  0.00    -0.301 N 
ATOM     24  C   UNL     1      -2.207  -0.510   1.062  0.00  0.00    +0.267 A 
ATOM     25  O   UNL     1      -1.725  -0.112   2.108  0.00  0.00    -0.266 OA
ATOM     26  C   UNL     1      -3.376  -1.323   1.025  0.00  0.00    +0.092 A 
ATOM     27  C   UNL     1      -4.134  -1.786   2.051  0.00  0.00    +0.092 C 
ATOM     28  S   UNL     1      -3.577  -1.569  -0.731  0.00  0.00    -0.063 S 
ATOM     29  C   UNL     1      -2.255  -0.678  -1.264  0.00  0.00    +0.108 A 
ATOM     30  C   UNL     1      -1.839  -0.462  -2.585  0.00  0.00    +0.166 C 
BRANCH  23  32
ATOM     31  C   UNL     1       0.761  -0.281  -0.299  0.00  0.00    +0.027 C 
ATOM     32  C   UNL     1      -0.472   0.617  -0.188  0.00  0.00    +0.122 C 
ENDBRANCH  23  32
BRANCH  30  33
ATOM     33  C   UNL     1      -0.603   0.213  -2.845  0.00  0.00    +0.109 C 
ATOM     34  N   UNL     1       0.377   0.749  -3.052  0.00  0.00    -0.191 NA
ENDBRANCH  30  33
BRANCH  30  35
ATOM     35  C   UNL     1      -2.640  -0.911  -3.662  0.00  0.00    +0.352 C 
ATOM     36  O   UNL     1      -3.691  -1.485  -3.441  0.00  0.00    -0.244 OA
BRANCH  35  37
ATOM     37  O   UNL     1      -2.240  -0.703  -4.934  0.00  0.00    -0.461 OA
BRANCH  37  38
ATOM     38  C   UNL     1      -3.098  -1.183  -5.971  0.00  0.00    +0.229 C 
ATOM     39  C   UNL     1      -2.482  -0.859  -7.333  0.00  0.00    +0.048 C 
ENDBRANCH  37  38
ENDBRANCH  35  37
ENDBRANCH  30  35
ENDBRANCH  21  27
ENDBRANCH   1  21
TORSDOF 11
