REMARK  Name = CHEMBL560014
REMARK  6 active torsions:
REMARK  status: ('A' for Active; 'I' for Inactive)
REMARK    1  A    between atoms: C_1  and  C_2
REMARK    2  A    between atoms: C_2  and  C_4
REMARK    3  A    between atoms: C_2  and  O_11
REMARK    4  A    between atoms: O_11  and  C_12
REMARK    5  A    between atoms: C_14  and  C_20
REMARK    6  A    between atoms: C_16  and  C_17
REMARK                            x       y       z     vdW  Elec       q    Type
REMARK                         _______ _______ _______ _____ _____    ______ ____
ROOT
ATOM      1  C   UNL     1      -1.964  -0.607  -1.188  0.00  0.00    +0.141 A 
ATOM      2  C   UNL     1      -1.292  -0.355  -2.354  0.00  0.00    +0.064 A 
ATOM      3  C   UNL     1      -1.974  -0.479  -3.558  0.00  0.00    +0.042 A 
ATOM      4  S   UNL     1      -3.607  -0.962  -3.022  0.00  0.00    -0.079 S 
ATOM      5  C   UNL     1      -3.306  -0.981  -1.262  0.00  0.00    +0.116 A 
ENDROOT
BRANCH   3   6
ATOM      6  C   UNL     1      -1.479  -0.265  -4.923  0.00  0.00    +0.078 A 
ATOM      7  C   UNL     1      -0.178   0.011  -5.295  0.00  0.00    +0.111 A 
ATOM      8  N   UNL     1      -0.142   0.135  -6.617  0.00  0.00    -0.345 N 
ATOM      9  C   UNL     1      -1.359  -0.049  -7.118  0.00  0.00    +0.116 A 
ATOM     10  N   UNL     1      -2.220  -0.307  -6.085  0.00  0.00    -0.300 N 
ATOM     11  C   UNL     1      -3.542  -0.540  -6.325  0.00  0.00    +0.093 A 
ATOM     12  C   UNL     1      -4.025  -0.523  -7.587  0.00  0.00    +0.018 A 
ATOM     13  C   UNL     1      -3.167  -0.265  -8.668  0.00  0.00    +0.005 A 
ATOM     14  C   UNL     1      -1.847  -0.023  -8.438  0.00  0.00    +0.045 A 
ATOM     15  H   UNL     1       0.653   0.330  -7.138  0.00  0.00    +0.167 HD
ENDBRANCH   3   6
BRANCH   5  16
ATOM     16  C   UNL     1      -4.199  -1.294  -0.213  0.00  0.00    +0.252 C 
ATOM     17  O   UNL     1      -3.818  -1.252   0.943  0.00  0.00    -0.270 OA
ATOM     18  N   UNL     1      -5.472  -1.637  -0.492  0.00  0.00    -0.325 N 
ATOM     19  H   UNL     1      -5.775  -1.670  -1.413  0.00  0.00    +0.145 HD
ATOM     20  H   UNL     1      -6.085  -1.851   0.229  0.00  0.00    +0.145 HD
ENDBRANCH   5  16
BRANCH   1  21
ATOM     21  O   UNL     1      -1.339  -0.499   0.012  0.00  0.00    -0.483 OA
BRANCH  21  23
ATOM     22  C   UNL     1       0.300   1.272  -0.133  0.00  0.00    +0.057 C 
ATOM     23  C   UNL     1       0.066  -0.235  -0.010  0.00  0.00    +0.202 C 
BRANCH  23  24
ATOM     24  C   UNL     1       0.691  -0.738   1.266  0.00  0.00    +0.011 A 
ATOM     25  C   UNL     1      -0.076  -0.865   2.409  0.00  0.00    +0.008 A 
ATOM     26  C   UNL     1       0.498  -1.326   3.579  0.00  0.00    +0.000 A 
ATOM     27  C   UNL     1       1.839  -1.661   3.606  0.00  0.00    +0.001 A 
ATOM     28  C   UNL     1       2.607  -1.535   2.464  0.00  0.00    +0.020 A 
ATOM     29  C   UNL     1       2.032  -1.079   1.291  0.00  0.00    +0.048 A 
ATOM     30 CL   UNL     1       2.994  -0.926  -0.145  0.00  0.00    -0.083 Cl
ENDBRANCH  23  24
ENDBRANCH  21  23
ENDBRANCH   1  21
TORSDOF 5
