REMARK  Name = CHEMBL519715
REMARK  9 active torsions:
REMARK  status: ('A' for Active; 'I' for Inactive)
REMARK    1  A    between atoms: C_1  and  C_2
REMARK    2  A    between atoms: C_9  and  C_11
REMARK    3  A    between atoms: N_17  and  C_18
REMARK    4  A    between atoms: C_20  and  O_28
REMARK    5  A    between atoms: C_21  and  O_26
REMARK    6  A    between atoms: C_22  and  O_24
REMARK    7  A    between atoms: O_24  and  C_25
REMARK    8  A    between atoms: O_26  and  C_27
REMARK    9  A    between atoms: O_28  and  C_29
REMARK                            x       y       z     vdW  Elec       q    Type
REMARK                         _______ _______ _______ _____ _____    ______ ____
ROOT
ATOM      1  C   UNL     1       0.016   1.504   0.009  0.00  0.00    +0.068 C 
ATOM      2  C   UNL     1       0.177   0.006  -0.011  0.00  0.00    +0.067 A 
ATOM      3  C   UNL     1       0.099  -0.809  -1.126  0.00  0.00    +0.107 A 
ATOM      4  C   UNL     1      -0.130  -0.596  -2.494  0.00  0.00    +0.144 A 
ATOM      5  N   UNL     1      -0.141  -1.623  -3.314  0.00  0.00    -0.219 NA
ATOM      6  C   UNL     1       0.062  -2.873  -2.882  0.00  0.00    +0.238 A 
ATOM      7  N   UNL     1       0.282  -3.144  -1.616  0.00  0.00    -0.128 NA
ATOM      8  N   UNL     1       0.309  -2.103  -0.681  0.00  0.00    -0.208 N 
ATOM      9  C   UNL     1       0.502  -2.033   0.655  0.00  0.00    +0.162 A 
ATOM     10  N   UNL     1       0.426  -0.768   1.038  0.00  0.00    -0.230 NA
ATOM     11  N   UNL     1       0.038  -3.915  -3.799  0.00  0.00    -0.282 N 
ATOM     12  H   UNL     1       0.102  -4.833  -3.492  0.00  0.00    +0.155 HD
ENDROOT
BRANCH   9  13
ATOM     13  C   UNL     1       0.762  -3.183   1.545  0.00  0.00    +0.019 A 
ATOM     14  C   UNL     1       0.526  -4.485   1.097  0.00  0.00    +0.011 A 
ATOM     15  C   UNL     1       0.772  -5.554   1.933  0.00  0.00    +0.001 A 
ATOM     16  C   UNL     1       1.251  -5.340   3.213  0.00  0.00    +0.000 A 
ATOM     17  C   UNL     1       1.487  -4.053   3.664  0.00  0.00    +0.001 A 
ATOM     18  C   UNL     1       1.252  -2.975   2.836  0.00  0.00    +0.011 A 
ENDBRANCH   9  13
BRANCH  11  19
ATOM     19  C   UNL     1      -0.078  -3.641  -5.167  0.00  0.00    +0.041 A 
ATOM     20  C   UNL     1       0.500  -2.495  -5.697  0.00  0.00    +0.073 A 
ATOM     21  C   UNL     1       0.385  -2.223  -7.051  0.00  0.00    +0.167 A 
ATOM     22  C   UNL     1      -0.309  -3.098  -7.878  0.00  0.00    +0.204 A 
ATOM     23  C   UNL     1      -0.887  -4.245  -7.348  0.00  0.00    +0.167 A 
ATOM     24  C   UNL     1      -0.767  -4.518  -5.994  0.00  0.00    +0.073 A 
BRANCH  23  25
ATOM     25  O   UNL     1      -1.566  -5.101  -8.157  0.00  0.00    -0.491 OA
ATOM     26  C   UNL     1      -2.135  -6.260  -7.543  0.00  0.00    +0.277 C 
ENDBRANCH  23  25
BRANCH  22  27
ATOM     27  O   UNL     1      -0.422  -2.831  -9.209  0.00  0.00    -0.488 OA
ATOM     28  C   UNL     1       0.600  -3.349 -10.064  0.00  0.00    +0.277 C 
ENDBRANCH  22  27
BRANCH  21  29
ATOM     29  O   UNL     1       0.951  -1.101  -7.569  0.00  0.00    -0.491 OA
ATOM     30  C   UNL     1       1.649  -0.247  -6.661  0.00  0.00    +0.277 C 
ENDBRANCH  21  29
ENDBRANCH  11  19
TORSDOF 5
