REMARK  Name = CHEMBL475881
REMARK  16 active torsions:
REMARK  status: ('A' for Active; 'I' for Inactive)
REMARK    1  A    between atoms: C_1  and  C_2
REMARK    2  A    between atoms: C_2  and  N_3
REMARK    3  A    between atoms: C_7  and  N_8
REMARK    4  A    between atoms: N_8  and  C_9
REMARK    5  A    between atoms: C_15  and  C_19
REMARK    6  A    between atoms: N_21  and  C_22
REMARK    7  A    between atoms: C_22  and  C_23
REMARK    8  A    between atoms: C_23  and  N_24
REMARK    9  A    between atoms: N_24  and  C_25
REMARK   10  A    between atoms: N_24  and  C_27
REMARK   11  A    between atoms: C_25  and  C_26
REMARK   12  A    between atoms: C_27  and  C_28
REMARK   13  A    between atoms: C_31  and  C_32
REMARK   14  A    between atoms: C_31  and  C_34
REMARK   15  A    between atoms: N_36  and  C_37
REMARK   16  A    between atoms: C_37  and  C_38
REMARK                            x       y       z     vdW  Elec       q    Type
REMARK                         _______ _______ _______ _____ _____    ______ ____
ROOT
ATOM      1  N   UNL     1       2.397  -0.627   3.651  0.00  0.00    -0.319 N 
ATOM      2  H   UNL     1       1.780  -0.757   4.388  0.00  0.00    +0.152 HD
ENDROOT
BRANCH   1   3
ATOM      3  C   UNL     1       3.725  -1.052   3.768  0.00  0.00    +0.032 A 
ATOM      4  C   UNL     1       4.612  -0.860   2.711  0.00  0.00    +0.025 A 
ATOM      5  C   UNL     1       5.921  -1.273   2.812  0.00  0.00    +0.028 A 
ATOM      6  C   UNL     1       6.370  -1.889   3.976  0.00  0.00    +0.047 A 
ATOM      7  C   UNL     1       5.477  -2.083   5.043  0.00  0.00    +0.014 A 
ATOM      8  C   UNL     1       4.156  -1.658   4.936  0.00  0.00    +0.034 A 
ATOM      9  C   UNL     1       6.255  -2.749   6.104  0.00  0.00    +0.062 A 
ATOM     10  C   UNL     1       7.520  -2.904   5.618  0.00  0.00    +0.096 A 
ATOM     11  N   UNL     1       7.594  -2.398   4.363  0.00  0.00    -0.360 N 
ATOM     12  H   UNL     1       8.393  -2.395   3.814  0.00  0.00    +0.165 HD
BRANCH   9  13
ATOM     13  C   UNL     1       5.764  -3.163   7.425  0.00  0.00    +0.246 C 
ATOM     14  O   UNL     1       4.604  -2.963   7.733  0.00  0.00    -0.270 OA
ATOM     15  N   UNL     1       6.598  -3.765   8.296  0.00  0.00    -0.313 N 
ATOM     16  H   UNL     1       7.523  -3.925   8.050  0.00  0.00    +0.149 HD
BRANCH  15  17
ATOM     17  C   UNL     1       6.109  -4.179   9.613  0.00  0.00    +0.086 C 
BRANCH  17  18
ATOM     18  C   UNL     1       7.248  -4.832  10.398  0.00  0.00    -0.060 C 
BRANCH  18  19
ATOM     19  N   UNL     1       6.794  -5.128  11.764  0.00  0.00    +0.380 N 
ATOM     20  H   UNL     1       6.438  -4.286  12.190  0.00  0.00    -0.082 HD
BRANCH  19  21
ATOM     21  C   UNL     1       5.731  -6.141  11.717  0.00  0.00    -0.082 C 
ATOM     22  C   UNL     1       5.173  -6.359  13.125  0.00  0.00    -0.017 C 
ENDBRANCH  19  21
BRANCH  19  23
ATOM     23  C   UNL     1       7.922  -5.638  12.555  0.00  0.00    -0.082 C 
ATOM     24  C   UNL     1       8.965  -4.532  12.729  0.00  0.00    -0.017 C 
ENDBRANCH  19  23
ENDBRANCH  18  19
ENDBRANCH  17  18
ENDBRANCH  15  17
ENDBRANCH   9  13
ENDBRANCH   1   3
BRANCH   1  29
ATOM     25  N   UNL     1      -1.249   1.310   1.471  0.00  0.00    -0.301 N 
ATOM     26  C   UNL     1       0.032   1.022   1.289  0.00  0.00    +0.267 A 
ATOM     27  O   UNL     1       0.615   1.286   0.253  0.00  0.00    -0.266 OA
ATOM     28  C   UNL     1       0.682   0.384   2.384  0.00  0.00    +0.092 A 
ATOM     29  C   UNL     1       1.970  -0.028   2.498  0.00  0.00    +0.092 C 
ATOM     30  S   UNL     1      -0.649   0.272   3.567  0.00  0.00    -0.063 S 
ATOM     31  C   UNL     1      -1.861   0.999   2.655  0.00  0.00    +0.107 A 
ATOM     32  C   UNL     1      -3.188   1.232   3.022  0.00  0.00    +0.148 C 
BRANCH  32  33
ATOM     33  C   UNL     1      -3.630   0.951   4.392  0.00  0.00    +0.286 C 
ATOM     34  O   UNL     1      -2.752   0.467   5.301  0.00  0.00    -0.265 OA
ATOM     35  N   UNL     1      -4.873   1.168   4.735  0.00  0.00    -0.237 NA
BRANCH  35  36
ATOM     36  C   UNL     1      -5.314   0.888   6.104  0.00  0.00    +0.258 C 
BRANCH  36  37
ATOM     37  C   UNL     1      -5.721   2.196   6.786  0.00  0.00    +0.409 C 
ATOM     38  F   UNL     1      -6.766   2.790   6.071  0.00  0.00    -0.169 F 
ATOM     39  F   UNL     1      -6.142   1.928   8.093  0.00  0.00    -0.169 F 
ATOM     40  F   UNL     1      -4.625   3.065   6.819  0.00  0.00    -0.169 F 
ENDBRANCH  36  37
ENDBRANCH  35  36
ENDBRANCH  32  33
BRANCH  25  42
ATOM     41  C   UNL     1      -2.755   0.912  -0.414  0.00  0.00    +0.027 C 
ATOM     42  C   UNL     1      -2.009   1.967   0.405  0.00  0.00    +0.122 C 
ENDBRANCH  25  42
BRANCH  32  43
ATOM     43  C   UNL     1      -4.117   1.744   2.060  0.00  0.00    +0.107 C 
ATOM     44  N   UNL     1      -4.855   2.150   1.298  0.00  0.00    -0.191 NA
ENDBRANCH  32  43
ENDBRANCH   1  29
TORSDOF 13
