REMARK  Name = CHEMBL223367
REMARK  5 active torsions:
REMARK  status: ('A' for Active; 'I' for Inactive)
REMARK    1  A    between atoms: C_2  and  C_27
REMARK    2  A    between atoms: C_15  and  C_24
REMARK    3  A    between atoms: C_27  and  C_28
REMARK    4  A    between atoms: C_28  and  C_29
REMARK    5  A    between atoms: C_29  and  O_30
REMARK                            x       y       z     vdW  Elec       q    Type
REMARK                         _______ _______ _______ _____ _____    ______ ____
ROOT
ATOM      1  C   UNL     1      -0.017   1.384   0.010  0.00  0.00    +0.052 A 
ATOM      2  C   UNL     1       1.173   2.089   0.002  0.00  0.00    -0.025 A 
ATOM      3  C   UNL     1       2.382   1.419   0.001  0.00  0.00    +0.046 A 
ATOM      4  C   UNL     1       2.407   0.037  -0.001  0.00  0.00    +0.047 A 
ATOM      5  C   UNL     1       1.218  -0.679  -0.019  0.00  0.00    +0.078 A 
ATOM      6  C   UNL     1       0.002  -0.004   0.002  0.00  0.00    +0.142 A 
ATOM      7  O   UNL     1      -1.172  -0.690   0.019  0.00  0.00    -0.490 OA
ATOM      8  C   UNL     1      -2.364   0.096  -0.042  0.00  0.00    +0.229 C 
ATOM      9  C   UNL     1      -3.388  -0.444   0.955  0.00  0.00    +0.041 C 
ATOM     10  C   UNL     1      -4.473  -1.216   0.202  0.00  0.00    +0.007 C 
ATOM     11  C   UNL     1      -4.001  -2.650  -0.038  0.00  0.00    +0.041 C 
ATOM     12  C   UNL     1      -4.543  -3.153  -1.377  0.00  0.00    +0.231 C 
ATOM     13  O   UNL     1      -4.328  -4.562  -1.472  0.00  0.00    -0.474 OA
ATOM     14  C   UNL     1      -3.055  -4.985  -1.661  0.00  0.00    +0.254 A 
ATOM     15  C   UNL     1      -2.821  -6.176  -2.370  0.00  0.00    +0.202 A 
ATOM     16  N   UNL     1      -1.574  -6.612  -2.539  0.00  0.00    -0.236 NA
ATOM     17  C   UNL     1      -0.564  -5.925  -2.050  0.00  0.00    +0.156 A 
ATOM     18  C   UNL     1      -0.792  -4.728  -1.365  0.00  0.00    +0.148 A 
ATOM     19  N   UNL     1      -2.030  -4.288  -1.187  0.00  0.00    -0.194 NA
ATOM     20  N   UNL     1       0.305  -4.022  -0.863  0.00  0.00    -0.253 N 
ATOM     21  C   UNL     1       0.135  -2.730  -0.475  0.00  0.00    +0.309 C 
ATOM     22  O   UNL     1      -0.951  -2.184  -0.500  0.00  0.00    -0.252 OA
ATOM     23  N   UNL     1       1.264  -2.085  -0.054  0.00  0.00    -0.266 N 
ATOM     24 CL   UNL     1       3.870   2.313   0.001  0.00  0.00    -0.083 Cl
ATOM     25  H   UNL     1       1.174  -4.447  -0.792  0.00  0.00    +0.158 HD
ATOM     26  H   UNL     1       2.060  -2.574   0.207  0.00  0.00    +0.156 HD
ENDROOT
BRANCH  15  27
ATOM     27  C   UNL     1      -3.921  -6.918  -2.908  0.00  0.00    +0.125 C 
ATOM     28  N   UNL     1      -4.793  -7.508  -3.334  0.00  0.00    -0.189 NA
ENDBRANCH  15  27
BRANCH   2  29
ATOM     29  C   UNL     1       1.151   3.596  -0.005  0.00  0.00    +0.039 C 
BRANCH  29  30
ATOM     30  C   UNL     1       1.399   4.117   1.412  0.00  0.00    +0.032 C 
BRANCH  30  31
ATOM     31  C   UNL     1       1.377   5.647   1.404  0.00  0.00    +0.156 C 
BRANCH  31  32
ATOM     32  O   UNL     1       1.608   6.133   2.728  0.00  0.00    -0.395 OA
ATOM     33  H   UNL     1       1.607   7.098   2.798  0.00  0.00    +0.209 HD
ENDBRANCH  31  32
ENDBRANCH  30  31
ENDBRANCH  29  30
ENDBRANCH   2  29
TORSDOF 5
