REMARK  Name = CHEMBL475946
REMARK  13 active torsions:
REMARK  status: ('A' for Active; 'I' for Inactive)
REMARK    1  A    between atoms: C_1  and  C_2
REMARK    2  A    between atoms: C_2  and  N_3
REMARK    3  A    between atoms: C_4  and  C_6
REMARK    4  A    between atoms: C_6  and  C_34
REMARK    5  A    between atoms: N_8  and  C_32
REMARK    6  A    between atoms: C_12  and  N_13
REMARK    7  A    between atoms: N_13  and  C_14
REMARK    8  A    between atoms: C_18  and  C_20
REMARK    9  A    between atoms: N_22  and  C_23
REMARK   10  A    between atoms: C_23  and  C_24
REMARK   11  A    between atoms: C_24  and  C_25
REMARK   12  A    between atoms: C_25  and  N_26
REMARK   13  A    between atoms: C_32  and  C_33
REMARK                            x       y       z     vdW  Elec       q    Type
REMARK                         _______ _______ _______ _____ _____    ______ ____
ROOT
ATOM      1  N   UNL     1       1.539  -8.447  -3.770  0.00  0.00    -0.319 N 
ATOM      2  H   UNL     1       1.876  -8.118  -4.618  0.00  0.00    +0.152 HD
ENDROOT
BRANCH   1   9
ATOM      3  C   UNL     1       1.911  -2.279  -2.422  0.00  0.00    +0.144 C 
ATOM      4  C   UNL     1       1.836  -3.640  -2.741  0.00  0.00    +0.106 A 
ATOM      5  N   UNL     1       2.162  -4.245  -3.923  0.00  0.00    -0.301 N 
ATOM      6  C   UNL     1       2.030  -5.557  -4.058  0.00  0.00    +0.267 A 
ATOM      7  O   UNL     1       2.310  -6.134  -5.093  0.00  0.00    -0.266 OA
ATOM      8  C   UNL     1       1.541  -6.248  -2.912  0.00  0.00    +0.092 A 
ATOM      9  C   UNL     1       1.303  -7.573  -2.744  0.00  0.00    +0.092 C 
ATOM     10  S   UNL     1       1.331  -4.905  -1.756  0.00  0.00    -0.063 S 
BRANCH   3  12
ATOM     11  N   UNL     1       1.482  -0.502  -0.874  0.00  0.00    -0.311 N 
ATOM     12  C   UNL     1       1.409  -1.813  -1.181  0.00  0.00    +0.257 C 
ATOM     13  O   UNL     1       0.913  -2.597  -0.392  0.00  0.00    -0.269 OA
ATOM     14  H   UNL     1       1.877   0.122  -1.503  0.00  0.00    +0.149 HD
BRANCH  11  16
ATOM     15  C   UNL     1       1.167   1.492   0.505  0.00  0.00    +0.024 C 
ATOM     16  C   UNL     1       0.963  -0.021   0.409  0.00  0.00    +0.101 C 
ENDBRANCH  11  16
ENDBRANCH   3  12
BRANCH   5  17
ATOM     17  C   UNL     1       2.657  -3.442  -5.043  0.00  0.00    +0.122 C 
ATOM     18  C   UNL     1       4.165  -3.230  -4.892  0.00  0.00    +0.027 C 
ENDBRANCH   5  17
BRANCH   3  19
ATOM     19  C   UNL     1       2.494  -1.358  -3.350  0.00  0.00    +0.107 C 
ATOM     20  N   UNL     1       2.957  -0.627  -4.087  0.00  0.00    -0.191 NA
ENDBRANCH   3  19
ENDBRANCH   1   9
BRANCH   1  21
ATOM     21  C   UNL     1       1.294  -9.811  -3.597  0.00  0.00    +0.032 A 
ATOM     22  C   UNL     1       0.805 -10.281  -2.383  0.00  0.00    +0.023 A 
ATOM     23  C   UNL     1       0.561 -11.630  -2.207  0.00  0.00    +0.003 A 
ATOM     24  C   UNL     1       0.800 -12.520  -3.235  0.00  0.00    +0.013 A 
ATOM     25  C   UNL     1       1.291 -12.058  -4.457  0.00  0.00    +0.038 A 
ATOM     26  C   UNL     1       1.533 -10.696  -4.637  0.00  0.00    +0.036 A 
BRANCH  25  27
ATOM     27  C   UNL     1       1.549 -13.009  -5.560  0.00  0.00    +0.244 C 
ATOM     28  O   UNL     1       1.976 -12.605  -6.624  0.00  0.00    -0.270 OA
ATOM     29  N   UNL     1       1.310 -14.324  -5.385  0.00  0.00    -0.311 N 
ATOM     30  H   UNL     1       0.969 -14.647  -4.536  0.00  0.00    +0.149 HD
BRANCH  29  31
ATOM     31  C   UNL     1       1.566 -15.266  -6.477  0.00  0.00    +0.102 C 
BRANCH  31  32
ATOM     32  C   UNL     1       1.214 -16.684  -6.021  0.00  0.00    +0.000 C 
BRANCH  32  33
ATOM     33  C   UNL     1       1.481 -17.668  -7.162  0.00  0.00    -0.077 C 
BRANCH  33  34
ATOM     34  N   UNL     1       1.144 -19.029  -6.723  0.00  0.00    +0.380 N 
ATOM     35  C   UNL     1      -0.325 -19.159  -6.541  0.00  0.00    -0.079 C 
ATOM     36  C   UNL     1      -0.561 -20.686  -6.647  0.00  0.00    -0.020 C 
ATOM     37  C   UNL     1       0.439 -21.115  -7.746  0.00  0.00    -0.020 C 
ATOM     38  C   UNL     1       1.508 -20.007  -7.771  0.00  0.00    -0.079 C 
ATOM     39  H   UNL     1       1.623 -19.246  -5.862  0.00  0.00    -0.082 HD
ENDBRANCH  33  34
ENDBRANCH  32  33
ENDBRANCH  31  32
ENDBRANCH  29  31
ENDBRANCH  25  27
ENDBRANCH   1  21
TORSDOF 11
