REMARK  Name = CHEMBL1095716
REMARK  7 active torsions:
REMARK  status: ('A' for Active; 'I' for Inactive)
REMARK    1  A    between atoms: C_1  and  C_2
REMARK    2  A    between atoms: C_2  and  C_4
REMARK    3  A    between atoms: C_7  and  N_28
REMARK    4  A    between atoms: C_9  and  N_10
REMARK    5  A    between atoms: C_19  and  C_23
REMARK    6  A    between atoms: N_21  and  C_22
REMARK    7  A    between atoms: N_31  and  C_34
REMARK                            x       y       z     vdW  Elec       q    Type
REMARK                         _______ _______ _______ _____ _____    ______ ____
ROOT
ATOM      1  N   UNL     1       0.351  -2.545  -0.246  0.00  0.00    -0.283 N 
ATOM      2  C   UNL     1       0.685  -3.606  -1.072  0.00  0.00    +0.220 A 
ATOM      3  N   UNL     1      -0.278  -4.262  -1.703  0.00  0.00    -0.222 NA
ATOM      4  C   UNL     1      -0.011  -5.293  -2.490  0.00  0.00    +0.120 A 
ATOM      5  C   UNL     1       1.304  -5.684  -2.662  0.00  0.00    -0.001 A 
ATOM      6  C   UNL     1       2.299  -4.949  -2.002  0.00  0.00    +0.097 A 
ATOM      7  N   UNL     1       1.961  -3.937  -1.217  0.00  0.00    -0.212 NA
ATOM      8  C   UNL     1       3.700  -5.322  -2.263  0.00  0.00    +0.091 A 
ATOM      9  C   UNL     1       4.011  -6.153  -3.318  0.00  0.00    +0.012 A 
ATOM     10  C   UNL     1       5.397  -6.313  -3.276  0.00  0.00    +0.151 A 
ATOM     11  N   UNL     1       5.841  -5.586  -2.261  0.00  0.00    -0.166 NA
ATOM     12  N   UNL     1       4.862  -4.991  -1.667  0.00  0.00    -0.264 N 
ATOM     13  C   UNL     1       4.994  -4.090  -0.520  0.00  0.00    +0.173 C 
ATOM     14  C   UNL     1       2.972  -6.693  -4.257  0.00  0.00    +0.044 C 
ATOM     15  C   UNL     1       1.648  -6.872  -3.513  0.00  0.00    +0.043 C 
ATOM     16  H   UNL     1       1.043  -2.082   0.253  0.00  0.00    +0.155 HD
ENDROOT
BRANCH   1  22
ATOM     17  C   UNL     1      -1.291  -0.777   0.006  0.00  0.00    +0.038 A 
ATOM     18  C   UNL     1      -2.633  -0.384   0.115  0.00  0.00    +0.015 A 
ATOM     19  C   UNL     1      -3.624  -1.320   0.093  0.00  0.00    +0.024 A 
ATOM     20  C   UNL     1      -3.314  -2.674  -0.038  0.00  0.00    +0.031 A 
ATOM     21  C   UNL     1      -1.991  -3.083  -0.146  0.00  0.00    +0.047 A 
ATOM     22  C   UNL     1      -0.974  -2.143  -0.131  0.00  0.00    +0.046 A 
BRANCH  20  23
ATOM     23  N   UNL     1      -4.333  -3.618  -0.059  0.00  0.00    -0.333 N 
ATOM     24  C   UNL     1      -4.032  -5.058  -0.047  0.00  0.00    +0.086 C 
ATOM     25  C   UNL     1      -4.864  -5.719   1.056  0.00  0.00    -0.060 C 
ATOM     26  N   UNL     1      -6.283  -5.399   0.856  0.00  0.00    +0.380 N 
ATOM     27  C   UNL     1      -6.497  -3.955   1.013  0.00  0.00    -0.060 C 
ATOM     28  C   UNL     1      -5.745  -3.206  -0.087  0.00  0.00    +0.086 C 
ATOM     29  C   UNL     1      -7.091  -6.122   1.847  0.00  0.00    -0.096 C 
ATOM     30  H   UNL     1      -6.563  -5.681  -0.072  0.00  0.00    -0.082 HD
ENDBRANCH  20  23
BRANCH  17  32
ATOM     31  C   UNL     1      -0.574   1.692   0.067  0.00  0.00    +0.091 C 
ATOM     32  C   UNL     1      -0.227   0.226   0.029  0.00  0.00    +0.162 C 
ATOM     33  O   UNL     1       0.935  -0.122   0.017  0.00  0.00    -0.292 OA
ENDBRANCH  17  32
ENDBRANCH   1  22
BRANCH  10  34
ATOM     34  C   UNL     1       6.214  -7.138  -4.189  0.00  0.00    +0.262 C 
ATOM     35  O   UNL     1       5.680  -7.761  -5.086  0.00  0.00    -0.269 OA
ATOM     36  N   UNL     1       7.551  -7.198  -4.029  0.00  0.00    -0.324 N 
ATOM     37  H   UNL     1       7.976  -6.700  -3.313  0.00  0.00    +0.145 HD
ATOM     38  H   UNL     1       8.087  -7.740  -4.629  0.00  0.00    +0.145 HD
ENDBRANCH  10  34
TORSDOF 4
