REMARK  Name = CHEMBL1094477
REMARK  4 active torsions:
REMARK  status: ('A' for Active; 'I' for Inactive)
REMARK    1  A    between atoms: C_1  and  C_2
REMARK    2  A    between atoms: C_7  and  N_8
REMARK    3  A    between atoms: C_17  and  C_21
REMARK    4  A    between atoms: N_19  and  C_20
REMARK                            x       y       z     vdW  Elec       q    Type
REMARK                         _______ _______ _______ _____ _____    ______ ____
ROOT
ATOM      1  N   UNL     1       0.026  -0.015   2.416  0.00  0.00    -0.283 N 
ATOM      2  C   UNL     1      -0.058  -0.714   3.610  0.00  0.00    +0.220 A 
ATOM      3  N   UNL     1      -0.034  -2.039   3.586  0.00  0.00    -0.222 NA
ATOM      4  C   UNL     1      -0.128  -2.751   4.699  0.00  0.00    +0.120 A 
ATOM      5  C   UNL     1      -0.244  -2.094   5.910  0.00  0.00    -0.001 A 
ATOM      6  C   UNL     1      -0.238  -0.692   5.899  0.00  0.00    +0.097 A 
ATOM      7  N   UNL     1      -0.155  -0.041   4.748  0.00  0.00    -0.212 NA
ATOM      8  C   UNL     1      -0.275  -0.006   7.202  0.00  0.00    +0.091 A 
ATOM      9  C   UNL     1      -0.035  -0.710   8.363  0.00  0.00    +0.012 A 
ATOM     10  C   UNL     1      -0.157   0.218   9.398  0.00  0.00    +0.151 A 
ATOM     11  N   UNL     1      -0.427   1.390   8.841  0.00  0.00    -0.166 NA
ATOM     12  N   UNL     1      -0.486   1.276   7.556  0.00  0.00    -0.264 N 
ATOM     13  C   UNL     1      -0.744   2.377   6.623  0.00  0.00    +0.173 C 
ATOM     14  C   UNL     1       0.296  -2.174   8.368  0.00  0.00    +0.044 C 
ATOM     15  C   UNL     1      -0.394  -2.863   7.191  0.00  0.00    +0.043 C 
ATOM     16  H   UNL     1      -0.074   0.949   2.411  0.00  0.00    +0.155 HD
ENDROOT
BRANCH   1  23
ATOM     17  C   UNL     1      -1.147   1.012   0.036  0.00  0.00    +0.045 C 
ATOM     18  C   UNL     1      -0.299  -0.234   0.034  0.00  0.00    -0.029 A 
ATOM     19  C   UNL     1      -0.067  -0.910  -1.148  0.00  0.00    +0.005 A 
ATOM     20  C   UNL     1       0.711  -2.054  -1.151  0.00  0.00    +0.000 A 
ATOM     21  C   UNL     1       1.258  -2.525   0.029  0.00  0.00    +0.002 A 
ATOM     22  C   UNL     1       1.029  -1.854   1.214  0.00  0.00    +0.023 A 
ATOM     23  C   UNL     1       0.254  -0.701   1.219  0.00  0.00    +0.036 A 
ENDBRANCH   1  23
BRANCH  10  24
ATOM     24  C   UNL     1      -0.011  -0.053  10.843  0.00  0.00    +0.262 C 
ATOM     25  O   UNL     1       0.239  -1.179  11.227  0.00  0.00    -0.269 OA
ATOM     26  N   UNL     1      -0.157   0.947  11.735  0.00  0.00    -0.324 N 
ATOM     27  H   UNL     1      -0.356   1.845  11.428  0.00  0.00    +0.145 HD
ATOM     28  H   UNL     1      -0.061   0.768  12.683  0.00  0.00    +0.145 HD
ENDBRANCH  10  24
TORSDOF 2
