REMARK  Name = CHEMBL476138
REMARK  6 active torsions:
REMARK  status: ('A' for Active; 'I' for Inactive)
REMARK    1  A    between atoms: C_1  and  C_2
REMARK    2  A    between atoms: C_2  and  N_3
REMARK    3  A    between atoms: C_7  and  N_8
REMARK    4  A    between atoms: N_8  and  C_9
REMARK    5  A    between atoms: C_17  and  C_18
REMARK    6  A    between atoms: C_17  and  C_20
REMARK                            x       y       z     vdW  Elec       q    Type
REMARK                         _______ _______ _______ _____ _____    ______ ____
ROOT
ATOM      1  N   UNL     1      -1.381  -0.489   0.015  0.00  0.00    -0.301 N 
ATOM      2  C   UNL     1      -1.956  -0.816   1.162  0.00  0.00    +0.267 A 
ATOM      3  O   UNL     1      -1.388  -0.689   2.232  0.00  0.00    -0.266 OA
ATOM      4  C   UNL     1      -3.282  -1.327   1.063  0.00  0.00    +0.092 A 
ATOM      5  C   UNL     1      -4.120  -1.742   2.047  0.00  0.00    +0.092 C 
ATOM      6  S   UNL     1      -3.548  -1.274  -0.700  0.00  0.00    -0.063 S 
ATOM      7  C   UNL     1      -2.059  -0.644  -1.162  0.00  0.00    +0.106 A 
ATOM      8  C   UNL     1      -1.615  -0.348  -2.457  0.00  0.00    +0.144 C 
ENDROOT
BRANCH   8   9
ATOM      9  C   UNL     1      -2.508  -0.450  -3.553  0.00  0.00    +0.259 C 
ATOM     10  O   UNL     1      -3.662  -0.795  -3.369  0.00  0.00    -0.269 OA
ATOM     11  N   UNL     1      -2.080  -0.166  -4.799  0.00  0.00    -0.297 N 
ATOM     12  C   UNL     1      -0.719   0.255  -5.163  0.00  0.00    +0.108 C 
ATOM     13  C   UNL     1      -0.705   0.492  -6.688  0.00  0.00    +0.020 C 
ATOM     14  C   UNL     1      -2.201   0.739  -7.015  0.00  0.00    +0.020 C 
ATOM     15  C   UNL     1      -2.898  -0.230  -6.024  0.00  0.00    +0.108 C 
ENDBRANCH   8   9
BRANCH   1  17
ATOM     16  C   UNL     1       0.975  -1.089  -0.258  0.00  0.00    +0.027 C 
ATOM     17  C   UNL     1      -0.017   0.046   0.007  0.00  0.00    +0.122 C 
ENDBRANCH   1  17
BRANCH   5  18
ATOM     18  N   UNL     1      -5.369  -2.204   1.733  0.00  0.00    -0.319 N 
ATOM     19  H   UNL     1      -5.656  -2.234   0.807  0.00  0.00    +0.152 HD
BRANCH  18  20
ATOM     20  C   UNL     1      -6.231  -2.631   2.746  0.00  0.00    +0.031 A 
ATOM     21  C   UNL     1      -5.823  -2.582   4.074  0.00  0.00    +0.023 A 
ATOM     22  C   UNL     1      -6.678  -3.005   5.072  0.00  0.00    +0.002 A 
ATOM     23  C   UNL     1      -7.939  -3.476   4.753  0.00  0.00    +0.000 A 
ATOM     24  C   UNL     1      -8.347  -3.526   3.433  0.00  0.00    +0.002 A 
ATOM     25  C   UNL     1      -7.500  -3.100   2.429  0.00  0.00    +0.023 A 
ENDBRANCH  18  20
ENDBRANCH   5  18
BRANCH   8  26
ATOM     26  C   UNL     1      -0.259   0.058  -2.673  0.00  0.00    +0.107 C 
ATOM     27  N   UNL     1       0.817   0.379  -2.844  0.00  0.00    -0.191 NA
ENDBRANCH   8  26
TORSDOF 5
