REMARK  Name = CHEMBL1208960
REMARK  8 active torsions:
REMARK  status: ('A' for Active; 'I' for Inactive)
REMARK    1  A    between atoms: C_1  and  C_2
REMARK    2  A    between atoms: C_2  and  C_4
REMARK    3  A    between atoms: C_2  and  O_14
REMARK    4  A    between atoms: C_9  and  C_10
REMARK    5  A    between atoms: O_14  and  C_15
REMARK    6  A    between atoms: C_17  and  N_23
REMARK    7  A    between atoms: C_19  and  C_20
REMARK    8  A    between atoms: C_30  and  C_32
REMARK                            x       y       z     vdW  Elec       q    Type
REMARK                         _______ _______ _______ _____ _____    ______ ____
ROOT
ATOM      1  C   UNL     1      -0.114  -0.606  -2.161  0.00  0.00    +0.143 A 
ATOM      2  C   UNL     1      -1.472  -0.398  -2.152  0.00  0.00    +0.080 A 
ATOM      3  C   UNL     1      -2.207  -0.743  -3.253  0.00  0.00    +0.090 A 
ATOM      4  S   UNL     1      -0.962  -1.386  -4.359  0.00  0.00    -0.062 S 
ATOM      5  C   UNL     1       0.461  -1.158  -3.304  0.00  0.00    +0.117 A 
ENDROOT
BRANCH   3   6
ATOM      6  N   UNL     1      -3.578  -0.623  -3.460  0.00  0.00    -0.292 N 
ATOM      7  C   UNL     1      -4.563  -1.041  -2.614  0.00  0.00    +0.205 A 
ATOM      8  N   UNL     1      -5.730  -0.771  -3.119  0.00  0.00    -0.235 NA
ATOM      9  C   UNL     1      -5.578  -0.162  -4.324  0.00  0.00    +0.090 A 
ATOM     10  C   UNL     1      -4.195  -0.052  -4.558  0.00  0.00    +0.074 A 
ATOM     11  C   UNL     1      -3.730   0.542  -5.723  0.00  0.00    +0.029 A 
ATOM     12  C   UNL     1      -4.614   1.026  -6.646  0.00  0.00    +0.010 A 
ATOM     13  C   UNL     1      -5.992   0.928  -6.428  0.00  0.00    -0.016 A 
ATOM     14  C   UNL     1      -6.476   0.329  -5.272  0.00  0.00    +0.038 A 
BRANCH  13  15
ATOM     15  C   UNL     1      -6.939   1.458  -7.438  0.00  0.00    -0.013 A 
ATOM     16  C   UNL     1      -8.322   1.376  -7.238  0.00  0.00    +0.026 A 
ATOM     17  C   UNL     1      -9.171   1.880  -8.199  0.00  0.00    +0.085 A 
ATOM     18  N   UNL     1      -8.699   2.435  -9.300  0.00  0.00    -0.350 N 
ATOM     19  C   UNL     1      -7.398   2.534  -9.531  0.00  0.00    +0.099 A 
ATOM     20  C   UNL     1      -6.476   2.056  -8.610  0.00  0.00    +0.050 A 
ATOM     21  N   UNL     1      -6.952   3.128 -10.706  0.00  0.00    -0.312 N 
ATOM     22  C   UNL     1      -5.524   3.130 -11.059  0.00  0.00    +0.134 C 
ATOM     23  C   UNL     1      -5.380   2.616 -12.497  0.00  0.00    +0.178 C 
ATOM     24  O   UNL     1      -6.247   3.365 -13.353  0.00  0.00    -0.377 OA
ATOM     25  C   UNL     1      -7.636   3.229 -13.043  0.00  0.00    +0.178 C 
ATOM     26  C   UNL     1      -7.895   3.769 -11.637  0.00  0.00    +0.134 C 
ATOM     27  H   UNL     1      -9.322   2.780  -9.958  0.00  0.00    +0.166 HD
ENDBRANCH  13  15
ENDBRANCH   3   6
BRANCH   5  28
ATOM     28  C   UNL     1       1.817  -1.460  -3.562  0.00  0.00    +0.252 C 
ATOM     29  O   UNL     1       2.662  -1.235  -2.714  0.00  0.00    -0.270 OA
ATOM     30  N   UNL     1       2.175  -1.997  -4.745  0.00  0.00    -0.325 N 
ATOM     31  H   UNL     1       1.502  -2.176  -5.420  0.00  0.00    +0.145 HD
ATOM     32  H   UNL     1       3.106  -2.204  -4.921  0.00  0.00    +0.145 HD
ENDBRANCH   5  28
BRANCH   1  33
ATOM     33  O   UNL     1       0.648  -0.277  -1.087  0.00  0.00    -0.483 OA
BRANCH  33  35
ATOM     34  C   UNL     1      -0.300   1.681  -0.034  0.00  0.00    +0.057 C 
ATOM     35  C   UNL     1      -0.038   0.178   0.081  0.00  0.00    +0.201 C 
BRANCH  35  36
ATOM     36  C   UNL     1       0.809  -0.093   1.298  0.00  0.00    +0.004 A 
ATOM     37  C   UNL     1       2.183  -0.191   1.177  0.00  0.00    +0.008 A 
ATOM     38  C   UNL     1       2.959  -0.440   2.293  0.00  0.00    +0.000 A 
ATOM     39  C   UNL     1       2.362  -0.589   3.531  0.00  0.00    +0.001 A 
ATOM     40  C   UNL     1       0.989  -0.489   3.653  0.00  0.00    +0.013 A 
ATOM     41  C   UNL     1       0.213  -0.237   2.537  0.00  0.00    +0.061 A 
BRANCH  41  42
ATOM     42  C   UNL     1      -1.284  -0.123   2.670  0.00  0.00    +0.418 C 
ATOM     43  F   UNL     1      -1.648  -0.304   4.009  0.00  0.00    -0.166 F 
ATOM     44  F   UNL     1      -1.695   1.143   2.242  0.00  0.00    -0.166 F 
ATOM     45  F   UNL     1      -1.898  -1.104   1.884  0.00  0.00    -0.166 F 
ENDBRANCH  41  42
ENDBRANCH  35  36
ENDBRANCH  33  35
ENDBRANCH   1  33
TORSDOF 7
