REMARK  Name = CHEMBL523634
REMARK  6 active torsions:
REMARK  status: ('A' for Active; 'I' for Inactive)
REMARK    1  A    between atoms: C_1  and  C_2
REMARK    2  A    between atoms: C_6  and  C_7
REMARK    3  A    between atoms: C_10  and  N_16
REMARK    4  A    between atoms: N_16  and  C_17
REMARK    5  A    between atoms: C_17  and  C_19
REMARK    6  A    between atoms: C_17  and  C_20
REMARK                            x       y       z     vdW  Elec       q    Type
REMARK                         _______ _______ _______ _____ _____    ______ ____
ROOT
ATOM      1  C   UNL     1       0.026  -0.075   2.504  0.00  0.00    +0.122 A 
ATOM      2  C   UNL     1      -0.050  -0.732   3.817  0.00  0.00    +0.054 A 
ATOM      3  C   UNL     1      -0.141  -2.054   4.250  0.00  0.00    +0.057 A 
ATOM      4  C   UNL     1      -0.194  -2.305   5.612  0.00  0.00    +0.120 A 
ATOM      5  N   UNL     1      -0.160  -1.311   6.490  0.00  0.00    -0.237 NA
ATOM      6  C   UNL     1      -0.074  -0.048   6.122  0.00  0.00    +0.162 A 
ATOM      7  C   UNL     1      -0.016   0.293   4.779  0.00  0.00    +0.186 A 
ATOM      8  O   UNL     1       0.073   1.462   4.112  0.00  0.00    -0.353 OA
ATOM      9  N   UNL     1       0.102   1.212   2.720  0.00  0.00    -0.077 NA
ENDROOT
BRANCH   1  15
ATOM     10  C   UNL     1      -1.701   0.902   0.319  0.00  0.00    +0.045 C 
ATOM     11  C   UNL     1      -0.792  -0.288   0.148  0.00  0.00    -0.034 A 
ATOM     12  C   UNL     1      -0.717  -0.966  -1.019  0.00  0.00    +0.049 A 
ATOM     13  S   UNL     1       0.480  -2.232  -0.649  0.00  0.00    -0.104 S 
ATOM     14  C   UNL     1       0.813  -1.832   0.948  0.00  0.00    +0.055 A 
ATOM     15  C   UNL     1       0.023  -0.747   1.184  0.00  0.00    +0.014 A 
ENDBRANCH   1  15
BRANCH   4  16
ATOM     16  N   UNL     1      -0.286  -3.619   6.066  0.00  0.00    -0.322 N 
ATOM     17  H   UNL     1      -0.324  -3.802   7.018  0.00  0.00    +0.148 HD
BRANCH  16  18
ATOM     18  C   UNL     1      -0.325  -4.725   5.106  0.00  0.00    +0.099 C 
ATOM     19  C   UNL     1      -1.764  -4.942   4.636  0.00  0.00    +0.033 C 
BRANCH  18  20
ATOM     20  C   UNL     1       0.184  -5.981   5.765  0.00  0.00    -0.028 A 
ATOM     21  C   UNL     1      -0.168  -6.267   7.071  0.00  0.00    +0.005 A 
ATOM     22  C   UNL     1       0.298  -7.419   7.676  0.00  0.00    +0.000 A 
ATOM     23  C   UNL     1       1.115  -8.286   6.974  0.00  0.00    +0.000 A 
ATOM     24  C   UNL     1       1.467  -8.000   5.668  0.00  0.00    +0.000 A 
ATOM     25  C   UNL     1       0.997  -6.850   5.062  0.00  0.00    +0.005 A 
ENDBRANCH  18  20
ENDBRANCH  16  18
ENDBRANCH   4  16
TORSDOF 4
