REMARK  Name = CHEMBL503480
REMARK  10 active torsions:
REMARK  status: ('A' for Active; 'I' for Inactive)
REMARK    1  A    between atoms: C_1  and  C_2
REMARK    2  A    between atoms: C_2  and  N_3
REMARK    3  A    between atoms: C_7  and  N_8
REMARK    4  A    between atoms: N_8  and  C_9
REMARK    5  A    between atoms: C_13  and  C_15
REMARK    6  A    between atoms: C_18  and  C_19
REMARK    7  A    between atoms: C_18  and  C_21
REMARK    8  A    between atoms: C_21  and  O_23
REMARK    9  A    between atoms: O_23  and  C_24
REMARK   10  A    between atoms: C_24  and  C_25
REMARK                            x       y       z     vdW  Elec       q    Type
REMARK                         _______ _______ _______ _____ _____    ______ ____
ROOT
ATOM      1  N   UNL     1      -1.381  -0.489   0.015  0.00  0.00    -0.301 N 
ATOM      2  C   UNL     1      -1.956  -0.816   1.162  0.00  0.00    +0.267 A 
ATOM      3  O   UNL     1      -1.388  -0.689   2.232  0.00  0.00    -0.266 OA
ATOM      4  C   UNL     1      -3.282  -1.327   1.064  0.00  0.00    +0.092 A 
ATOM      5  C   UNL     1      -4.120  -1.741   2.048  0.00  0.00    +0.092 C 
ATOM      6  S   UNL     1      -3.548  -1.273  -0.700  0.00  0.00    -0.063 S 
ATOM      7  C   UNL     1      -2.059  -0.644  -1.162  0.00  0.00    +0.108 A 
ATOM      8  C   UNL     1      -1.614  -0.348  -2.457  0.00  0.00    +0.166 C 
ENDROOT
BRANCH   1  10
ATOM      9  C   UNL     1       0.975  -1.089  -0.258  0.00  0.00    +0.027 C 
ATOM     10  C   UNL     1      -0.017   0.046   0.007  0.00  0.00    +0.122 C 
ENDBRANCH   1  10
BRANCH   5  11
ATOM     11  N   UNL     1      -5.369  -2.202   1.734  0.00  0.00    -0.319 N 
ATOM     12  H   UNL     1      -5.656  -2.233   0.807  0.00  0.00    +0.152 HD
BRANCH  11  13
ATOM     13  C   UNL     1      -6.231  -2.629   2.747  0.00  0.00    +0.031 A 
ATOM     14  C   UNL     1      -5.824  -2.581   4.074  0.00  0.00    +0.023 A 
ATOM     15  C   UNL     1      -6.678  -3.004   5.073  0.00  0.00    +0.002 A 
ATOM     16  C   UNL     1      -7.939  -3.475   4.753  0.00  0.00    +0.003 A 
ATOM     17  C   UNL     1      -8.348  -3.525   3.433  0.00  0.00    -0.049 A 
ATOM     18  C   UNL     1      -7.500  -3.098   2.429  0.00  0.00    +0.026 A 
ATOM     19  C   UNL     1      -9.722  -4.039   3.089  0.00  0.00    +0.044 C 
ENDBRANCH  11  13
ENDBRANCH   5  11
BRANCH   8  20
ATOM     20  C   UNL     1      -0.258   0.057  -2.673  0.00  0.00    +0.109 C 
ATOM     21  N   UNL     1       0.818   0.379  -2.845  0.00  0.00    -0.191 NA
ENDBRANCH   8  20
BRANCH   8  22
ATOM     22  C   UNL     1      -2.506  -0.450  -3.552  0.00  0.00    +0.352 C 
ATOM     23  O   UNL     1      -3.658  -0.794  -3.369  0.00  0.00    -0.244 OA
BRANCH  22  24
ATOM     24  O   UNL     1      -2.077  -0.165  -4.800  0.00  0.00    -0.461 OA
BRANCH  24  25
ATOM     25  C   UNL     1      -3.030  -0.289  -5.857  0.00  0.00    +0.229 C 
ATOM     26  C   UNL     1      -2.366   0.072  -7.188  0.00  0.00    +0.048 C 
ENDBRANCH  24  25
ENDBRANCH  22  24
ENDBRANCH   8  22
TORSDOF 7
