REMARK  Name = CHEMBL1092830
REMARK  7 active torsions:
REMARK  status: ('A' for Active; 'I' for Inactive)
REMARK    1  A    between atoms: C_1  and  C_2
REMARK    2  A    between atoms: C_4  and  N_11
REMARK    3  A    between atoms: C_5  and  C_7
REMARK    4  A    between atoms: C_18  and  C_20
REMARK    5  A    between atoms: C_20  and  C_21
REMARK    6  A    between atoms: C_21  and  N_22
REMARK    7  A    between atoms: C_25  and  N_29
REMARK                            x       y       z     vdW  Elec       q    Type
REMARK                         _______ _______ _______ _____ _____    ______ ____
ROOT
ATOM      1  N   UNL     1      -1.375  -3.324  -0.017  0.00  0.00    -0.266 N 
ATOM      2  C   UNL     1      -2.720  -3.239  -0.007  0.00  0.00    +0.310 C 
ATOM      3  O   UNL     1      -3.261  -2.149   0.007  0.00  0.00    -0.252 OA
ATOM      4  N   UNL     1      -3.467  -4.361  -0.014  0.00  0.00    -0.248 N 
ATOM      5  C   UNL     1      -4.854  -4.273  -0.004  0.00  0.00    +0.166 A 
ATOM      6  N   UNL     1      -5.604  -3.193   0.006  0.00  0.00    -0.233 NA
ATOM      7  C   UNL     1      -6.922  -3.278   0.015  0.00  0.00    +0.124 A 
ATOM      8  C   UNL     1      -7.459  -4.522   0.012  0.00  0.00    +0.013 A 
ATOM      9  S   UNL     1      -5.981  -5.523  -0.009  0.00  0.00    -0.057 S 
ATOM     10  H   UNL     1      -0.944  -4.192  -0.029  0.00  0.00    +0.156 HD
ATOM     11  H   UNL     1      -3.036  -5.230  -0.025  0.00  0.00    +0.158 HD
ENDROOT
BRANCH   1  15
ATOM     12  C   UNL     1      -0.018   1.491   0.024  0.00  0.00    +0.086 C 
ATOM     13  C   UNL     1       0.005  -0.016   0.008  0.00  0.00    +0.104 A 
ATOM     14  C   UNL     1      -1.075  -0.818   0.007  0.00  0.00    +0.068 A 
ATOM     15  C   UNL     1      -0.596  -2.152  -0.010  0.00  0.00    +0.085 A 
ATOM     16  C   UNL     1       0.752  -2.081  -0.018  0.00  0.00    +0.229 A 
ATOM     17  O   UNL     1       1.107  -0.783  -0.013  0.00  0.00    -0.454 OA
BRANCH  16  18
ATOM     18  C   UNL     1       1.697  -3.254  -0.036  0.00  0.00    +0.452 C 
ATOM     19  F   UNL     1       1.981  -3.604  -1.361  0.00  0.00    -0.163 F 
ATOM     20  F   UNL     1       2.884  -2.907   0.619  0.00  0.00    -0.163 F 
ATOM     21  F   UNL     1       1.105  -4.341   0.616  0.00  0.00    -0.163 F 
ENDBRANCH  16  18
ENDBRANCH   1  15
BRANCH   8  22
ATOM     22  C   UNL     1      -8.906  -4.945   0.020  0.00  0.00    +0.062 C 
BRANCH  22  23
ATOM     23  C   UNL     1      -9.405  -5.081  -1.420  0.00  0.00    +0.108 C 
BRANCH  23  24
ATOM     24  N   UNL     1     -10.811  -5.492  -1.413  0.00  0.00    -0.329 N 
ATOM     25  C   UNL     1     -11.485  -5.680  -2.610  0.00  0.00    +0.124 A 
ATOM     26  C   UNL     1     -10.833  -5.487  -3.825  0.00  0.00    +0.087 A 
ATOM     27  C   UNL     1     -11.553  -5.689  -4.997  0.00  0.00    +0.130 A 
ATOM     28  N   UNL     1     -12.830  -6.057  -4.917  0.00  0.00    -0.220 NA
ATOM     29  C   UNL     1     -13.412  -6.230  -3.747  0.00  0.00    +0.225 A 
ATOM     30  N   UNL     1     -12.763  -6.053  -2.614  0.00  0.00    -0.221 NA
ATOM     31  H   UNL     1     -11.271  -5.632  -0.570  0.00  0.00    +0.147 HD
BRANCH  27  32
ATOM     32  N   UNL     1     -10.949  -5.510  -6.234  0.00  0.00    -0.269 N 
ATOM     33  C   UNL     1     -11.640  -5.818  -7.395  0.00  0.00    +0.216 A 
ATOM     34  N   UNL     1     -11.155  -5.789  -8.617  0.00  0.00    -0.201 NA
ATOM     35  C   UNL     1     -12.101  -6.145  -9.486  0.00  0.00    +0.246 A 
ATOM     36  N   UNL     1     -13.203  -6.405  -8.834  0.00  0.00    -0.160 NA
ATOM     37  H   UNL     1     -13.548  -6.323  -6.732  0.00  0.00    +0.192 HD
ATOM     38  N   UNL     1     -12.931  -6.207  -7.471  0.00  0.00    -0.247 N 
ATOM     39  H   UNL     1     -10.042  -5.168  -6.287  0.00  0.00    +0.156 HD
ENDBRANCH  27  32
ENDBRANCH  23  24
ENDBRANCH  22  23
ENDBRANCH   8  22
TORSDOF 6
