REMARK  Name = CHEMBL1208960
REMARK  8 active torsions:
REMARK  status: ('A' for Active; 'I' for Inactive)
REMARK    1  A    between atoms: C_1  and  C_2
REMARK    2  A    between atoms: C_2  and  C_4
REMARK    3  A    between atoms: C_2  and  O_14
REMARK    4  A    between atoms: C_9  and  C_10
REMARK    5  A    between atoms: O_14  and  C_15
REMARK    6  A    between atoms: C_17  and  N_23
REMARK    7  A    between atoms: C_19  and  C_20
REMARK    8  A    between atoms: C_30  and  C_32
REMARK                            x       y       z     vdW  Elec       q    Type
REMARK                         _______ _______ _______ _____ _____    ______ ____
ROOT
ATOM      1  C   UNL     1      -0.106  -0.777  -2.244  0.00  0.00    +0.143 A 
ATOM      2  C   UNL     1      -1.460  -0.547  -2.222  0.00  0.00    +0.080 A 
ATOM      3  C   UNL     1      -2.210  -0.872  -3.320  0.00  0.00    +0.090 A 
ATOM      4  S   UNL     1      -0.986  -1.529  -4.440  0.00  0.00    -0.062 S 
ATOM      5  C   UNL     1       0.450  -1.331  -3.396  0.00  0.00    +0.117 A 
ENDROOT
BRANCH   3   6
ATOM      6  N   UNL     1      -3.581  -0.727  -3.513  0.00  0.00    -0.292 N 
ATOM      7  C   UNL     1      -4.565  -1.134  -2.661  0.00  0.00    +0.205 A 
ATOM      8  N   UNL     1      -5.732  -0.841  -3.155  0.00  0.00    -0.235 NA
ATOM      9  C   UNL     1      -5.580  -0.226  -4.357  0.00  0.00    +0.090 A 
ATOM     10  C   UNL     1      -4.197  -0.139  -4.602  0.00  0.00    +0.074 A 
ATOM     11  C   UNL     1      -3.732   0.455  -5.768  0.00  0.00    +0.029 A 
ATOM     12  C   UNL     1      -4.616   0.960  -6.680  0.00  0.00    +0.010 A 
ATOM     13  C   UNL     1      -5.993   0.884  -6.450  0.00  0.00    -0.016 A 
ATOM     14  C   UNL     1      -6.477   0.286  -5.294  0.00  0.00    +0.038 A 
BRANCH  13  15
ATOM     15  C   UNL     1      -6.940   1.437  -7.449  0.00  0.00    -0.013 A 
ATOM     16  C   UNL     1      -8.322   1.377  -7.238  0.00  0.00    +0.028 A 
ATOM     17  C   UNL     1      -9.171   1.901  -8.188  0.00  0.00    +0.113 A 
ATOM     18  N   UNL     1      -8.698   2.456  -9.289  0.00  0.00    -0.240 NA
ATOM     19  C   UNL     1      -7.398   2.534  -9.531  0.00  0.00    +0.122 A 
ATOM     20  C   UNL     1      -6.476   2.034  -8.621  0.00  0.00    +0.052 A 
ATOM     21  N   UNL     1      -6.952   3.128 -10.706  0.00  0.00    -0.311 N 
ATOM     22  C   UNL     1      -7.878   3.864 -11.582  0.00  0.00    +0.134 C 
ATOM     23  C   UNL     1      -7.267   5.236 -11.888  0.00  0.00    +0.178 C 
ATOM     24  O   UNL     1      -5.935   5.059 -12.378  0.00  0.00    -0.377 OA
ATOM     25  C   UNL     1      -5.043   4.453 -11.440  0.00  0.00    +0.178 C 
ATOM     26  C   UNL     1      -5.539   3.045 -11.108  0.00  0.00    +0.134 C 
ENDBRANCH  13  15
ENDBRANCH   3   6
BRANCH   5  27
ATOM     27  C   UNL     1       1.798  -1.655  -3.667  0.00  0.00    +0.252 C 
ATOM     28  O   UNL     1       2.655  -1.449  -2.825  0.00  0.00    -0.270 OA
ATOM     29  N   UNL     1       2.137  -2.190  -4.857  0.00  0.00    -0.325 N 
ATOM     30  H   UNL     1       1.455  -2.353  -5.527  0.00  0.00    +0.145 HD
ATOM     31  H   UNL     1       3.063  -2.412  -5.043  0.00  0.00    +0.145 HD
ENDBRANCH   5  27
BRANCH   1  32
ATOM     32  O   UNL     1       0.671  -0.468  -1.175  0.00  0.00    -0.483 OA
BRANCH  32  34
ATOM     33  C   UNL     1      -0.227   1.503  -0.104  0.00  0.00    +0.057 C 
ATOM     34  C   UNL     1       0.003  -0.006   0.001  0.00  0.00    +0.201 C 
BRANCH  34  35
ATOM     35  C   UNL     1       0.852  -0.302   1.210  0.00  0.00    +0.004 A 
ATOM     36  C   UNL     1       2.222  -0.430   1.078  0.00  0.00    +0.008 A 
ATOM     37  C   UNL     1       3.001  -0.702   2.188  0.00  0.00    +0.000 A 
ATOM     38  C   UNL     1       2.409  -0.845   3.429  0.00  0.00    +0.001 A 
ATOM     39  C   UNL     1       1.039  -0.716   3.561  0.00  0.00    +0.013 A 
ATOM     40  C   UNL     1       0.261  -0.440   2.452  0.00  0.00    +0.061 A 
BRANCH  40  41
ATOM     41  C   UNL     1      -1.232  -0.294   2.596  0.00  0.00    +0.418 C 
ATOM     42  F   UNL     1      -1.590  -0.475   3.937  0.00  0.00    -0.166 F 
ATOM     43  F   UNL     1      -1.618   0.984   2.179  0.00  0.00    -0.166 F 
ATOM     44  F   UNL     1      -1.873  -1.256   1.808  0.00  0.00    -0.166 F 
ENDBRANCH  40  41
ENDBRANCH  34  35
ENDBRANCH  32  34
ENDBRANCH   1  32
TORSDOF 7
