REMARK  Name = CHEMBL497167
REMARK  9 active torsions:
REMARK  status: ('A' for Active; 'I' for Inactive)
REMARK    1  A    between atoms: C_1  and  C_2
REMARK    2  A    between atoms: C_6  and  N_28
REMARK    3  A    between atoms: N_9  and  C_11
REMARK    4  A    between atoms: C_13  and  C_18
REMARK    5  A    between atoms: C_23  and  N_24
REMARK    6  A    between atoms: C_25  and  C_27
REMARK    7  A    between atoms: N_28  and  C_29
REMARK    8  A    between atoms: C_29  and  C_31
REMARK    9  A    between atoms: C_29  and  C_32
REMARK                            x       y       z     vdW  Elec       q    Type
REMARK                         _______ _______ _______ _____ _____    ______ ____
ROOT
ATOM      1  C   UNL     1      -0.025   1.515   0.023  0.00  0.00    +0.068 C 
ATOM      2  C   UNL     1       0.003   0.008   0.012  0.00  0.00    +0.070 A 
ATOM      3  C   UNL     1       0.020  -0.843  -1.173  0.00  0.00    +0.041 A 
ATOM      4  C   UNL     1       0.015  -0.611  -2.549  0.00  0.00    +0.124 A 
ATOM      5  N   UNL     1       0.035  -1.621  -3.391  0.00  0.00    -0.240 NA
ATOM      6  C   UNL     1       0.059  -2.885  -2.982  0.00  0.00    +0.121 A 
ATOM      7  C   UNL     1       0.064  -3.205  -1.635  0.00  0.00    +0.072 A 
ATOM      8  C   UNL     1       0.045  -2.174  -0.701  0.00  0.00    +0.080 A 
ATOM      9  N   UNL     1       0.043  -2.109   0.666  0.00  0.00    -0.232 N 
ATOM     10  N   UNL     1       0.024  -0.766   1.060  0.00  0.00    -0.170 NA
ENDROOT
BRANCH   9  11
ATOM     11  C   UNL     1       0.063  -3.209   1.532  0.00  0.00    +0.068 A 
ATOM     12  C   UNL     1       0.746  -3.131   2.737  0.00  0.00    +0.036 A 
ATOM     13  C   UNL     1       0.764  -4.228   3.595  0.00  0.00    -0.013 A 
ATOM     14  C   UNL     1       0.095  -5.398   3.239  0.00  0.00    +0.028 A 
ATOM     15  C   UNL     1      -0.583  -5.468   2.037  0.00  0.00    +0.044 A 
ATOM     16  C   UNL     1      -0.605  -4.377   1.187  0.00  0.00    +0.047 A 
ATOM     17 CL   UNL     1      -1.413  -6.927   1.595  0.00  0.00    -0.083 Cl
BRANCH  13  18
ATOM     18  C   UNL     1       1.492  -4.151   4.884  0.00  0.00    +0.003 A 
ATOM     19  C   UNL     1       2.807  -3.693   4.919  0.00  0.00    +0.010 A 
ATOM     20  C   UNL     1       3.481  -3.623   6.121  0.00  0.00    +0.001 A 
ATOM     21  C   UNL     1       2.856  -4.007   7.295  0.00  0.00    +0.002 A 
ATOM     22  C   UNL     1       1.552  -4.463   7.273  0.00  0.00    +0.024 A 
ATOM     23  C   UNL     1       0.860  -4.533   6.073  0.00  0.00    +0.041 A 
BRANCH  23  24
ATOM     24  N   UNL     1      -0.461  -4.988   6.050  0.00  0.00    -0.285 N 
ATOM     25  C   UNL     1      -0.855  -5.956   6.901  0.00  0.00    +0.214 C 
ATOM     26  O   UNL     1      -0.086  -6.375   7.741  0.00  0.00    -0.276 OA
ATOM     27  C   UNL     1      -2.250  -6.519   6.808  0.00  0.00    +0.109 C 
ATOM     28  H   UNL     1      -1.094  -4.607   5.422  0.00  0.00    +0.155 HD
ENDBRANCH  23  24
ENDBRANCH  13  18
ENDBRANCH   9  11
BRANCH   6  29
ATOM     29  N   UNL     1       0.078  -3.907  -3.926  0.00  0.00    -0.322 N 
ATOM     30  H   UNL     1       0.074  -3.693  -4.872  0.00  0.00    +0.148 HD
BRANCH  29  31
ATOM     31  C   UNL     1       0.104  -5.306  -3.491  0.00  0.00    +0.099 C 
ATOM     32  C   UNL     1      -1.324  -5.783  -3.220  0.00  0.00    +0.033 C 
BRANCH  31  33
ATOM     33  C   UNL     1       0.721  -6.156  -4.572  0.00  0.00    -0.028 A 
ATOM     34  C   UNL     1       0.428  -5.907  -5.899  0.00  0.00    +0.005 A 
ATOM     35  C   UNL     1       0.994  -6.687  -6.890  0.00  0.00    +0.000 A 
ATOM     36  C   UNL     1       1.853  -7.716  -6.554  0.00  0.00    +0.000 A 
ATOM     37  C   UNL     1       2.147  -7.965  -5.226  0.00  0.00    +0.000 A 
ATOM     38  C   UNL     1       1.584  -7.182  -4.235  0.00  0.00    +0.005 A 
ENDBRANCH  31  33
ENDBRANCH  29  31
ENDBRANCH   6  29
TORSDOF 6
