REMARK  Name = CHEMBL560488
REMARK  8 active torsions:
REMARK  status: ('A' for Active; 'I' for Inactive)
REMARK    1  A    between atoms: C_1  and  C_2
REMARK    2  A    between atoms: C_2  and  C_4
REMARK    3  A    between atoms: C_2  and  O_13
REMARK    4  A    between atoms: C_7  and  C_11
REMARK    5  A    between atoms: C_11  and  O_12
REMARK    6  A    between atoms: O_13  and  C_14
REMARK    7  A    between atoms: C_16  and  C_22
REMARK    8  A    between atoms: C_18  and  C_19
REMARK                            x       y       z     vdW  Elec       q    Type
REMARK                         _______ _______ _______ _____ _____    ______ ____
ROOT
ATOM      1  C   UNL     1       2.025  -0.553  -1.118  0.00  0.00    +0.141 A 
ATOM      2  C   UNL     1       2.695  -0.315   0.053  0.00  0.00    +0.064 A 
ATOM      3  C   UNL     1       4.080  -0.417   0.061  0.00  0.00    +0.042 A 
ATOM      4  S   UNL     1       4.439  -0.860  -1.630  0.00  0.00    -0.079 S 
ATOM      5  C   UNL     1       2.765  -0.893  -2.250  0.00  0.00    +0.116 A 
ENDROOT
BRANCH   3   6
ATOM      6  C   UNL     1       5.011  -0.211   1.176  0.00  0.00    +0.078 A 
ATOM      7  C   UNL     1       4.680   0.034   2.494  0.00  0.00    +0.111 A 
ATOM      8  N   UNL     1       5.804   0.161   3.189  0.00  0.00    -0.345 N 
ATOM      9  C   UNL     1       6.849   0.010   2.382  0.00  0.00    +0.116 A 
ATOM     10  N   UNL     1       6.389  -0.230   1.115  0.00  0.00    -0.300 N 
ATOM     11  C   UNL     1       7.261  -0.429   0.086  0.00  0.00    +0.093 A 
ATOM     12  C   UNL     1       8.595  -0.395   0.299  0.00  0.00    +0.018 A 
ATOM     13  C   UNL     1       9.098  -0.155   1.587  0.00  0.00    +0.005 A 
ATOM     14  C   UNL     1       8.236   0.053   2.620  0.00  0.00    +0.045 A 
ATOM     15  H   UNL     1       5.855   0.338   4.142  0.00  0.00    +0.167 HD
ENDBRANCH   3   6
BRANCH   5  16
ATOM     16  C   UNL     1       2.308  -1.187  -3.554  0.00  0.00    +0.252 C 
ATOM     17  O   UNL     1       1.115  -1.159  -3.801  0.00  0.00    -0.270 OA
ATOM     18  N   UNL     1       3.191  -1.497  -4.523  0.00  0.00    -0.325 N 
ATOM     19  H   UNL     1       4.140  -1.519  -4.326  0.00  0.00    +0.145 HD
ATOM     20  H   UNL     1       2.877  -1.699  -5.419  0.00  0.00    +0.145 HD
ENDBRANCH   5  16
BRANCH   1  21
ATOM     21  O   UNL     1       0.671  -0.465  -1.174  0.00  0.00    -0.483 OA
BRANCH  21  23
ATOM     22  C   UNL     1      -0.050   1.264   0.353  0.00  0.00    +0.057 C 
ATOM     23  C   UNL     1      -0.016  -0.237   0.059  0.00  0.00    +0.202 C 
BRANCH  23  24
ATOM     24  C   UNL     1      -1.425  -0.760  -0.048  0.00  0.00    +0.011 A 
ATOM     25  C   UNL     1      -2.030  -0.871  -1.286  0.00  0.00    +0.009 A 
ATOM     26  C   UNL     1      -3.323  -1.350  -1.383  0.00  0.00    +0.006 A 
ATOM     27  C   UNL     1      -4.012  -1.719  -0.243  0.00  0.00    -0.021 A 
ATOM     28  C   UNL     1      -3.408  -1.608   0.996  0.00  0.00    +0.026 A 
ATOM     29  C   UNL     1      -2.112  -1.134   1.093  0.00  0.00    +0.048 A 
ATOM     30 CL   UNL     1      -1.351  -1.001   2.648  0.00  0.00    -0.083 Cl
BRANCH  27  31
ATOM     31  C   UNL     1      -5.421  -2.241  -0.350  0.00  0.00    +0.191 C 
BRANCH  31  32
ATOM     32  O   UNL     1      -5.393  -3.662  -0.503  0.00  0.00    -0.390 OA
ATOM     33  H   UNL     1      -6.267  -4.067  -0.579  0.00  0.00    +0.210 HD
ENDBRANCH  31  32
ENDBRANCH  27  31
ENDBRANCH  23  24
ENDBRANCH  21  23
ENDBRANCH   1  21
TORSDOF 7
