REMARK  Name = CHEMBL1092830
REMARK  7 active torsions:
REMARK  status: ('A' for Active; 'I' for Inactive)
REMARK    1  A    between atoms: C_1  and  C_2
REMARK    2  A    between atoms: C_4  and  N_11
REMARK    3  A    between atoms: C_5  and  C_7
REMARK    4  A    between atoms: C_18  and  C_20
REMARK    5  A    between atoms: C_20  and  C_21
REMARK    6  A    between atoms: C_21  and  N_22
REMARK    7  A    between atoms: C_25  and  N_29
REMARK                            x       y       z     vdW  Elec       q    Type
REMARK                         _______ _______ _______ _____ _____    ______ ____
ROOT
ATOM      1  N   UNL     1      -2.211  -0.920  -0.097  0.00  0.00    -0.266 N 
ATOM      2  C   UNL     1      -3.548  -1.087  -0.126  0.00  0.00    +0.310 C 
ATOM      3  O   UNL     1      -4.278  -0.122  -0.248  0.00  0.00    -0.252 OA
ATOM      4  N   UNL     1      -4.075  -2.323  -0.021  0.00  0.00    -0.248 N 
ATOM      5  C   UNL     1      -5.454  -2.494  -0.052  0.00  0.00    +0.166 A 
ATOM      6  N   UNL     1      -6.390  -1.578  -0.182  0.00  0.00    -0.233 NA
ATOM      7  C   UNL     1      -7.669  -1.906  -0.193  0.00  0.00    +0.124 A 
ATOM      8  C   UNL     1      -7.969  -3.222  -0.066  0.00  0.00    +0.013 A 
ATOM      9  S   UNL     1      -6.333  -3.926   0.060  0.00  0.00    -0.057 S 
ATOM     10  H   UNL     1      -1.628  -1.690   0.000  0.00  0.00    +0.156 HD
ATOM     11  H   UNL     1      -3.493  -3.092   0.075  0.00  0.00    +0.158 HD
ENDROOT
BRANCH   1  15
ATOM     12  C   UNL     1      -1.760   4.038  -0.574  0.00  0.00    +0.086 C 
ATOM     13  C   UNL     1      -1.461   2.569  -0.418  0.00  0.00    +0.104 A 
ATOM     14  C   UNL     1      -2.375   1.585  -0.352  0.00  0.00    +0.068 A 
ATOM     15  C   UNL     1      -1.660   0.370  -0.206  0.00  0.00    +0.085 A 
ATOM     16  C   UNL     1      -0.349   0.689  -0.193  0.00  0.00    +0.229 A 
ATOM     17  O   UNL     1      -0.237   2.023  -0.327  0.00  0.00    -0.454 OA
BRANCH  16  18
ATOM     18  C   UNL     1       0.795  -0.282  -0.056  0.00  0.00    +0.452 C 
ATOM     19  F   UNL     1       1.195  -0.714  -1.325  0.00  0.00    -0.163 F 
ATOM     20  F   UNL     1       1.869   0.348   0.582  0.00  0.00    -0.163 F 
ATOM     21  F   UNL     1       0.384  -1.383   0.703  0.00  0.00    -0.163 F 
ENDBRANCH  16  18
ENDBRANCH   1  15
BRANCH   8  22
ATOM     22  C   UNL     1      -9.313  -3.903  -0.042  0.00  0.00    +0.062 C 
BRANCH  22  23
ATOM     23  C   UNL     1      -9.717  -4.284  -1.468  0.00  0.00    +0.108 C 
BRANCH  23  24
ATOM     24  N   UNL     1     -11.023  -4.946  -1.444  0.00  0.00    -0.329 N 
ATOM     25  C   UNL     1     -11.599  -5.385  -2.627  0.00  0.00    +0.124 A 
ATOM     26  C   UNL     1     -10.942  -5.206  -3.841  0.00  0.00    +0.085 A 
ATOM     27  C   UNL     1     -11.562  -5.664  -4.999  0.00  0.00    +0.107 A 
ATOM     28  N   UNL     1     -12.753  -6.253  -4.905  0.00  0.00    -0.334 N 
ATOM     29  C   UNL     1     -13.343  -6.404  -3.736  0.00  0.00    +0.199 A 
ATOM     30  N   UNL     1     -12.786  -5.988  -2.617  0.00  0.00    -0.223 NA
ATOM     31  H   UNL     1     -11.485  -5.078  -0.602  0.00  0.00    +0.147 HD
ATOM     32  H   UNL     1     -13.192  -6.575  -5.707  0.00  0.00    +0.168 HD
BRANCH  27  33
ATOM     33  N   UNL     1     -10.949  -5.510  -6.234  0.00  0.00    -0.270 N 
ATOM     34  C   UNL     1      -9.651  -5.029  -6.308  0.00  0.00    +0.216 A 
ATOM     35  N   UNL     1      -8.855  -4.788  -5.289  0.00  0.00    -0.201 NA
ATOM     36  C   UNL     1      -7.682  -4.335  -5.732  0.00  0.00    +0.246 A 
ATOM     37  N   UNL     1      -7.710  -4.280  -7.037  0.00  0.00    -0.160 NA
ATOM     38  H   UNL     1      -9.303  -4.812  -8.349  0.00  0.00    +0.192 HD
ATOM     39  N   UNL     1      -8.977  -4.732  -7.439  0.00  0.00    -0.247 N 
ATOM     40  H   UNL     1     -11.428  -5.738  -7.046  0.00  0.00    +0.156 HD
ENDBRANCH  27  33
ENDBRANCH  23  24
ENDBRANCH  22  23
ENDBRANCH   8  22
TORSDOF 6
