REMARK  Name = CHEMBL1096028
REMARK  7 active torsions:
REMARK  status: ('A' for Active; 'I' for Inactive)
REMARK    1  A    between atoms: C_1  and  C_2
REMARK    2  A    between atoms: C_2  and  C_4
REMARK    3  A    between atoms: C_6  and  N_28
REMARK    4  A    between atoms: C_9  and  N_10
REMARK    5  A    between atoms: C_19  and  C_23
REMARK    6  A    between atoms: N_21  and  C_22
REMARK    7  A    between atoms: N_31  and  C_34
REMARK                            x       y       z     vdW  Elec       q    Type
REMARK                         _______ _______ _______ _____ _____    ______ ____
ROOT
ATOM      1  N   UNL     1      -0.035  -2.834  -0.223  0.00  0.00    -0.283 N 
ATOM      2  C   UNL     1       0.163  -3.972  -0.989  0.00  0.00    +0.220 A 
ATOM      3  N   UNL     1      -0.876  -4.536  -1.588  0.00  0.00    -0.222 NA
ATOM      4  C   UNL     1      -0.741  -5.634  -2.317  0.00  0.00    +0.120 A 
ATOM      5  C   UNL     1       0.515  -6.195  -2.461  0.00  0.00    -0.001 A 
ATOM      6  C   UNL     1       1.595  -5.555  -1.835  0.00  0.00    +0.097 A 
ATOM      7  N   UNL     1       1.387  -4.467  -1.109  0.00  0.00    -0.212 NA
ATOM      8  C   UNL     1       2.937  -6.114  -2.069  0.00  0.00    +0.091 A 
ATOM      9  C   UNL     1       3.141  -7.034  -3.075  0.00  0.00    +0.012 A 
ATOM     10  C   UNL     1       4.496  -7.362  -3.017  0.00  0.00    +0.151 A 
ATOM     11  N   UNL     1       5.029  -6.643  -2.041  0.00  0.00    -0.166 NA
ATOM     12  N   UNL     1       4.133  -5.898  -1.486  0.00  0.00    -0.264 N 
ATOM     13  C   UNL     1       4.378  -4.960  -0.387  0.00  0.00    +0.173 C 
ATOM     14  C   UNL     1       2.041  -7.490  -3.989  0.00  0.00    +0.044 C 
ATOM     15  C   UNL     1       0.706  -7.461  -3.243  0.00  0.00    +0.043 C 
ATOM     16  H   UNL     1       0.727  -2.364   0.152  0.00  0.00    +0.155 HD
ENDROOT
BRANCH   1  22
ATOM     17  C   UNL     1      -1.599  -0.989  -0.067  0.00  0.00    +0.040 A 
ATOM     18  C   UNL     1      -2.902  -0.530   0.162  0.00  0.00    +0.036 A 
ATOM     19  C   UNL     1      -3.905  -1.432   0.463  0.00  0.00    +0.030 A 
ATOM     20  C   UNL     1      -3.624  -2.794   0.541  0.00  0.00    +0.025 A 
ATOM     21  C   UNL     1      -2.344  -3.256   0.318  0.00  0.00    +0.026 A 
ATOM     22  C   UNL     1      -1.324  -2.365   0.008  0.00  0.00    +0.044 A 
BRANCH  19  23
ATOM     23  N   UNL     1      -5.208  -0.975   0.692  0.00  0.00    -0.333 N 
ATOM     24  C   UNL     1      -6.264  -1.894   1.143  0.00  0.00    +0.086 C 
ATOM     25  C   UNL     1      -6.955  -1.278   2.365  0.00  0.00    -0.060 C 
ATOM     26  N   UNL     1      -7.429   0.070   2.029  0.00  0.00    +0.380 N 
ATOM     27  C   UNL     1      -6.285   0.945   1.739  0.00  0.00    -0.060 C 
ATOM     28  C   UNL     1      -5.560   0.440   0.492  0.00  0.00    +0.086 C 
ATOM     29  C   UNL     1      -8.186   0.618   3.162  0.00  0.00    -0.096 C 
ATOM     30  H   UNL     1      -8.028   0.023   1.218  0.00  0.00    -0.082 HD
ENDBRANCH  19  23
BRANCH  17  32
ATOM     31  C   UNL     1      -0.842   1.426  -0.547  0.00  0.00    +0.091 C 
ATOM     32  C   UNL     1      -0.527  -0.039  -0.387  0.00  0.00    +0.162 C 
ATOM     33  O   UNL     1       0.612  -0.433  -0.524  0.00  0.00    -0.292 OA
ENDBRANCH  17  32
ENDBRANCH   1  22
BRANCH  10  34
ATOM     34  C   UNL     1       5.202  -8.331  -3.880  0.00  0.00    +0.262 C 
ATOM     35  O   UNL     1       4.593  -8.931  -4.744  0.00  0.00    -0.269 OA
ATOM     36  N   UNL     1       6.521  -8.549  -3.709  0.00  0.00    -0.324 N 
ATOM     37  H   UNL     1       7.006  -8.070  -3.019  0.00  0.00    +0.145 HD
ATOM     38  H   UNL     1       6.984  -9.185  -4.276  0.00  0.00    +0.145 HD
ENDBRANCH  10  34
TORSDOF 4
