REMARK  Name = CHEMBL522829
REMARK  12 active torsions:
REMARK  status: ('A' for Active; 'I' for Inactive)
REMARK    1  A    between atoms: C_1  and  C_2
REMARK    2  A    between atoms: C_2  and  C_4
REMARK    3  A    between atoms: C_2  and  O_11
REMARK    4  A    between atoms: O_11  and  C_12
REMARK    5  A    between atoms: C_14  and  N_20
REMARK    6  A    between atoms: C_16  and  C_17
REMARK    7  A    between atoms: C_26  and  O_29
REMARK    8  A    between atoms: O_29  and  C_30
REMARK    9  A    between atoms: C_30  and  C_31
REMARK   10  A    between atoms: C_31  and  C_33
REMARK   11  A    between atoms: C_31  and  O_39
REMARK   12  A    between atoms: C_33  and  N_34
REMARK                            x       y       z     vdW  Elec       q    Type
REMARK                         _______ _______ _______ _____ _____    ______ ____
ROOT
ATOM      1  N   UNL     1      -3.443  -0.345   3.706  0.00  0.00    -0.292 N 
ATOM      2  C   UNL     1      -4.202   0.724   3.323  0.00  0.00    +0.205 A 
ATOM      3  N   UNL     1      -5.434   0.554   3.702  0.00  0.00    -0.235 NA
ATOM      4  C   UNL     1      -5.555  -0.632   4.353  0.00  0.00    +0.090 A 
ATOM      5  C   UNL     1      -4.282  -1.229   4.360  0.00  0.00    +0.077 A 
ATOM      6  C   UNL     1      -4.102  -2.466   4.959  0.00  0.00    +0.074 A 
ATOM      7  C   UNL     1      -5.179  -3.108   5.544  0.00  0.00    +0.123 A 
ATOM      8  C   UNL     1      -6.439  -2.517   5.532  0.00  0.00    +0.048 A 
ATOM      9  C   UNL     1      -6.629  -1.294   4.953  0.00  0.00    +0.033 A 
ENDROOT
BRANCH   1  12
ATOM     10  C   UNL     1      -0.030  -0.600   2.302  0.00  0.00    +0.143 A 
ATOM     11  C   UNL     1      -1.386  -0.382   2.304  0.00  0.00    +0.080 A 
ATOM     12  C   UNL     1      -2.081  -0.515   3.476  0.00  0.00    +0.090 A 
ATOM     13  S   UNL     1      -0.799  -0.963   4.634  0.00  0.00    -0.062 S 
ATOM     14  C   UNL     1       0.583  -0.954   3.503  0.00  0.00    +0.117 A 
BRANCH  14  15
ATOM     15  C   UNL     1       1.944  -1.232   3.759  0.00  0.00    +0.252 C 
ATOM     16  O   UNL     1       2.758  -1.175   2.854  0.00  0.00    -0.270 OA
ATOM     17  N   UNL     1       2.342  -1.561   5.004  0.00  0.00    -0.325 N 
ATOM     18  H   UNL     1       1.694  -1.607   5.724  0.00  0.00    +0.145 HD
ATOM     19  H   UNL     1       3.277  -1.752   5.179  0.00  0.00    +0.145 HD
ENDBRANCH  14  15
BRANCH  10  20
ATOM     20  O   UNL     1       0.693  -0.477   1.160  0.00  0.00    -0.483 OA
BRANCH  20  22
ATOM     21  C   UNL     1      -0.296   1.264  -0.193  0.00  0.00    +0.057 C 
ATOM     22  C   UNL     1      -0.034  -0.236  -0.046  0.00  0.00    +0.202 C 
BRANCH  22  23
ATOM     23  C   UNL     1       0.770  -0.723  -1.224  0.00  0.00    +0.011 A 
ATOM     24  C   UNL     1       2.146  -0.815  -1.131  0.00  0.00    +0.008 A 
ATOM     25  C   UNL     1       2.884  -1.261  -2.211  0.00  0.00    +0.000 A 
ATOM     26  C   UNL     1       2.247  -1.617  -3.385  0.00  0.00    +0.001 A 
ATOM     27  C   UNL     1       0.871  -1.526  -3.479  0.00  0.00    +0.020 A 
ATOM     28  C   UNL     1       0.131  -1.084  -2.397  0.00  0.00    +0.048 A 
ATOM     29 CL   UNL     1      -1.598  -0.976  -2.512  0.00  0.00    -0.083 Cl
ENDBRANCH  22  23
ENDBRANCH  20  22
ENDBRANCH  10  20
ENDBRANCH   1  12
BRANCH   7  30
ATOM     30  O   UNL     1      -5.007  -4.322   6.132  0.00  0.00    -0.489 OA
BRANCH  30  31
ATOM     31  C   UNL     1      -6.160  -4.929   6.716  0.00  0.00    +0.258 C 
BRANCH  31  32
ATOM     32  C   UNL     1      -5.773  -6.279   7.325  0.00  0.00    +0.135 C 
BRANCH  32  33
ATOM     33  O   UNL     1      -4.866  -6.070   8.409  0.00  0.00    -0.390 OA
ATOM     34  H   UNL     1      -5.225  -5.527   9.124  0.00  0.00    +0.210 HD
ENDBRANCH  32  33
BRANCH  32  35
ATOM     35  C   UNL     1      -7.029  -6.985   7.840  0.00  0.00    -0.044 C 
BRANCH  35  36
ATOM     36  N   UNL     1      -6.657  -8.281   8.424  0.00  0.00    +0.381 N 
ATOM     37  C   UNL     1      -5.883  -8.075   9.675  0.00  0.00    -0.079 C 
ATOM     38  C   UNL     1      -6.063  -9.418  10.427  0.00  0.00    -0.020 C 
ATOM     39  C   UNL     1      -7.526  -9.801  10.106  0.00  0.00    -0.020 C 
ATOM     40  C   UNL     1      -7.870  -9.029   8.818  0.00  0.00    -0.079 C 
ATOM     41  H   UNL     1      -6.116  -8.818   7.763  0.00  0.00    -0.082 HD
ENDBRANCH  35  36
ENDBRANCH  32  35
ENDBRANCH  31  32
ENDBRANCH  30  31
ENDBRANCH   7  30
TORSDOF 11
