REMARK  Name = CHEMBL476124
REMARK  3 active torsions:
REMARK  status: ('A' for Active; 'I' for Inactive)
REMARK    1  A    between atoms: C_2  and  C_17
REMARK    2  A    between atoms: C_4  and  N_14
REMARK    3  A    between atoms: C_9  and  C_11
REMARK                            x       y       z     vdW  Elec       q    Type
REMARK                         _______ _______ _______ _____ _____    ______ ____
ROOT
ATOM      1  C   UNL     1      -0.017   1.413   0.010  0.00  0.00    +0.043 A 
ATOM      2  C   UNL     1       1.140   2.125   0.003  0.00  0.00    +0.059 A 
ATOM      3  C   UNL     1       2.381   1.502  -0.013  0.00  0.00    +0.046 A 
ATOM      4  C   UNL     1       2.448   0.122  -0.021  0.00  0.00    +0.143 A 
ATOM      5  C   UNL     1       1.284  -0.610  -0.013  0.00  0.00    +0.071 A 
ATOM      6  C   UNL     1       0.002  -0.004   0.002  0.00  0.00    +0.103 A 
ATOM      7  N   UNL     1      -1.038  -0.846   0.007  0.00  0.00    -0.120 N 
ATOM      8  O   UNL     1      -2.347  -0.306   0.022  0.00  0.00    -0.163 OA
ATOM      9  C   UNL     1      -0.896  -2.153  -0.002  0.00  0.00    +0.185 A 
ATOM     10  S   UNL     1       0.882  -2.341  -0.019  0.00  0.00    -0.059 S 
ENDROOT
BRANCH   9  11
ATOM     11  C   UNL     1      -1.936  -3.197   0.002  0.00  0.00    +0.268 C 
ATOM     12  O   UNL     1      -3.111  -2.884   0.015  0.00  0.00    -0.268 OA
ATOM     13  N   UNL     1      -1.585  -4.498  -0.009  0.00  0.00    -0.324 N 
ATOM     14  H   UNL     1      -0.648  -4.748  -0.020  0.00  0.00    +0.145 HD
ATOM     15  H   UNL     1      -2.270  -5.185  -0.007  0.00  0.00    +0.145 HD
ENDBRANCH   9  11
BRANCH   2  16
ATOM     16  C   UNL     1       1.075   3.630   0.011  0.00  0.00    +0.418 C 
ATOM     17  F   UNL     1       1.067   4.090   1.332  0.00  0.00    -0.166 F 
ATOM     18  F   UNL     1       2.190   4.149  -0.657  0.00  0.00    -0.166 F 
ATOM     19  F   UNL     1      -0.092   4.050  -0.636  0.00  0.00    -0.166 F 
ENDBRANCH   2  16
BRANCH   4  20
ATOM     20  N   UNL     1       3.760  -0.562  -0.037  0.00  0.00    +0.058 N 
ATOM     21  O   UNL     1       4.780   0.086  -0.044  0.00  0.00    -0.126 OA
ATOM     22  O   UNL     1       3.812  -1.770  -0.044  0.00  0.00    -0.126 OA
ENDBRANCH   4  20
TORSDOF 3
