REMARK  Name = CHEMBL557126
REMARK  9 active torsions:
REMARK  status: ('A' for Active; 'I' for Inactive)
REMARK    1  A    between atoms: C_1  and  C_2
REMARK    2  A    between atoms: C_2  and  C_4
REMARK    3  A    between atoms: C_2  and  O_19
REMARK    4  A    between atoms: C_7  and  C_11
REMARK    5  A    between atoms: C_11  and  N_12
REMARK    6  A    between atoms: N_15  and  C_18
REMARK    7  A    between atoms: O_19  and  C_20
REMARK    8  A    between atoms: C_22  and  C_28
REMARK    9  A    between atoms: C_24  and  C_25
REMARK                            x       y       z     vdW  Elec       q    Type
REMARK                         _______ _______ _______ _____ _____    ______ ____
ROOT
ATOM      1  C   UNL     1      -0.030  -0.600   2.303  0.00  0.00    +0.141 A 
ATOM      2  C   UNL     1      -1.381  -0.377   2.304  0.00  0.00    +0.064 A 
ATOM      3  C   UNL     1      -2.079  -0.514   3.497  0.00  0.00    +0.042 A 
ATOM      4  S   UNL     1      -0.787  -0.969   4.643  0.00  0.00    -0.079 S 
ATOM      5  C   UNL     1       0.585  -0.960   3.502  0.00  0.00    +0.116 A 
ENDROOT
BRANCH   3   6
ATOM      6  C   UNL     1      -3.512  -0.331   3.752  0.00  0.00    +0.078 A 
ATOM      7  C   UNL     1      -4.492  -0.076   2.812  0.00  0.00    +0.111 A 
ATOM      8  N   UNL     1      -5.657   0.024   3.442  0.00  0.00    -0.345 N 
ATOM      9  C   UNL     1      -5.477  -0.155   4.747  0.00  0.00    +0.116 A 
ATOM     10  N   UNL     1      -4.146  -0.385   4.975  0.00  0.00    -0.300 N 
ATOM     11  C   UNL     1      -3.688  -0.607   6.239  0.00  0.00    +0.093 A 
ATOM     12  C   UNL     1      -4.539  -0.607   7.289  0.00  0.00    +0.018 A 
ATOM     13  C   UNL     1      -5.909  -0.378   7.088  0.00  0.00    +0.005 A 
ATOM     14  C   UNL     1      -6.376  -0.147   5.830  0.00  0.00    +0.045 A 
ATOM     15  H   UNL     1      -6.509   0.200   3.014  0.00  0.00    +0.167 HD
ENDBRANCH   3   6
BRANCH   5  16
ATOM     16  C   UNL     1       1.946  -1.244   3.749  0.00  0.00    +0.252 C 
ATOM     17  O   UNL     1       2.756  -1.186   2.841  0.00  0.00    -0.270 OA
ATOM     18  N   UNL     1       2.350  -1.578   4.991  0.00  0.00    -0.325 N 
ATOM     19  H   UNL     1       1.705  -1.623   5.715  0.00  0.00    +0.145 HD
ATOM     20  H   UNL     1       3.285  -1.772   5.162  0.00  0.00    +0.145 HD
ENDBRANCH   5  16
BRANCH   1  21
ATOM     21  O   UNL     1       0.693  -0.477   1.160  0.00  0.00    -0.483 OA
BRANCH  21  23
ATOM     22  C   UNL     1      -0.290   1.271  -0.188  0.00  0.00    +0.057 C 
ATOM     23  C   UNL     1      -0.034  -0.230  -0.045  0.00  0.00    +0.202 C 
BRANCH  23  24
ATOM     24  C   UNL     1       0.767  -0.717  -1.225  0.00  0.00    +0.011 A 
ATOM     25  C   UNL     1       2.143  -0.815  -1.133  0.00  0.00    +0.009 A 
ATOM     26  C   UNL     1       2.878  -1.261  -2.215  0.00  0.00    +0.005 A 
ATOM     27  C   UNL     1       2.238  -1.611  -3.389  0.00  0.00    -0.032 A 
ATOM     28  C   UNL     1       0.863  -1.514  -3.482  0.00  0.00    +0.025 A 
ATOM     29  C   UNL     1       0.126  -1.072  -2.398  0.00  0.00    +0.048 A 
ATOM     30 CL   UNL     1      -1.603  -0.957  -2.512  0.00  0.00    -0.083 Cl
BRANCH  27  31
ATOM     31  C   UNL     1       3.041  -2.097  -4.569  0.00  0.00    +0.119 C 
BRANCH  31  32
ATOM     32  N   UNL     1       3.180  -3.558  -4.497  0.00  0.00    -0.302 NA
ATOM     33  C   UNL     1       3.994  -3.954  -3.340  0.00  0.00    +0.066 C 
ATOM     34  C   UNL     1       4.064  -5.481  -3.268  0.00  0.00    -0.064 C 
ATOM     35  N   UNL     1       4.657  -6.003  -4.506  0.00  0.00    +0.379 N 
ATOM     36  C   UNL     1       3.819  -5.620  -5.651  0.00  0.00    -0.064 C 
ATOM     37  C   UNL     1       3.747  -4.095  -5.743  0.00  0.00    +0.066 C 
ATOM     38  C   UNL     1       4.741  -7.468  -4.429  0.00  0.00    -0.096 C 
ATOM     39  H   UNL     1       5.582  -5.619  -4.624  0.00  0.00    -0.082 HD
ENDBRANCH  31  32
ENDBRANCH  27  31
ENDBRANCH  23  24
ENDBRANCH  21  23
ENDBRANCH   1  21
TORSDOF 7
