REMARK  Name = CHEMBL1095716
REMARK  7 active torsions:
REMARK  status: ('A' for Active; 'I' for Inactive)
REMARK    1  A    between atoms: C_1  and  C_2
REMARK    2  A    between atoms: C_2  and  C_4
REMARK    3  A    between atoms: C_7  and  N_28
REMARK    4  A    between atoms: C_9  and  N_10
REMARK    5  A    between atoms: C_19  and  C_23
REMARK    6  A    between atoms: N_21  and  C_22
REMARK    7  A    between atoms: N_31  and  C_34
REMARK                            x       y       z     vdW  Elec       q    Type
REMARK                         _______ _______ _______ _____ _____    ______ ____
ROOT
ATOM      1  N   UNL     1       0.374  -2.524  -0.241  0.00  0.00    -0.283 N 
ATOM      2  C   UNL     1       0.724  -3.580  -1.068  0.00  0.00    +0.220 A 
ATOM      3  N   UNL     1      -0.228  -4.248  -1.703  0.00  0.00    -0.222 NA
ATOM      4  C   UNL     1       0.055  -5.275  -2.490  0.00  0.00    +0.120 A 
ATOM      5  C   UNL     1       1.375  -5.649  -2.658  0.00  0.00    -0.001 A 
ATOM      6  C   UNL     1       2.358  -4.902  -1.993  0.00  0.00    +0.097 A 
ATOM      7  N   UNL     1       2.005  -3.895  -1.208  0.00  0.00    -0.212 NA
ATOM      8  C   UNL     1       3.765  -5.257  -2.249  0.00  0.00    +0.091 A 
ATOM      9  C   UNL     1       4.090  -6.083  -3.304  0.00  0.00    +0.012 A 
ATOM     10  C   UNL     1       5.478  -6.225  -3.256  0.00  0.00    +0.151 A 
ATOM     11  N   UNL     1       5.910  -5.494  -2.240  0.00  0.00    -0.166 NA
ATOM     12  N   UNL     1       4.920  -4.912  -1.649  0.00  0.00    -0.264 N 
ATOM     13  C   UNL     1       5.037  -4.010  -0.500  0.00  0.00    +0.173 C 
ATOM     14  C   UNL     1       3.061  -6.635  -4.247  0.00  0.00    +0.044 C 
ATOM     15  C   UNL     1       1.737  -6.832  -3.508  0.00  0.00    +0.043 C 
ATOM     16  H   UNL     1       1.058  -2.054   0.262  0.00  0.00    +0.155 HD
ENDROOT
BRANCH   1  22
ATOM     17  C   UNL     1      -1.289  -0.775   0.006  0.00  0.00    +0.038 A 
ATOM     18  C   UNL     1      -2.636  -0.397   0.108  0.00  0.00    +0.015 A 
ATOM     19  C   UNL     1      -3.616  -1.344   0.077  0.00  0.00    +0.024 A 
ATOM     20  C   UNL     1      -3.290  -2.694  -0.056  0.00  0.00    +0.032 A 
ATOM     21  C   UNL     1      -1.963  -3.089  -0.158  0.00  0.00    +0.047 A 
ATOM     22  C   UNL     1      -0.956  -2.137  -0.134  0.00  0.00    +0.046 A 
BRANCH  20  23
ATOM     23  N   UNL     1      -4.299  -3.649  -0.086  0.00  0.00    -0.327 N 
ATOM     24  C   UNL     1      -3.981  -5.085  -0.078  0.00  0.00    +0.120 C 
ATOM     25  C   UNL     1      -4.797  -5.758   1.030  0.00  0.00    +0.103 C 
ATOM     26  N   UNL     1      -6.219  -5.439   0.849  0.00  0.00    -0.302 NA
ATOM     27  C   UNL     1      -6.463  -3.996   0.982  0.00  0.00    +0.103 C 
ATOM     28  C   UNL     1      -5.715  -3.251  -0.121  0.00  0.00    +0.120 C 
ATOM     29  C   UNL     1      -7.054  -6.203   1.786  0.00  0.00    +0.105 C 
ENDBRANCH  20  23
BRANCH  17  31
ATOM     30  C   UNL     1      -0.600   1.702   0.080  0.00  0.00    +0.091 C 
ATOM     31  C   UNL     1      -0.236   0.240   0.039  0.00  0.00    +0.162 C 
ATOM     32  O   UNL     1       0.930  -0.096   0.033  0.00  0.00    -0.292 OA
ENDBRANCH  17  31
ENDBRANCH   1  22
BRANCH  10  33
ATOM     33  C   UNL     1       6.308  -7.039  -4.168  0.00  0.00    +0.262 C 
ATOM     34  O   UNL     1       5.786  -7.668  -5.067  0.00  0.00    -0.269 OA
ATOM     35  N   UNL     1       7.645  -7.083  -4.003  0.00  0.00    -0.324 N 
ATOM     36  H   UNL     1       8.062  -6.581  -3.285  0.00  0.00    +0.145 HD
ATOM     37  H   UNL     1       8.191  -7.617  -4.601  0.00  0.00    +0.145 HD
ENDBRANCH  10  33
TORSDOF 4
