REMARK  Name = CHEMBL477408
REMARK  12 active torsions:
REMARK  status: ('A' for Active; 'I' for Inactive)
REMARK    1  A    between atoms: C_1  and  C_2
REMARK    2  A    between atoms: C_2  and  N_3
REMARK    3  A    between atoms: C_6  and  C_18
REMARK    4  A    between atoms: C_9  and  C_10
REMARK    5  A    between atoms: C_9  and  C_12
REMARK    6  A    between atoms: C_12  and  O_14
REMARK    7  A    between atoms: O_14  and  C_15
REMARK    8  A    between atoms: C_15  and  C_16
REMARK    9  A    between atoms: C_18  and  N_19
REMARK   10  A    between atoms: N_19  and  C_20
REMARK   11  A    between atoms: C_23  and  C_26
REMARK   12  A    between atoms: C_26  and  C_28
REMARK                            x       y       z     vdW  Elec       q    Type
REMARK                         _______ _______ _______ _____ _____    ______ ____
ROOT
ATOM      1  N   UNL     1       0.739  -0.471   1.174  0.00  0.00    -0.264 N 
ATOM      2  C   UNL     1       2.029  -0.763   1.084  0.00  0.00    +0.235 C 
ATOM      3  O   UNL     1       2.675  -0.623   0.068  0.00  0.00    -0.274 OA
ATOM      4  C   UNL     1       2.616  -1.290   2.385  0.00  0.00    +0.156 C 
ATOM      5  S   UNL     1       1.124  -1.238   3.457  0.00  0.00    -0.094 S 
ATOM      6  C   UNL     1       0.031  -0.632   2.331  0.00  0.00    +0.095 C 
ATOM      7  C   UNL     1      -1.322  -0.352   2.537  0.00  0.00    +0.163 C 
ENDROOT
BRANCH   1   9
ATOM      8  C   UNL     1      -0.652  -1.103  -0.736  0.00  0.00    +0.025 C 
ATOM      9  C   UNL     1       0.048   0.047  -0.009  0.00  0.00    +0.111 C 
ENDBRANCH   1   9
BRANCH   7  10
ATOM     10  C   UNL     1      -2.152   0.021   1.431  0.00  0.00    +0.109 C 
ATOM     11  N   UNL     1      -2.810   0.318   0.554  0.00  0.00    -0.191 NA
ENDBRANCH   7  10
BRANCH   7  12
ATOM     12  C   UNL     1      -1.873  -0.439   3.840  0.00  0.00    +0.352 C 
ATOM     13  O   UNL     1      -1.168  -0.756   4.779  0.00  0.00    -0.244 OA
BRANCH  12  14
ATOM     14  O   UNL     1      -3.181  -0.169   4.038  0.00  0.00    -0.456 OA
BRANCH  14  15
ATOM     15  C   UNL     1      -3.669  -0.276   5.377  0.00  0.00    +0.259 C 
BRANCH  15  16
ATOM     16  C   UNL     1      -5.138   0.060   5.404  0.00  0.00    +0.006 C 
ATOM     17  C   UNL     1      -5.969  -0.693   6.081  0.00  0.00    +0.007 C 
ENDBRANCH  15  16
ENDBRANCH  14  15
ENDBRANCH  12  14
ENDBRANCH   7  12
BRANCH   4  18
ATOM     18  C   UNL     1       3.713  -0.365   2.914  0.00  0.00    +0.125 C 
BRANCH  18  19
ATOM     19  N   UNL     1       4.250  -0.909   4.164  0.00  0.00    -0.342 N 
ATOM     20  H   UNL     1       3.898  -1.738   4.523  0.00  0.00    +0.146 HD
BRANCH  19  21
ATOM     21  C   UNL     1       5.263  -0.237   4.835  0.00  0.00    +0.027 A 
ATOM     22  C   UNL     1       5.764   0.957   4.321  0.00  0.00    +0.023 A 
ATOM     23  C   UNL     1       6.761   1.621   4.978  0.00  0.00    +0.013 A 
ATOM     24  C   UNL     1       7.279   1.100   6.170  0.00  0.00    +0.017 A 
ATOM     25  C   UNL     1       6.772  -0.101   6.684  0.00  0.00    +0.013 A 
ATOM     26  C   UNL     1       5.772  -0.756   6.024  0.00  0.00    +0.023 A 
BRANCH  24  27
ATOM     27  C   UNL     1       8.351   1.809   6.879  0.00  0.00    +0.160 C 
ATOM     28  O   UNL     1       8.720   2.897   6.489  0.00  0.00    -0.292 OA
ATOM     29  C   UNL     1       8.993   1.186   8.092  0.00  0.00    +0.091 C 
ENDBRANCH  24  27
ENDBRANCH  19  21
ENDBRANCH  18  19
ENDBRANCH   4  18
TORSDOF 10
