REMARK  Name = CHEMBL1208966
REMARK  9 active torsions:
REMARK  status: ('A' for Active; 'I' for Inactive)
REMARK    1  A    between atoms: C_1  and  C_2
REMARK    2  A    between atoms: C_2  and  C_4
REMARK    3  A    between atoms: C_2  and  O_11
REMARK    4  A    between atoms: O_11  and  C_12
REMARK    5  A    between atoms: C_14  and  N_20
REMARK    6  A    between atoms: C_16  and  C_17
REMARK    7  A    between atoms: C_27  and  C_29
REMARK    8  A    between atoms: N_35  and  C_36
REMARK    9  A    between atoms: N_39  and  C_42
REMARK                            x       y       z     vdW  Elec       q    Type
REMARK                         _______ _______ _______ _____ _____    ______ ____
ROOT
ATOM      1  N   UNL     1      -1.232  -0.740   4.864  0.00  0.00    -0.292 N 
ATOM      2  C   UNL     1       0.007  -1.114   5.292  0.00  0.00    +0.205 A 
ATOM      3  N   UNL     1       0.156  -0.814   6.549  0.00  0.00    -0.235 NA
ATOM      4  C   UNL     1      -0.977  -0.226   7.016  0.00  0.00    +0.090 A 
ATOM      5  C   UNL     1      -1.881  -0.164   5.941  0.00  0.00    +0.074 A 
ATOM      6  C   UNL     1      -3.138   0.399   6.118  0.00  0.00    +0.029 A 
ATOM      7  C   UNL     1      -3.500   0.898   7.337  0.00  0.00    +0.012 A 
ATOM      8  C   UNL     1      -2.611   0.849   8.416  0.00  0.00    +0.003 A 
ATOM      9  C   UNL     1      -1.353   0.281   8.259  0.00  0.00    +0.040 A 
ENDROOT
BRANCH   8  10
ATOM     10  C   UNL     1      -3.017   1.396   9.733  0.00  0.00    +0.076 A 
ATOM     11  C   UNL     1      -4.318   1.862   9.937  0.00  0.00    +0.048 A 
ATOM     12  C   UNL     1      -4.651   2.362  11.183  0.00  0.00    +0.116 A 
ATOM     13  N   UNL     1      -3.734   2.386  12.137  0.00  0.00    -0.223 NA
ATOM     14  C   UNL     1      -2.507   1.938  11.915  0.00  0.00    +0.216 A 
ATOM     15  N   UNL     1      -2.148   1.445  10.740  0.00  0.00    -0.215 NA
ATOM     16  N   UNL     1      -1.577   1.980  12.941  0.00  0.00    -0.311 N 
ATOM     17  H   UNL     1      -0.676   1.655  12.792  0.00  0.00    +0.149 HD
BRANCH  16  18
ATOM     18  C   UNL     1      -1.956   2.517  14.250  0.00  0.00    +0.070 C 
ATOM     19  C   UNL     1      -1.791   4.039  14.248  0.00  0.00    +0.003 C 
ATOM     20  C   UNL     1      -2.111   4.584  15.641  0.00  0.00    -0.077 C 
ATOM     21  N   UNL     1      -1.196   3.993  16.624  0.00  0.00    +0.378 N 
ATOM     22  C   UNL     1      -1.399   2.540  16.684  0.00  0.00    -0.077 C 
ATOM     23  C   UNL     1      -1.051   1.917  15.330  0.00  0.00    +0.003 C 
ATOM     24  C   UNL     1      -1.456   4.577  17.947  0.00  0.00    -0.096 C 
ATOM     25  H   UNL     1      -0.243   4.187  16.354  0.00  0.00    -0.082 HD
ENDBRANCH  16  18
ENDBRANCH   8  10
BRANCH   1  28
ATOM     26  C   UNL     1      -1.868  -0.817   1.221  0.00  0.00    +0.143 A 
ATOM     27  C   UNL     1      -1.179  -0.566   2.381  0.00  0.00    +0.080 A 
ATOM     28  C   UNL     1      -1.746  -0.901   3.581  0.00  0.00    +0.090 A 
ATOM     29  S   UNL     1      -3.311  -1.599   3.083  0.00  0.00    -0.062 S 
ATOM     30  C   UNL     1      -3.130  -1.403   1.317  0.00  0.00    +0.117 A 
BRANCH  30  31
ATOM     31  C   UNL     1      -4.030  -1.752   0.286  0.00  0.00    +0.252 C 
ATOM     32  O   UNL     1      -3.734  -1.544  -0.878  0.00  0.00    -0.270 OA
ATOM     33  N   UNL     1      -5.216  -2.317   0.588  0.00  0.00    -0.325 N 
ATOM     34  H   UNL     1      -5.451  -2.483   1.515  0.00  0.00    +0.145 HD
ATOM     35  H   UNL     1      -5.834  -2.556  -0.120  0.00  0.00    +0.145 HD
ENDBRANCH  30  31
BRANCH  26  36
ATOM     36  O   UNL     1      -1.339  -0.499   0.012  0.00  0.00    -0.483 OA
BRANCH  36  38
ATOM     37  C   UNL     1      -0.005   1.502   0.256  0.00  0.00    +0.057 C 
ATOM     38  C   UNL     1       0.003  -0.006   0.001  0.00  0.00    +0.202 C 
BRANCH  38  39
ATOM     39  C   UNL     1       0.630  -0.286  -1.340  0.00  0.00    +0.011 A 
ATOM     40  C   UNL     1      -0.168  -0.430  -2.460  0.00  0.00    +0.008 A 
ATOM     41  C   UNL     1       0.406  -0.686  -3.691  0.00  0.00    +0.000 A 
ATOM     42  C   UNL     1       1.780  -0.799  -3.803  0.00  0.00    +0.001 A 
ATOM     43  C   UNL     1       2.579  -0.656  -2.684  0.00  0.00    +0.020 A 
ATOM     44  C   UNL     1       2.004  -0.394  -1.453  0.00  0.00    +0.048 A 
ATOM     45 CL   UNL     1       3.008  -0.207  -0.049  0.00  0.00    -0.083 Cl
ENDBRANCH  38  39
ENDBRANCH  36  38
ENDBRANCH  26  36
ENDBRANCH   1  28
TORSDOF 7
