REMARK  Name = CHEMBL557878
REMARK  7 active torsions:
REMARK  status: ('A' for Active; 'I' for Inactive)
REMARK    1  A    between atoms: C_1  and  N_2
REMARK    2  A    between atoms: C_6  and  C_7
REMARK    3  A    between atoms: C_9  and  O_15
REMARK    4  A    between atoms: C_10  and  C_12
REMARK    5  A    between atoms: O_15  and  C_16
REMARK    6  A    between atoms: C_16  and  C_17
REMARK    7  A    between atoms: C_22  and  C_23
REMARK                            x       y       z     vdW  Elec       q    Type
REMARK                         _______ _______ _______ _____ _____    ______ ____
ROOT
ATOM      1  C   UNL     1       0.031  -0.413   2.517  0.00  0.00    +0.041 A 
ATOM      2  C   UNL     1       0.152  -1.198   3.655  0.00  0.00    +0.064 A 
ATOM      3  C   UNL     1       0.133  -0.587   4.881  0.00  0.00    +0.141 A 
ATOM      4  C   UNL     1      -0.008   0.799   4.930  0.00  0.00    +0.116 A 
ATOM      5  S   UNL     1      -0.107   1.230   3.201  0.00  0.00    -0.079 S 
ENDROOT
BRANCH   1  11
ATOM      6  C   UNL     1      -0.018   1.461   0.010  0.00  0.00    +0.150 C 
ATOM      7  N   UNL     1       0.002  -0.004   0.002  0.00  0.00    -0.334 N 
ATOM      8  C   UNL     1       0.009  -0.800  -1.088  0.00  0.00    +0.174 A 
ATOM      9  N   UNL     1       0.028  -2.049  -0.704  0.00  0.00    -0.352 N 
ATOM     10  C   UNL     1       0.035  -2.109   0.631  0.00  0.00    +0.110 A 
ATOM     11  C   UNL     1       0.024  -0.829   1.106  0.00  0.00    +0.073 A 
ATOM     12  H   UNL     1       0.036  -2.817  -1.298  0.00  0.00    +0.166 HD
ENDBRANCH   1  11
BRANCH   4  13
ATOM     13  C   UNL     1      -0.054   1.648   6.061  0.00  0.00    +0.252 C 
ATOM     14  O   UNL     1       0.034   1.176   7.181  0.00  0.00    -0.270 OA
ATOM     15  N   UNL     1      -0.197   2.978   5.899  0.00  0.00    -0.325 N 
ATOM     16  H   UNL     1      -0.267   3.354   5.008  0.00  0.00    +0.145 HD
ATOM     17  H   UNL     1      -0.229   3.560   6.675  0.00  0.00    +0.145 HD
ENDBRANCH   4  13
BRANCH   3  18
ATOM     18  O   UNL     1       0.248  -1.315   6.022  0.00  0.00    -0.486 OA
BRANCH  18  19
ATOM     19  C   UNL     1       0.389  -2.729   5.878  0.00  0.00    +0.265 C 
BRANCH  19  20
ATOM     20  C   UNL     1       0.502  -3.364   7.239  0.00  0.00    +0.001 A 
ATOM     21  C   UNL     1       0.455  -2.577   8.375  0.00  0.00    +0.007 A 
ATOM     22  C   UNL     1       0.559  -3.160   9.624  0.00  0.00    +0.000 A 
ATOM     23  C   UNL     1       0.710  -4.529   9.738  0.00  0.00    +0.001 A 
ATOM     24  C   UNL     1       0.755  -5.316   8.603  0.00  0.00    +0.013 A 
ATOM     25  C   UNL     1       0.647  -4.734   7.353  0.00  0.00    +0.061 A 
BRANCH  25  26
ATOM     26  C   UNL     1       0.691  -5.593   6.115  0.00  0.00    +0.418 C 
ATOM     27  F   UNL     1       0.842  -6.934   6.483  0.00  0.00    -0.166 F 
ATOM     28  F   UNL     1      -0.499  -5.437   5.397  0.00  0.00    -0.166 F 
ATOM     29  F   UNL     1       1.772  -5.204   5.317  0.00  0.00    -0.166 F 
ENDBRANCH  25  26
ENDBRANCH  19  20
ENDBRANCH  18  19
ENDBRANCH   3  18
TORSDOF 6
