REMARK  Name = CHEMBL1208893
REMARK  8 active torsions:
REMARK  status: ('A' for Active; 'I' for Inactive)
REMARK    1  A    between atoms: C_1  and  C_2
REMARK    2  A    between atoms: C_2  and  C_4
REMARK    3  A    between atoms: C_2  and  O_14
REMARK    4  A    between atoms: C_9  and  C_10
REMARK    5  A    between atoms: O_14  and  C_15
REMARK    6  A    between atoms: C_17  and  N_23
REMARK    7  A    between atoms: C_19  and  C_20
REMARK    8  A    between atoms: C_30  and  C_32
REMARK                            x       y       z     vdW  Elec       q    Type
REMARK                         _______ _______ _______ _____ _____    ______ ____
ROOT
ATOM      1  C   UNL     1      -0.106  -0.774  -2.243  0.00  0.00    +0.143 A 
ATOM      2  C   UNL     1      -1.460  -0.544  -2.221  0.00  0.00    +0.080 A 
ATOM      3  C   UNL     1      -2.210  -0.869  -3.319  0.00  0.00    +0.090 A 
ATOM      4  S   UNL     1      -0.985  -1.526  -4.439  0.00  0.00    -0.062 S 
ATOM      5  C   UNL     1       0.450  -1.329  -3.395  0.00  0.00    +0.117 A 
ENDROOT
BRANCH   3   6
ATOM      6  N   UNL     1      -3.580  -0.725  -3.513  0.00  0.00    -0.292 N 
ATOM      7  C   UNL     1      -4.565  -1.132  -2.661  0.00  0.00    +0.205 A 
ATOM      8  N   UNL     1      -5.732  -0.839  -3.155  0.00  0.00    -0.235 NA
ATOM      9  C   UNL     1      -5.580  -0.224  -4.357  0.00  0.00    +0.090 A 
ATOM     10  C   UNL     1      -4.198  -0.136  -4.602  0.00  0.00    +0.074 A 
ATOM     11  C   UNL     1      -3.732   0.458  -5.767  0.00  0.00    +0.029 A 
ATOM     12  C   UNL     1      -4.624   0.966  -6.684  0.00  0.00    +0.011 A 
ATOM     13  C   UNL     1      -6.000   0.887  -6.450  0.00  0.00    -0.013 A 
ATOM     14  C   UNL     1      -6.479   0.288  -5.293  0.00  0.00    +0.038 A 
BRANCH  13  15
ATOM     15  C   UNL     1      -6.952   1.439  -7.445  0.00  0.00    +0.019 A 
ATOM     16  C   UNL     1      -8.331   1.376  -7.228  0.00  0.00    +0.124 A 
ATOM     17  N   UNL     1      -9.147   1.879  -8.138  0.00  0.00    -0.222 NA
ATOM     18  C   UNL     1      -8.673   2.436  -9.243  0.00  0.00    +0.213 A 
ATOM     19  N   UNL     1      -7.372   2.514  -9.484  0.00  0.00    -0.222 NA
ATOM     20  C   UNL     1      -6.492   2.039  -8.620  0.00  0.00    +0.124 A 
ATOM     21  N   UNL     1      -9.561   2.950 -10.171  0.00  0.00    -0.327 N 
ATOM     22  H   UNL     1     -10.516   2.900 -10.009  0.00  0.00    +0.145 HD
ATOM     23  H   UNL     1      -9.228   3.361 -10.985  0.00  0.00    +0.145 HD
ENDBRANCH  13  15
ENDBRANCH   3   6
BRANCH   5  24
ATOM     24  C   UNL     1       1.798  -1.653  -3.665  0.00  0.00    +0.252 C 
ATOM     25  O   UNL     1       2.654  -1.448  -2.823  0.00  0.00    -0.270 OA
ATOM     26  N   UNL     1       2.138  -2.188  -4.855  0.00  0.00    -0.325 N 
ATOM     27  H   UNL     1       1.456  -2.350  -5.525  0.00  0.00    +0.145 HD
ATOM     28  H   UNL     1       3.063  -2.410  -5.040  0.00  0.00    +0.145 HD
ENDBRANCH   5  24
BRANCH   1  29
ATOM     29  O   UNL     1       0.671  -0.465  -1.174  0.00  0.00    -0.483 OA
BRANCH  29  31
ATOM     30  C   UNL     1      -0.238   1.501  -0.101  0.00  0.00    +0.057 C 
ATOM     31  C   UNL     1       0.002  -0.006   0.003  0.00  0.00    +0.201 C 
BRANCH  31  32
ATOM     32  C   UNL     1       0.856  -0.296   1.211  0.00  0.00    +0.004 A 
ATOM     33  C   UNL     1       2.227  -0.416   1.076  0.00  0.00    +0.008 A 
ATOM     34  C   UNL     1       3.009  -0.682   2.184  0.00  0.00    +0.000 A 
ATOM     35  C   UNL     1       2.421  -0.828   3.427  0.00  0.00    +0.001 A 
ATOM     36  C   UNL     1       1.051  -0.708   3.561  0.00  0.00    +0.013 A 
ATOM     37  C   UNL     1       0.268  -0.438   2.454  0.00  0.00    +0.061 A 
BRANCH  37  38
ATOM     38  C   UNL     1      -1.225  -0.302   2.602  0.00  0.00    +0.418 C 
ATOM     39  F   UNL     1      -1.580  -0.484   3.943  0.00  0.00    -0.166 F 
ATOM     40  F   UNL     1      -1.621   0.973   2.184  0.00  0.00    -0.166 F 
ATOM     41  F   UNL     1      -1.861  -1.268   1.816  0.00  0.00    -0.166 F 
ENDBRANCH  37  38
ENDBRANCH  31  32
ENDBRANCH  29  31
ENDBRANCH   1  29
TORSDOF 7
