REMARK  Name = CHEMBL477407
REMARK  14 active torsions:
REMARK  status: ('A' for Active; 'I' for Inactive)
REMARK    1  A    between atoms: C_1  and  C_2
REMARK    2  A    between atoms: C_2  and  N_3
REMARK    3  A    between atoms: C_6  and  C_19
REMARK    4  A    between atoms: C_10  and  C_11
REMARK    5  A    between atoms: C_10  and  C_13
REMARK    6  A    between atoms: C_13  and  O_15
REMARK    7  A    between atoms: O_15  and  C_16
REMARK    8  A    between atoms: C_16  and  C_17
REMARK    9  A    between atoms: C_19  and  N_20
REMARK   10  A    between atoms: N_20  and  C_21
REMARK   11  A    between atoms: C_24  and  N_27
REMARK   12  A    between atoms: N_30  and  C_31
REMARK   13  A    between atoms: C_31  and  C_32
REMARK   14  A    between atoms: C_32  and  N_33
REMARK                            x       y       z     vdW  Elec       q    Type
REMARK                         _______ _______ _______ _____ _____    ______ ____
ROOT
ATOM      1  N   UNL     1      -4.891  -3.410   1.296  0.00  0.00    -0.342 N 
ATOM      2  H   UNL     1      -5.587  -2.833   0.944  0.00  0.00    +0.146 HD
ENDROOT
BRANCH   1   3
ATOM      3  C   UNL     1      -5.200  -4.716   1.692  0.00  0.00    +0.027 A 
ATOM      4  C   UNL     1      -4.206  -5.541   2.201  0.00  0.00    +0.025 A 
ATOM      5  C   UNL     1      -4.511  -6.830   2.591  0.00  0.00    +0.025 A 
ATOM      6  C   UNL     1      -5.812  -7.301   2.473  0.00  0.00    +0.035 A 
ATOM      7  C   UNL     1      -6.806  -6.477   1.964  0.00  0.00    +0.025 A 
ATOM      8  C   UNL     1      -6.503  -5.186   1.579  0.00  0.00    +0.025 A 
BRANCH   6   9
ATOM      9  N   UNL     1      -6.121  -8.610   2.869  0.00  0.00    -0.269 N 
ATOM     10  C   UNL     1      -5.499  -9.159   3.931  0.00  0.00    +0.304 C 
ATOM     11  O   UNL     1      -4.609  -8.550   4.495  0.00  0.00    -0.253 OA
ATOM     12  N   UNL     1      -5.862 -10.380   4.368  0.00  0.00    -0.301 N 
ATOM     13  H   UNL     1      -6.784  -9.121   2.378  0.00  0.00    +0.156 HD
ATOM     14  H   UNL     1      -6.571 -10.866   3.918  0.00  0.00    +0.150 HD
BRANCH  12  15
ATOM     15  C   UNL     1      -5.185 -10.976   5.523  0.00  0.00    +0.087 C 
BRANCH  15  16
ATOM     16  C   UNL     1      -5.783 -12.355   5.809  0.00  0.00    -0.060 C 
BRANCH  16  17
ATOM     17  N   UNL     1      -5.104 -12.953   6.967  0.00  0.00    +0.381 N 
ATOM     18  C   UNL     1      -5.447 -12.205   8.203  0.00  0.00    -0.079 C 
ATOM     19  C   UNL     1      -5.158 -13.230   9.329  0.00  0.00    -0.020 C 
ATOM     20  C   UNL     1      -5.618 -14.568   8.705  0.00  0.00    -0.020 C 
ATOM     21  C   UNL     1      -5.586 -14.334   7.184  0.00  0.00    -0.079 C 
ATOM     22  H   UNL     1      -4.105 -12.951   6.824  0.00  0.00    -0.082 HD
ENDBRANCH  16  17
ENDBRANCH  15  16
ENDBRANCH  12  15
ENDBRANCH   6   9
ENDBRANCH   1   3
BRANCH   1  23
ATOM     23  C   UNL     1      -3.518  -2.914   1.415  0.00  0.00    +0.125 C 
BRANCH  23  27
ATOM     24  N   UNL     1      -1.522  -0.578  -0.150  0.00  0.00    -0.264 N 
ATOM     25  C   UNL     1      -2.041  -0.911   1.024  0.00  0.00    +0.235 C 
ATOM     26  O   UNL     1      -1.450  -0.785   2.075  0.00  0.00    -0.274 OA
ATOM     27  C   UNL     1      -3.453  -1.468   0.919  0.00  0.00    +0.156 C 
ATOM     28  S   UNL     1      -3.701  -1.374  -0.900  0.00  0.00    -0.094 S 
ATOM     29  C   UNL     1      -2.209  -0.723  -1.321  0.00  0.00    +0.095 C 
ATOM     30  C   UNL     1      -1.763  -0.400  -2.605  0.00  0.00    +0.163 C 
BRANCH  24  32
ATOM     31  C   UNL     1       0.830  -1.147  -0.499  0.00  0.00    +0.025 C 
ATOM     32  C   UNL     1      -0.166  -0.027  -0.191  0.00  0.00    +0.111 C 
ENDBRANCH  24  32
BRANCH  30  33
ATOM     33  C   UNL     1      -0.406   0.011  -2.809  0.00  0.00    +0.109 C 
ATOM     34  N   UNL     1       0.670   0.336  -2.971  0.00  0.00    -0.191 NA
ENDBRANCH  30  33
BRANCH  30  35
ATOM     35  C   UNL     1      -2.653  -0.478  -3.705  0.00  0.00    +0.352 C 
ATOM     36  O   UNL     1      -3.806  -0.827  -3.532  0.00  0.00    -0.244 OA
BRANCH  35  37
ATOM     37  O   UNL     1      -2.222  -0.166  -4.945  0.00  0.00    -0.456 OA
BRANCH  37  38
ATOM     38  C   UNL     1      -3.173  -0.268  -6.007  0.00  0.00    +0.259 C 
BRANCH  38  39
ATOM     39  C   UNL     1      -2.516   0.117  -7.308  0.00  0.00    +0.006 C 
ATOM     40  C   UNL     1      -2.707  -0.613  -8.379  0.00  0.00    +0.007 C 
ENDBRANCH  38  39
ENDBRANCH  37  38
ENDBRANCH  35  37
ENDBRANCH  30  35
ENDBRANCH  23  27
ENDBRANCH   1  23
TORSDOF 13
