REMARK  Name = CHEMBL476782
REMARK  14 active torsions:
REMARK  status: ('A' for Active; 'I' for Inactive)
REMARK    1  A    between atoms: C_1  and  C_2
REMARK    2  A    between atoms: C_2  and  N_3
REMARK    3  A    between atoms: C_7  and  N_8
REMARK    4  A    between atoms: N_8  and  C_9
REMARK    5  A    between atoms: C_13  and  N_15
REMARK    6  A    between atoms: C_16  and  C_18
REMARK    7  A    between atoms: C_18  and  C_19
REMARK    8  A    between atoms: C_18  and  C_20
REMARK    9  A    between atoms: C_18  and  C_21
REMARK   10  A    between atoms: C_24  and  C_25
REMARK   11  A    between atoms: C_24  and  C_27
REMARK   12  A    between atoms: N_29  and  C_30
REMARK   13  A    between atoms: C_30  and  C_35
REMARK   14  A    between atoms: C_35  and  O_36
REMARK                            x       y       z     vdW  Elec       q    Type
REMARK                         _______ _______ _______ _____ _____    ______ ____
ROOT
ATOM      1  N   UNL     1      -2.808   0.451  -0.319  0.00  0.00    -0.301 N 
ATOM      2  C   UNL     1      -3.709   0.392   0.651  0.00  0.00    +0.267 A 
ATOM      3  O   UNL     1      -3.485   0.814   1.772  0.00  0.00    -0.266 OA
ATOM      4  C   UNL     1      -4.957  -0.198   0.298  0.00  0.00    +0.092 A 
ATOM      5  C   UNL     1      -6.061  -0.397   1.062  0.00  0.00    +0.092 C 
ATOM      6  S   UNL     1      -4.681  -0.603  -1.417  0.00  0.00    -0.063 S 
ATOM      7  C   UNL     1      -3.107  -0.030  -1.563  0.00  0.00    +0.106 A 
ATOM      8  C   UNL     1      -2.288  -0.045  -2.699  0.00  0.00    +0.144 C 
ENDROOT
BRANCH   8   9
ATOM      9  C   UNL     1      -2.803  -0.501  -3.938  0.00  0.00    +0.257 C 
ATOM     10  O   UNL     1      -3.958  -0.880  -4.016  0.00  0.00    -0.269 OA
ATOM     11  N   UNL     1      -2.014  -0.515  -5.032  0.00  0.00    -0.303 N 
ATOM     12  H   UNL     1      -1.074  -0.292  -4.954  0.00  0.00    +0.150 HD
BRANCH  11  13
ATOM     13  C   UNL     1      -2.578  -0.868  -6.337  0.00  0.00    +0.058 C 
ATOM     14  C   UNL     1      -1.557  -0.578  -7.465  0.00  0.00    +0.028 C 
ATOM     15  C   UNL     1      -1.716   0.947  -7.686  0.00  0.00    +0.002 C 
ATOM     16  C   UNL     1      -3.231   1.196  -7.528  0.00  0.00    +0.002 C 
ATOM     17  C   UNL     1      -3.779   0.043  -6.670  0.00  0.00    +0.028 C 
BRANCH  13  18
ATOM     18  C   UNL     1      -3.000  -2.338  -6.357  0.00  0.00    +0.181 C 
BRANCH  18  19
ATOM     19  O   UNL     1      -1.851  -3.166  -6.160  0.00  0.00    -0.393 OA
ATOM     20  H   UNL     1      -2.044  -4.113  -6.161  0.00  0.00    +0.209 HD
ENDBRANCH  18  19
ENDBRANCH  13  18
ENDBRANCH  11  13
ENDBRANCH   8   9
BRANCH   1  22
ATOM     21  C   UNL     1      -0.496  -0.071   0.282  0.00  0.00    +0.027 C 
ATOM     22  C   UNL     1      -1.492   1.039  -0.059  0.00  0.00    +0.122 C 
ENDBRANCH   1  22
BRANCH   5  23
ATOM     23  N   UNL     1      -7.169  -0.989   0.521  0.00  0.00    -0.319 N 
ATOM     24  H   UNL     1      -7.167  -1.266  -0.409  0.00  0.00    +0.152 HD
BRANCH  23  25
ATOM     25  C   UNL     1      -8.305  -1.195   1.308  0.00  0.00    +0.033 A 
ATOM     26  C   UNL     1      -8.312  -0.793   2.639  0.00  0.00    +0.023 A 
ATOM     27  C   UNL     1      -9.435  -0.997   3.417  0.00  0.00    +0.004 A 
ATOM     28  C   UNL     1     -10.555  -1.600   2.876  0.00  0.00    +0.023 A 
ATOM     29  C   UNL     1     -10.555  -2.003   1.546  0.00  0.00    +0.035 A 
ATOM     30  C   UNL     1      -9.431  -1.795   0.760  0.00  0.00    +0.046 A 
BRANCH  29  31
ATOM     31  N   UNL     1     -11.688  -2.614   0.999  0.00  0.00    -0.285 N 
ATOM     32  C   UNL     1     -12.916  -2.267   1.435  0.00  0.00    +0.223 C 
ATOM     33  O   UNL     1     -13.043  -1.370   2.240  0.00  0.00    -0.275 OA
ATOM     34  H   UNL     1     -11.591  -3.286   0.307  0.00  0.00    +0.155 HD
BRANCH  32  35
ATOM     35  C   UNL     1     -14.131  -2.995   0.920  0.00  0.00    +0.039 C 
ATOM     36  C   UNL     1     -15.388  -2.412   1.568  0.00  0.00    +0.020 C 
ATOM     37  C   UNL     1     -14.218  -2.832  -0.599  0.00  0.00    +0.020 C 
ATOM     38  C   UNL     1     -14.021  -4.481   1.268  0.00  0.00    +0.020 C 
ENDBRANCH  32  35
ENDBRANCH  29  31
ENDBRANCH  23  25
ENDBRANCH   5  23
BRANCH   8  39
ATOM     39  C   UNL     1      -0.930   0.401  -2.608  0.00  0.00    +0.107 C 
ATOM     40  N   UNL     1       0.147   0.754  -2.536  0.00  0.00    -0.191 NA
ENDBRANCH   8  39
TORSDOF 10
