REMARK  Name = CHEMBL477408
REMARK  12 active torsions:
REMARK  status: ('A' for Active; 'I' for Inactive)
REMARK    1  A    between atoms: C_1  and  C_2
REMARK    2  A    between atoms: C_2  and  N_3
REMARK    3  A    between atoms: C_6  and  C_18
REMARK    4  A    between atoms: C_9  and  C_10
REMARK    5  A    between atoms: C_9  and  C_12
REMARK    6  A    between atoms: C_12  and  O_14
REMARK    7  A    between atoms: O_14  and  C_15
REMARK    8  A    between atoms: C_15  and  C_16
REMARK    9  A    between atoms: C_18  and  N_19
REMARK   10  A    between atoms: N_19  and  C_20
REMARK   11  A    between atoms: C_23  and  C_26
REMARK   12  A    between atoms: C_26  and  C_28
REMARK                            x       y       z     vdW  Elec       q    Type
REMARK                         _______ _______ _______ _____ _____    ______ ____
ROOT
ATOM      1  N   UNL     1       0.695  -0.465   1.217  0.00  0.00    -0.264 N 
ATOM      2  C   UNL     1       1.984  -0.755   1.108  0.00  0.00    +0.235 C 
ATOM      3  O   UNL     1       2.616  -0.613   0.083  0.00  0.00    -0.274 OA
ATOM      4  C   UNL     1       2.590  -1.286   2.399  0.00  0.00    +0.156 C 
ATOM      5  S   UNL     1       1.113  -1.238   3.492  0.00  0.00    -0.094 S 
ATOM      6  C   UNL     1       0.004  -0.628   2.384  0.00  0.00    +0.095 C 
ATOM      7  C   UNL     1      -1.346  -0.350   2.609  0.00  0.00    +0.163 C 
ENDROOT
BRANCH   1   9
ATOM      8  C   UNL     1      -0.722  -1.092  -0.675  0.00  0.00    +0.025 C 
ATOM      9  C   UNL     1      -0.012   0.056   0.045  0.00  0.00    +0.111 C 
ENDBRANCH   1   9
BRANCH   7  10
ATOM     10  C   UNL     1      -2.192   0.026   1.516  0.00  0.00    +0.109 C 
ATOM     11  N   UNL     1      -2.862   0.324   0.649  0.00  0.00    -0.191 NA
ENDBRANCH   7  10
BRANCH   7  12
ATOM     12  C   UNL     1      -1.879  -0.441   3.919  0.00  0.00    +0.352 C 
ATOM     13  O   UNL     1      -1.160  -0.760   4.848  0.00  0.00    -0.244 OA
BRANCH  12  14
ATOM     14  O   UNL     1      -3.183  -0.172   4.137  0.00  0.00    -0.456 OA
BRANCH  14  15
ATOM     15  C   UNL     1      -3.653  -0.282   5.482  0.00  0.00    +0.259 C 
BRANCH  15  16
ATOM     16  C   UNL     1      -5.121   0.052   5.531  0.00  0.00    +0.006 C 
ATOM     17  C   UNL     1      -5.943  -0.703   6.218  0.00  0.00    +0.007 C 
ENDBRANCH  15  16
ENDBRANCH  14  15
ENDBRANCH  12  14
ENDBRANCH   7  12
BRANCH   4  18
ATOM     18  C   UNL     1       3.105  -2.716   2.224  0.00  0.00    +0.125 C 
BRANCH  18  19
ATOM     19  N   UNL     1       3.678  -3.187   3.487  0.00  0.00    -0.342 N 
ATOM     20  H   UNL     1       3.685  -2.605   4.263  0.00  0.00    +0.146 HD
BRANCH  19  21
ATOM     21  C   UNL     1       4.213  -4.466   3.573  0.00  0.00    +0.027 A 
ATOM     22  C   UNL     1       4.207  -5.298   2.456  0.00  0.00    +0.023 A 
ATOM     23  C   UNL     1       4.731  -6.556   2.536  0.00  0.00    +0.013 A 
ATOM     24  C   UNL     1       5.275  -7.010   3.745  0.00  0.00    +0.017 A 
ATOM     25  C   UNL     1       5.279  -6.170   4.866  0.00  0.00    +0.013 A 
ATOM     26  C   UNL     1       4.758  -4.912   4.775  0.00  0.00    +0.023 A 
BRANCH  24  27
ATOM     27  C   UNL     1       5.839  -8.362   3.836  0.00  0.00    +0.160 C 
ATOM     28  O   UNL     1       5.926  -9.052   2.842  0.00  0.00    -0.292 OA
ATOM     29  C   UNL     1       6.310  -8.894   5.165  0.00  0.00    +0.091 C 
ENDBRANCH  24  27
ENDBRANCH  19  21
ENDBRANCH  18  19
ENDBRANCH   4  18
TORSDOF 10
