REMARK  Name = CHEMBL477616
REMARK  13 active torsions:
REMARK  status: ('A' for Active; 'I' for Inactive)
REMARK    1  A    between atoms: C_1  and  C_2
REMARK    2  A    between atoms: C_2  and  N_3
REMARK    3  A    between atoms: C_7  and  N_8
REMARK    4  A    between atoms: N_8  and  C_9
REMARK    5  A    between atoms: C_12  and  N_15
REMARK    6  A    between atoms: N_18  and  C_19
REMARK    7  A    between atoms: C_19  and  C_20
REMARK    8  A    between atoms: C_20  and  N_21
REMARK    9  A    between atoms: C_28  and  C_29
REMARK   10  A    between atoms: C_28  and  C_31
REMARK   11  A    between atoms: C_31  and  O_33
REMARK   12  A    between atoms: O_33  and  C_34
REMARK   13  A    between atoms: C_34  and  C_35
REMARK                            x       y       z     vdW  Elec       q    Type
REMARK                         _______ _______ _______ _____ _____    ______ ____
ROOT
ATOM      1  C   UNL     1      -4.419  -2.154   4.435  0.00  0.00    +0.031 A 
ATOM      2  C   UNL     1      -5.523  -2.931   4.107  0.00  0.00    +0.025 A 
ATOM      3  C   UNL     1      -6.337  -3.427   5.104  0.00  0.00    +0.025 A 
ATOM      4  C   UNL     1      -6.054  -3.150   6.435  0.00  0.00    +0.035 A 
ATOM      5  C   UNL     1      -4.950  -2.373   6.763  0.00  0.00    +0.025 A 
ATOM      6  C   UNL     1      -4.132  -1.881   5.766  0.00  0.00    +0.025 A 
ENDROOT
BRANCH   4   7
ATOM      7  N   UNL     1      -6.881  -3.655   7.447  0.00  0.00    -0.269 N 
ATOM      8  C   UNL     1      -7.016  -2.979   8.606  0.00  0.00    +0.304 C 
ATOM      9  O   UNL     1      -6.506  -1.883   8.734  0.00  0.00    -0.253 OA
ATOM     10  N   UNL     1      -7.717  -3.519   9.623  0.00  0.00    -0.301 N 
ATOM     11  H   UNL     1      -7.356  -4.489   7.314  0.00  0.00    +0.156 HD
ATOM     12  H   UNL     1      -8.124  -4.394   9.521  0.00  0.00    +0.150 HD
BRANCH  10  13
ATOM     13  C   UNL     1      -7.864  -2.785  10.882  0.00  0.00    +0.087 C 
BRANCH  13  14
ATOM     14  C   UNL     1      -8.698  -3.614  11.861  0.00  0.00    -0.060 C 
BRANCH  14  15
ATOM     15  N   UNL     1      -8.846  -2.878  13.124  0.00  0.00    +0.381 N 
ATOM     16  C   UNL     1      -9.704  -1.683  12.923  0.00  0.00    -0.079 C 
ATOM     17  C   UNL     1     -10.213  -1.367  14.352  0.00  0.00    -0.020 C 
ATOM     18  C   UNL     1     -10.432  -2.772  14.958  0.00  0.00    -0.020 C 
ATOM     19  C   UNL     1      -9.546  -3.714  14.123  0.00  0.00    -0.079 C 
ATOM     20  H   UNL     1      -7.940  -2.603  13.474  0.00  0.00    -0.082 HD
ENDBRANCH  14  15
ENDBRANCH  13  14
ENDBRANCH  10  13
ENDBRANCH   4   7
BRANCH   1  21
ATOM     21  N   UNL     1      -3.593  -1.650   3.424  0.00  0.00    -0.319 N 
ATOM     22  H   UNL     1      -2.820  -1.111   3.653  0.00  0.00    +0.152 HD
BRANCH  21  27
ATOM     23  N   UNL     1      -1.325  -0.299   0.094  0.00  0.00    -0.301 N 
ATOM     24  C   UNL     1      -1.903  -0.626   1.240  0.00  0.00    +0.267 A 
ATOM     25  O   UNL     1      -1.461  -0.264   2.317  0.00  0.00    -0.266 OA
ATOM     26  C   UNL     1      -3.074  -1.430   1.133  0.00  0.00    +0.092 A 
ATOM     27  C   UNL     1      -3.875  -1.918   2.113  0.00  0.00    +0.092 C 
ATOM     28  S   UNL     1      -3.206  -1.621  -0.636  0.00  0.00    -0.063 S 
ATOM     29  C   UNL     1      -1.859  -0.724  -1.090  0.00  0.00    +0.108 A 
ATOM     30  C   UNL     1      -1.389  -0.471  -2.386  0.00  0.00    +0.166 C 
BRANCH  23  32
ATOM     31  C   UNL     1       1.118  -0.378   0.006  0.00  0.00    +0.027 C 
ATOM     32  C   UNL     1      -0.113   0.525   0.096  0.00  0.00    +0.122 C 
ENDBRANCH  23  32
BRANCH  30  33
ATOM     33  C   UNL     1      -0.140   0.203  -2.576  0.00  0.00    +0.109 C 
ATOM     34  N   UNL     1       0.851   0.738  -2.727  0.00  0.00    -0.191 NA
ENDBRANCH  30  33
BRANCH  30  35
ATOM     35  C   UNL     1      -2.150  -0.882  -3.507  0.00  0.00    +0.352 C 
ATOM     36  O   UNL     1      -3.212  -1.455  -3.345  0.00  0.00    -0.244 OA
BRANCH  35  37
ATOM     37  O   UNL     1      -1.698  -0.639  -4.755  0.00  0.00    -0.461 OA
BRANCH  37  38
ATOM     38  C   UNL     1      -2.516  -1.081  -5.840  0.00  0.00    +0.229 C 
ATOM     39  C   UNL     1      -1.845  -0.720  -7.166  0.00  0.00    +0.048 C 
ENDBRANCH  37  38
ENDBRANCH  35  37
ENDBRANCH  30  35
ENDBRANCH  21  27
ENDBRANCH   1  21
TORSDOF 11
