REMARK  Name = CHEMBL476136
REMARK  11 active torsions:
REMARK  status: ('A' for Active; 'I' for Inactive)
REMARK    1  A    between atoms: C_1  and  C_2
REMARK    2  A    between atoms: C_2  and  N_3
REMARK    3  A    between atoms: C_7  and  N_8
REMARK    4  A    between atoms: N_8  and  C_9
REMARK    5  A    between atoms: C_12  and  C_15
REMARK    6  A    between atoms: C_15  and  C_16
REMARK    7  A    between atoms: C_16  and  N_17
REMARK    8  A    between atoms: C_24  and  C_25
REMARK    9  A    between atoms: C_24  and  C_27
REMARK   10  A    between atoms: N_29  and  C_30
REMARK   11  A    between atoms: C_30  and  C_31
REMARK                            x       y       z     vdW  Elec       q    Type
REMARK                         _______ _______ _______ _____ _____    ______ ____
ROOT
ATOM      1  N   UNL     1      -1.381  -0.489   0.015  0.00  0.00    -0.301 N 
ATOM      2  C   UNL     1      -1.956  -0.817   1.162  0.00  0.00    +0.267 A 
ATOM      3  O   UNL     1      -1.389  -0.689   2.232  0.00  0.00    -0.266 OA
ATOM      4  C   UNL     1      -3.283  -1.327   1.063  0.00  0.00    +0.092 A 
ATOM      5  C   UNL     1      -4.120  -1.742   2.047  0.00  0.00    +0.092 C 
ATOM      6  S   UNL     1      -3.549  -1.275  -0.701  0.00  0.00    -0.063 S 
ATOM      7  C   UNL     1      -2.061  -0.644  -1.163  0.00  0.00    +0.107 A 
ATOM      8  C   UNL     1      -1.618  -0.349  -2.455  0.00  0.00    +0.148 C 
ENDROOT
BRANCH   8   9
ATOM      9  C   UNL     1      -2.542  -0.455  -3.589  0.00  0.00    +0.286 C 
ATOM     10  O   UNL     1      -3.824  -0.839  -3.384  0.00  0.00    -0.265 OA
ATOM     11  N   UNL     1      -2.128  -0.179  -4.797  0.00  0.00    -0.237 NA
BRANCH  11  12
ATOM     12  C   UNL     1      -3.051  -0.285  -5.930  0.00  0.00    +0.258 C 
BRANCH  12  13
ATOM     13  C   UNL     1      -3.275   1.102  -6.537  0.00  0.00    +0.409 C 
ATOM     14  F   UNL     1      -2.052   1.620  -6.978  0.00  0.00    -0.169 F 
ATOM     15  F   UNL     1      -4.156   1.001  -7.619  0.00  0.00    -0.169 F 
ATOM     16  F   UNL     1      -3.820   1.952  -5.569  0.00  0.00    -0.169 F 
ENDBRANCH  12  13
ENDBRANCH  11  12
ENDBRANCH   8   9
BRANCH   1  18
ATOM     17  C   UNL     1       0.975  -1.089  -0.258  0.00  0.00    +0.027 C 
ATOM     18  C   UNL     1      -0.017   0.046   0.007  0.00  0.00    +0.122 C 
ENDBRANCH   1  18
BRANCH   5  19
ATOM     19  N   UNL     1      -5.369  -2.204   1.733  0.00  0.00    -0.319 N 
ATOM     20  H   UNL     1      -5.657  -2.235   0.807  0.00  0.00    +0.152 HD
BRANCH  19  21
ATOM     21  C   UNL     1      -6.231  -2.631   2.746  0.00  0.00    +0.031 A 
ATOM     22  C   UNL     1      -5.824  -2.583   4.073  0.00  0.00    +0.023 A 
ATOM     23  C   UNL     1      -6.678  -3.006   5.072  0.00  0.00    +0.005 A 
ATOM     24  C   UNL     1      -7.939  -3.477   4.752  0.00  0.00    -0.049 A 
ATOM     25  C   UNL     1      -8.348  -3.527   3.432  0.00  0.00    +0.005 A 
ATOM     26  C   UNL     1      -7.500  -3.100   2.429  0.00  0.00    +0.023 A 
BRANCH  24  27
ATOM     27  C   UNL     1      -8.868  -3.939   5.845  0.00  0.00    +0.016 C 
BRANCH  27  28
ATOM     28  C   UNL     1      -9.712  -2.758   6.329  0.00  0.00    -0.074 C 
BRANCH  28  29
ATOM     29  N   UNL     1     -10.618  -3.208   7.394  0.00  0.00    +0.380 N 
ATOM     30  C   UNL     1      -9.844  -3.554   8.613  0.00  0.00    -0.079 C 
ATOM     31  C   UNL     1     -10.897  -3.448   9.745  0.00  0.00    -0.020 C 
ATOM     32  C   UNL     1     -11.751  -2.235   9.309  0.00  0.00    -0.020 C 
ATOM     33  C   UNL     1     -11.524  -2.108   7.791  0.00  0.00    -0.079 C 
ATOM     34  H   UNL     1     -11.153  -4.005   7.083  0.00  0.00    -0.082 HD
ENDBRANCH  28  29
ENDBRANCH  27  28
ENDBRANCH  24  27
ENDBRANCH  19  21
ENDBRANCH   5  19
BRANCH   8  35
ATOM     35  C   UNL     1      -0.262   0.056  -2.672  0.00  0.00    +0.107 C 
ATOM     36  N   UNL     1       0.814   0.378  -2.844  0.00  0.00    -0.191 NA
ENDBRANCH   8  35
TORSDOF 10
