REMARK  Name = CHEMBL1096028
REMARK  7 active torsions:
REMARK  status: ('A' for Active; 'I' for Inactive)
REMARK    1  A    between atoms: C_1  and  C_2
REMARK    2  A    between atoms: C_2  and  C_4
REMARK    3  A    between atoms: C_6  and  N_28
REMARK    4  A    between atoms: C_9  and  N_10
REMARK    5  A    between atoms: C_19  and  C_23
REMARK    6  A    between atoms: N_21  and  C_22
REMARK    7  A    between atoms: N_31  and  C_34
REMARK                            x       y       z     vdW  Elec       q    Type
REMARK                         _______ _______ _______ _____ _____    ______ ____
ROOT
ATOM      1  N   UNL     1       0.250  -2.830  -0.088  0.00  0.00    -0.283 N 
ATOM      2  C   UNL     1       1.017  -3.968   0.105  0.00  0.00    +0.220 A 
ATOM      3  N   UNL     1       1.626  -4.521  -0.934  0.00  0.00    -0.222 NA
ATOM      4  C   UNL     1       2.356  -5.618  -0.803  0.00  0.00    +0.120 A 
ATOM      5  C   UNL     1       2.493  -6.190   0.448  0.00  0.00    -0.001 A 
ATOM      6  C   UNL     1       1.858  -5.561   1.529  0.00  0.00    +0.097 A 
ATOM      7  N   UNL     1       1.130  -4.474   1.326  0.00  0.00    -0.212 NA
ATOM      8  C   UNL     1       2.083  -6.131   2.869  0.00  0.00    +0.091 A 
ATOM      9  C   UNL     1       3.090  -7.050   3.071  0.00  0.00    +0.012 A 
ATOM     10  C   UNL     1       3.023  -7.391   4.423  0.00  0.00    +0.151 A 
ATOM     11  N   UNL     1       2.041  -6.679   4.955  0.00  0.00    -0.166 NA
ATOM     12  N   UNL     1       1.490  -5.928   4.061  0.00  0.00    -0.264 N 
ATOM     13  C   UNL     1       0.387  -4.995   4.307  0.00  0.00    +0.173 C 
ATOM     14  C   UNL     1       4.013  -7.494   1.974  0.00  0.00    +0.044 C 
ATOM     15  C   UNL     1       3.277  -7.456   0.634  0.00  0.00    +0.043 C 
ATOM     16  H   UNL     1      -0.131  -2.368   0.675  0.00  0.00    +0.155 HD
ENDROOT
BRANCH   1  22
ATOM     17  C   UNL     1       0.102  -0.973  -1.638  0.00  0.00    +0.040 A 
ATOM     18  C   UNL     1      -0.119  -0.504  -2.939  0.00  0.00    +0.036 A 
ATOM     19  C   UNL     1      -0.415  -1.398  -3.951  0.00  0.00    +0.031 A 
ATOM     20  C   UNL     1      -0.495  -2.762  -3.681  0.00  0.00    +0.025 A 
ATOM     21  C   UNL     1      -0.279  -3.234  -2.403  0.00  0.00    +0.026 A 
ATOM     22  C   UNL     1       0.026  -2.352  -1.375  0.00  0.00    +0.044 A 
BRANCH  19  23
ATOM     23  N   UNL     1      -0.637  -0.931  -5.252  0.00  0.00    -0.327 N 
ATOM     24  C   UNL     1      -0.428   0.485  -5.591  0.00  0.00    +0.120 C 
ATOM     25  C   UNL     1       0.474   0.562  -6.827  0.00  0.00    +0.103 C 
ATOM     26  N   UNL     1      -0.102  -0.256  -7.902  0.00  0.00    -0.302 NA
ATOM     27  C   UNL     1      -0.155  -1.675  -7.523  0.00  0.00    +0.103 C 
ATOM     28  C   UNL     1      -1.078  -1.844  -6.317  0.00  0.00    +0.120 C 
ATOM     29  C   UNL     1       0.638  -0.074  -9.158  0.00  0.00    +0.105 C 
ENDBRANCH  19  23
BRANCH  17  31
ATOM     30  C   UNL     1       0.541   1.440  -0.854  0.00  0.00    +0.091 C 
ATOM     31  C   UNL     1       0.417  -0.032  -0.558  0.00  0.00    +0.162 C 
ATOM     32  O   UNL     1       0.579  -0.439   0.573  0.00  0.00    -0.292 OA
ENDBRANCH  17  31
ENDBRANCH   1  22
BRANCH  10  33
ATOM     33  C   UNL     1       3.884  -8.364   5.127  0.00  0.00    +0.262 C 
ATOM     34  O   UNL     1       4.754  -8.956   4.519  0.00  0.00    -0.269 OA
ATOM     35  N   UNL     1       3.704  -8.594   6.442  0.00  0.00    -0.324 N 
ATOM     36  H   UNL     1       3.009  -8.121   6.927  0.00  0.00    +0.145 HD
ATOM     37  H   UNL     1       4.269  -9.233   6.905  0.00  0.00    +0.145 HD
ENDBRANCH  10  33
TORSDOF 4
