REMARK  Name = CHEMBL524020
REMARK  10 active torsions:
REMARK  status: ('A' for Active; 'I' for Inactive)
REMARK    1  A    between atoms: C_1  and  C_2
REMARK    2  A    between atoms: C_2  and  C_4
REMARK    3  A    between atoms: C_2  and  O_14
REMARK    4  A    between atoms: C_9  and  C_10
REMARK    5  A    between atoms: O_14  and  C_15
REMARK    6  A    between atoms: C_17  and  N_23
REMARK    7  A    between atoms: C_19  and  C_20
REMARK    8  A    between atoms: C_29  and  O_32
REMARK    9  A    between atoms: O_32  and  C_33
REMARK   10  A    between atoms: N_36  and  C_39
REMARK                            x       y       z     vdW  Elec       q    Type
REMARK                         _______ _______ _______ _____ _____    ______ ____
ROOT
ATOM      1  C   UNL     1      -0.115  -0.361   2.434  0.00  0.00    +0.143 A 
ATOM      2  C   UNL     1      -1.448  -0.072   2.588  0.00  0.00    +0.080 A 
ATOM      3  C   UNL     1      -2.054  -0.336   3.787  0.00  0.00    +0.090 A 
ATOM      4  S   UNL     1      -0.716  -1.018   4.751  0.00  0.00    -0.062 S 
ATOM      5  C   UNL     1       0.567  -0.921   3.513  0.00  0.00    +0.117 A 
ENDROOT
BRANCH   3   6
ATOM      6  N   UNL     1      -3.378  -0.126   4.160  0.00  0.00    -0.292 N 
ATOM      7  C   UNL     1      -4.091   1.027   4.000  0.00  0.00    +0.205 A 
ATOM      8  N   UNL     1      -5.298   0.873   4.460  0.00  0.00    -0.235 NA
ATOM      9  C   UNL     1      -5.446  -0.388   4.946  0.00  0.00    +0.090 A 
ATOM     10  C   UNL     1      -4.220  -1.048   4.755  0.00  0.00    +0.077 A 
ATOM     11  C   UNL     1      -4.076  -2.368   5.155  0.00  0.00    +0.074 A 
ATOM     12  C   UNL     1      -5.144  -3.028   5.738  0.00  0.00    +0.123 A 
ATOM     13  C   UNL     1      -6.358  -2.373   5.922  0.00  0.00    +0.048 A 
ATOM     14  C   UNL     1      -6.510  -1.070   5.541  0.00  0.00    +0.033 A 
BRANCH  12  15
ATOM     15  O   UNL     1      -5.007  -4.322   6.132  0.00  0.00    -0.489 OA
BRANCH  15  16
ATOM     16  C   UNL     1      -6.178  -4.979   6.619  0.00  0.00    +0.170 C 
ATOM     17  C   UNL     1      -6.352  -4.677   8.110  0.00  0.00    +0.026 C 
ATOM     18  C   UNL     1      -7.562  -5.447   8.643  0.00  0.00    -0.076 C 
ATOM     19  N   UNL     1      -7.351  -6.888   8.455  0.00  0.00    +0.378 N 
ATOM     20  C   UNL     1      -7.255  -7.195   7.023  0.00  0.00    -0.076 C 
ATOM     21  C   UNL     1      -6.034  -6.492   6.428  0.00  0.00    +0.026 C 
ATOM     22  C   UNL     1      -8.479  -7.627   9.038  0.00  0.00    -0.096 C 
ATOM     23  H   UNL     1      -6.497  -7.164   8.915  0.00  0.00    -0.082 HD
ENDBRANCH  15  16
ENDBRANCH  12  15
ENDBRANCH   3   6
BRANCH   5  24
ATOM     24  C   UNL     1       1.923  -1.308   3.605  0.00  0.00    +0.252 C 
ATOM     25  O   UNL     1       2.664  -1.165   2.648  0.00  0.00    -0.270 OA
ATOM     26  N   UNL     1       2.397  -1.837   4.750  0.00  0.00    -0.325 N 
ATOM     27  H   UNL     1       1.808  -1.951   5.512  0.00  0.00    +0.145 HD
ATOM     28  H   UNL     1       3.328  -2.103   4.813  0.00  0.00    +0.145 HD
ENDBRANCH   5  24
BRANCH   1  29
ATOM     29  O   UNL     1       0.521  -0.114   1.260  0.00  0.00    -0.483 OA
BRANCH  29  31
ATOM     30  C   UNL     1      -0.461   1.858   0.267  0.00  0.00    +0.057 C 
ATOM     31  C   UNL     1      -0.283   0.341   0.170  0.00  0.00    +0.201 C 
BRANCH  31  32
ATOM     32  C   UNL     1       0.393  -0.004  -1.131  0.00  0.00    +0.004 A 
ATOM     33  C   UNL     1       1.764  -0.177  -1.173  0.00  0.00    +0.008 A 
ATOM     34  C   UNL     1       2.384  -0.494  -2.367  0.00  0.00    +0.000 A 
ATOM     35  C   UNL     1       1.634  -0.637  -3.520  0.00  0.00    +0.001 A 
ATOM     36  C   UNL     1       0.263  -0.464  -3.478  0.00  0.00    +0.013 A 
ATOM     37  C   UNL     1      -0.358  -0.152  -2.282  0.00  0.00    +0.061 A 
BRANCH  37  38
ATOM     38  C   UNL     1      -1.853   0.031  -2.236  0.00  0.00    +0.418 C 
ATOM     39  F   UNL     1      -2.387  -0.168  -3.513  0.00  0.00    -0.166 F 
ATOM     40  F   UNL     1      -2.409  -0.896  -1.348  0.00  0.00    -0.166 F 
ATOM     41  F   UNL     1      -2.151   1.328  -1.802  0.00  0.00    -0.166 F 
ENDBRANCH  37  38
ENDBRANCH  31  32
ENDBRANCH  29  31
ENDBRANCH   1  29
TORSDOF 8
