REMARK  Name = CHEMBL1209675
REMARK  7 active torsions:
REMARK  status: ('A' for Active; 'I' for Inactive)
REMARK    1  A    between atoms: C_1  and  C_2
REMARK    2  A    between atoms: C_2  and  C_4
REMARK    3  A    between atoms: C_2  and  O_11
REMARK    4  A    between atoms: O_11  and  C_12
REMARK    5  A    between atoms: C_14  and  N_20
REMARK    6  A    between atoms: C_16  and  C_17
REMARK    7  A    between atoms: C_26  and  C_29
REMARK                            x       y       z     vdW  Elec       q    Type
REMARK                         _______ _______ _______ _____ _____    ______ ____
ROOT
ATOM      1  C   UNL     1      -0.106  -0.774  -2.243  0.00  0.00    +0.143 A 
ATOM      2  C   UNL     1      -1.460  -0.544  -2.221  0.00  0.00    +0.080 A 
ATOM      3  C   UNL     1      -2.210  -0.869  -3.319  0.00  0.00    +0.090 A 
ATOM      4  S   UNL     1      -0.985  -1.526  -4.439  0.00  0.00    -0.062 S 
ATOM      5  C   UNL     1       0.450  -1.329  -3.395  0.00  0.00    +0.117 A 
ENDROOT
BRANCH   3   6
ATOM      6  N   UNL     1      -3.580  -0.725  -3.513  0.00  0.00    -0.292 N 
ATOM      7  C   UNL     1      -4.565  -1.132  -2.662  0.00  0.00    +0.205 A 
ATOM      8  N   UNL     1      -5.732  -0.839  -3.157  0.00  0.00    -0.235 NA
ATOM      9  C   UNL     1      -5.581  -0.224  -4.358  0.00  0.00    +0.089 A 
ATOM     10  C   UNL     1      -4.198  -0.136  -4.602  0.00  0.00    +0.074 A 
ATOM     11  C   UNL     1      -3.737   0.457  -5.765  0.00  0.00    +0.037 A 
ATOM     12  C   UNL     1      -4.649   0.966  -6.685  0.00  0.00    -0.016 A 
ATOM     13  C   UNL     1      -6.022   0.879  -6.435  0.00  0.00    +0.011 A 
ATOM     14  C   UNL     1      -6.483   0.288  -5.295  0.00  0.00    +0.030 A 
BRANCH  12  15
ATOM     15  C   UNL     1      -4.163   1.603  -7.933  0.00  0.00    -0.015 A 
ATOM     16  C   UNL     1      -2.795   1.696  -8.206  0.00  0.00    +0.028 A 
ATOM     17  C   UNL     1      -2.387   2.296  -9.379  0.00  0.00    +0.111 A 
ATOM     18  N   UNL     1      -3.267   2.778 -10.236  0.00  0.00    -0.263 NA
ATOM     19  C   UNL     1      -4.566   2.710 -10.016  0.00  0.00    +0.111 A 
ATOM     20  C   UNL     1      -5.061   2.121  -8.871  0.00  0.00    +0.028 A 
ENDBRANCH  12  15
ENDBRANCH   3   6
BRANCH   5  21
ATOM     21  C   UNL     1       1.798  -1.652  -3.665  0.00  0.00    +0.252 C 
ATOM     22  O   UNL     1       2.655  -1.447  -2.823  0.00  0.00    -0.270 OA
ATOM     23  N   UNL     1       2.138  -2.187  -4.855  0.00  0.00    -0.325 N 
ATOM     24  H   UNL     1       1.456  -2.350  -5.525  0.00  0.00    +0.145 HD
ATOM     25  H   UNL     1       3.063  -2.409  -5.040  0.00  0.00    +0.145 HD
ENDBRANCH   5  21
BRANCH   1  26
ATOM     26  O   UNL     1       0.671  -0.465  -1.174  0.00  0.00    -0.483 OA
BRANCH  26  28
ATOM     27  C   UNL     1      -0.238   1.501  -0.101  0.00  0.00    +0.057 C 
ATOM     28  C   UNL     1       0.002  -0.006   0.003  0.00  0.00    +0.202 C 
BRANCH  28  29
ATOM     29  C   UNL     1       0.856  -0.297   1.211  0.00  0.00    +0.011 A 
ATOM     30  C   UNL     1       2.226  -0.416   1.077  0.00  0.00    +0.008 A 
ATOM     31  C   UNL     1       3.009  -0.682   2.184  0.00  0.00    +0.000 A 
ATOM     32  C   UNL     1       2.421  -0.830   3.427  0.00  0.00    +0.001 A 
ATOM     33  C   UNL     1       1.051  -0.711   3.563  0.00  0.00    +0.020 A 
ATOM     34  C   UNL     1       0.268  -0.438   2.455  0.00  0.00    +0.048 A 
ATOM     35 CL   UNL     1      -1.453  -0.282   2.626  0.00  0.00    -0.083 Cl
ENDBRANCH  28  29
ENDBRANCH  26  28
ENDBRANCH   1  26
TORSDOF 6
