REMARK  Name = CHEMBL475947
REMARK  6 active torsions:
REMARK  status: ('A' for Active; 'I' for Inactive)
REMARK    1  A    between atoms: C_3  and  C_7
REMARK    2  A    between atoms: C_7  and  N_8
REMARK    3  A    between atoms: C_12  and  C_26
REMARK    4  A    between atoms: C_13  and  N_15
REMARK    5  A    between atoms: N_15  and  C_16
REMARK    6  A    between atoms: C_19  and  C_22
REMARK                            x       y       z     vdW  Elec       q    Type
REMARK                         _______ _______ _______ _____ _____    ______ ____
ROOT
ATOM      1  N   UNL     1       4.463   1.676   1.415  0.00  0.00    -0.309 N 
ATOM      2  C   UNL     1       5.576   2.465   1.639  0.00  0.00    +0.217 A 
ATOM      3  N   UNL     1       6.296   2.869   0.602  0.00  0.00    -0.222 NA
ATOM      4  C   UNL     1       7.368   3.624   0.768  0.00  0.00    +0.129 A 
ATOM      5  C   UNL     1       7.742   3.998   2.060  0.00  0.00    +0.081 A 
ATOM      6  C   UNL     1       6.952   3.550   3.137  0.00  0.00    +0.139 A 
ATOM      7  N   UNL     1       5.888   2.798   2.882  0.00  0.00    -0.199 NA
ATOM      8  H   UNL     1       3.923   1.376   2.163  0.00  0.00    +0.149 HD
ENDROOT
BRANCH   5   9
ATOM      9  C   UNL     1       8.933   4.841   2.291  0.00  0.00    +0.211 A 
ATOM     10  N   UNL     1       9.760   5.328   1.363  0.00  0.00    -0.106 NA
ATOM     11  N   UNL     1      10.668   6.010   1.973  0.00  0.00    -0.021 NA
ATOM     12  N   UNL     1      10.448   5.972   3.241  0.00  0.00    -0.021 NA
ATOM     13  N   UNL     1       9.391   5.271   3.469  0.00  0.00    -0.106 NA
ENDBRANCH   5   9
BRANCH   6  14
ATOM     14  N   UNL     1       7.277   3.891   4.438  0.00  0.00    -0.299 N 
ATOM     15  H   UNL     1       8.098   4.374   4.621  0.00  0.00    +0.154 HD
BRANCH  14  16
ATOM     16  C   UNL     1       6.423   3.540   5.487  0.00  0.00    +0.032 A 
ATOM     17  C   UNL     1       6.945   3.237   6.738  0.00  0.00    +0.024 A 
ATOM     18  C   UNL     1       6.098   2.891   7.772  0.00  0.00    +0.014 A 
ATOM     19  C   UNL     1       4.731   2.845   7.563  0.00  0.00    +0.055 A 
ATOM     20  C   UNL     1       4.208   3.146   6.319  0.00  0.00    +0.014 A 
ATOM     21  C   UNL     1       5.049   3.499   5.282  0.00  0.00    +0.024 A 
BRANCH  19  22
ATOM     22  C   UNL     1       3.810   2.466   8.694  0.00  0.00    +0.417 C 
ATOM     23  F   UNL     1       3.430   3.618   9.392  0.00  0.00    -0.166 F 
ATOM     24  F   UNL     1       2.673   1.837   8.178  0.00  0.00    -0.166 F 
ATOM     25  F   UNL     1       4.473   1.593   9.563  0.00  0.00    -0.166 F 
ENDBRANCH  19  22
ENDBRANCH  14  16
ENDBRANCH   6  14
BRANCH   1  26
ATOM     26  C   UNL     1       4.098   1.295   0.049  0.00  0.00    +0.141 C 
BRANCH  26  29
ATOM     27  C   UNL     1       0.486   0.202   0.034  0.00  0.00    +0.020 A 
ATOM     28  C   UNL     1       1.601   1.026   0.001  0.00  0.00    +0.008 A 
ATOM     29  C   UNL     1       2.856   0.442   0.080  0.00  0.00    -0.012 A 
ATOM     30  C   UNL     1       2.953  -0.933   0.188  0.00  0.00    +0.115 A 
ATOM     31  N   UNL     1       1.871  -1.685   0.215  0.00  0.00    -0.263 NA
ATOM     32  C   UNL     1       0.661  -1.164   0.142  0.00  0.00    +0.111 A 
ENDBRANCH  26  29
ENDBRANCH   1  26
TORSDOF 6
