REMARK  Name = CHEMBL476136
REMARK  11 active torsions:
REMARK  status: ('A' for Active; 'I' for Inactive)
REMARK    1  A    between atoms: C_1  and  C_2
REMARK    2  A    between atoms: C_2  and  N_3
REMARK    3  A    between atoms: C_7  and  N_8
REMARK    4  A    between atoms: N_8  and  C_9
REMARK    5  A    between atoms: C_12  and  C_15
REMARK    6  A    between atoms: C_15  and  C_16
REMARK    7  A    between atoms: C_16  and  N_17
REMARK    8  A    between atoms: C_24  and  C_25
REMARK    9  A    between atoms: C_24  and  C_27
REMARK   10  A    between atoms: N_29  and  C_30
REMARK   11  A    between atoms: C_30  and  C_31
REMARK                            x       y       z     vdW  Elec       q    Type
REMARK                         _______ _______ _______ _____ _____    ______ ____
ROOT
ATOM      1  N   UNL     1       0.716  -0.467   1.195  0.00  0.00    -0.301 N 
ATOM      2  C   UNL     1       2.006  -0.762   1.121  0.00  0.00    +0.267 A 
ATOM      3  O   UNL     1       2.645  -0.622   0.093  0.00  0.00    -0.266 OA
ATOM      4  C   UNL     1       2.595  -1.254   2.320  0.00  0.00    +0.092 A 
ATOM      5  C   UNL     1       3.876  -1.636   2.555  0.00  0.00    +0.092 C 
ATOM      6  S   UNL     1       1.200  -1.233   3.432  0.00  0.00    -0.063 S 
ATOM      7  C   UNL     1       0.040  -0.635   2.372  0.00  0.00    +0.106 A 
ATOM      8  C   UNL     1      -1.310  -0.372   2.633  0.00  0.00    +0.144 C 
ENDROOT
BRANCH   8   9
ATOM      9  C   UNL     1      -1.811  -0.482   3.955  0.00  0.00    +0.257 C 
ATOM     10  O   UNL     1      -1.066  -0.805   4.863  0.00  0.00    -0.269 OA
ATOM     11  N   UNL     1      -3.110  -0.229   4.207  0.00  0.00    -0.302 N 
ATOM     12  H   UNL     1      -3.703   0.029   3.483  0.00  0.00    +0.149 HD
BRANCH  11  13
ATOM     13  C   UNL     1      -3.628  -0.343   5.572  0.00  0.00    +0.217 C 
BRANCH  13  14
ATOM     14  C   UNL     1      -5.120  -0.005   5.582  0.00  0.00    +0.405 C 
ATOM     15  F   UNL     1      -5.805  -0.895   4.748  0.00  0.00    -0.169 F 
ATOM     16  F   UNL     1      -5.614  -0.113   6.887  0.00  0.00    -0.169 F 
ATOM     17  F   UNL     1      -5.305   1.303   5.121  0.00  0.00    -0.169 F 
ENDBRANCH  13  14
ENDBRANCH  11  13
ENDBRANCH   8   9
BRANCH   1  19
ATOM     18  C   UNL     1      -0.682  -1.109  -0.706  0.00  0.00    +0.027 C 
ATOM     19  C   UNL     1       0.015   0.046   0.016  0.00  0.00    +0.122 C 
ENDBRANCH   1  19
BRANCH   5  20
ATOM     20  N   UNL     1       4.240  -2.085   3.796  0.00  0.00    -0.319 N 
ATOM     21  H   UNL     1       3.583  -2.129   4.507  0.00  0.00    +0.152 HD
BRANCH  20  22
ATOM     22  C   UNL     1       5.559  -2.478   4.037  0.00  0.00    +0.031 A 
ATOM     23  C   UNL     1       6.503  -2.409   3.021  0.00  0.00    +0.023 A 
ATOM     24  C   UNL     1       7.806  -2.798   3.263  0.00  0.00    +0.005 A 
ATOM     25  C   UNL     1       8.171  -3.256   4.516  0.00  0.00    -0.049 A 
ATOM     26  C   UNL     1       7.233  -3.326   5.530  0.00  0.00    +0.005 A 
ATOM     27  C   UNL     1       5.930  -2.933   5.296  0.00  0.00    +0.023 A 
BRANCH  25  28
ATOM     28  C   UNL     1       9.593  -3.680   4.777  0.00  0.00    +0.016 C 
BRANCH  28  29
ATOM     29  C   UNL     1      10.403  -2.476   5.262  0.00  0.00    -0.074 C 
BRANCH  29  30
ATOM     30  N   UNL     1      11.790  -2.889   5.516  0.00  0.00    +0.380 N 
ATOM     31  C   UNL     1      12.468  -3.222   4.237  0.00  0.00    -0.079 C 
ATOM     32  C   UNL     1      13.971  -3.076   4.584  0.00  0.00    -0.020 C 
ATOM     33  C   UNL     1      13.988  -1.859   5.537  0.00  0.00    -0.020 C 
ATOM     34  C   UNL     1      12.557  -1.767   6.099  0.00  0.00    -0.079 C 
ATOM     35  H   UNL     1      11.808  -3.683   6.138  0.00  0.00    -0.082 HD
ENDBRANCH  29  30
ENDBRANCH  28  29
ENDBRANCH  25  28
ENDBRANCH  20  22
ENDBRANCH   5  20
BRANCH   8  36
ATOM     36  C   UNL     1      -2.185   0.008   1.565  0.00  0.00    +0.107 C 
ATOM     37  N   UNL     1      -2.879   0.310   0.718  0.00  0.00    -0.191 NA
ENDBRANCH   8  36
TORSDOF 10
