REMARK  Name = CHEMBL473629
REMARK  10 active torsions:
REMARK  status: ('A' for Active; 'I' for Inactive)
REMARK    1  A    between atoms: C_1  and  O_2
REMARK    2  A    between atoms: O_2  and  C_3
REMARK    3  A    between atoms: C_8  and  O_9
REMARK    4  A    between atoms: O_9  and  C_10
REMARK    5  A    between atoms: N_11  and  C_14
REMARK    6  A    between atoms: C_16  and  O_22
REMARK    7  A    between atoms: C_17  and  C_19
REMARK    8  A    between atoms: O_22  and  C_23
REMARK    9  A    between atoms: C_23  and  C_24
REMARK   10  A    between atoms: C_24  and  C_25
REMARK                            x       y       z     vdW  Elec       q    Type
REMARK                         _______ _______ _______ _____ _____    ______ ____
ROOT
ATOM      1  C   UNL     1       2.879  -3.495   4.776  0.00  0.00    +0.090 A 
ATOM      2  C   UNL     1       4.080  -3.998   5.197  0.00  0.00    +0.080 A 
ATOM      3  C   UNL     1       4.150  -5.304   5.614  0.00  0.00    +0.142 A 
ATOM      4  C   UNL     1       2.983  -6.066   5.591  0.00  0.00    +0.117 A 
ATOM      5  S   UNL     1       1.788  -4.894   4.972  0.00  0.00    -0.062 S 
ENDROOT
BRANCH   1  12
ATOM      6  C   UNL     1       0.626  -0.619   1.043  0.00  0.00    +0.164 A 
ATOM      7  C   UNL     1       1.198   0.138   2.044  0.00  0.00    +0.079 A 
ATOM      8  C   UNL     1       1.839  -0.494   3.113  0.00  0.00    +0.093 A 
ATOM      9  C   UNL     1       1.895  -1.897   3.157  0.00  0.00    +0.078 A 
ATOM     10  C   UNL     1       1.316  -2.648   2.144  0.00  0.00    +0.077 A 
ATOM     11  C   UNL     1       0.680  -2.013   1.094  0.00  0.00    +0.164 A 
ATOM     12  N   UNL     1       2.582  -2.215   4.316  0.00  0.00    -0.292 N 
ATOM     13  C   UNL     1       2.914  -1.039   4.925  0.00  0.00    +0.205 A 
ATOM     14  N   UNL     1       2.479  -0.035   4.221  0.00  0.00    -0.235 NA
BRANCH   6  16
ATOM     15  C   UNL     1      -0.017   1.425   0.010  0.00  0.00    +0.277 C 
ATOM     16  O   UNL     1       0.002  -0.004   0.002  0.00  0.00    -0.491 OA
ENDBRANCH   6  16
BRANCH  11  17
ATOM     17  O   UNL     1       0.109  -2.749   0.103  0.00  0.00    -0.491 OA
ATOM     18  C   UNL     1       0.200  -4.171   0.217  0.00  0.00    +0.277 C 
ENDBRANCH  11  17
ENDBRANCH   1  12
BRANCH   4  19
ATOM     19  C   UNL     1       2.795  -7.416   5.965  0.00  0.00    +0.252 C 
ATOM     20  O   UNL     1       3.736  -8.072   6.375  0.00  0.00    -0.270 OA
ATOM     21  N   UNL     1       1.573  -7.978   5.867  0.00  0.00    -0.325 N 
ATOM     22  H   UNL     1       0.824  -7.456   5.540  0.00  0.00    +0.145 HD
ATOM     23  H   UNL     1       1.444  -8.904   6.124  0.00  0.00    +0.145 HD
ENDBRANCH   4  19
BRANCH   3  24
ATOM     24  O   UNL     1       5.323  -5.839   6.039  0.00  0.00    -0.490 OA
BRANCH  24  25
ATOM     25  C   UNL     1       6.468  -4.982   6.029  0.00  0.00    +0.234 C 
BRANCH  25  26
ATOM     26  C   UNL     1       7.687  -5.755   6.536  0.00  0.00    +0.076 C 
BRANCH  26  27
ATOM     27  C   UNL     1       8.893  -4.852   6.526  0.00  0.00    -0.044 A 
ATOM     28  C   UNL     1       9.691  -4.778   5.399  0.00  0.00    +0.004 A 
ATOM     29  C   UNL     1      10.798  -3.950   5.390  0.00  0.00    +0.000 A 
ATOM     30  C   UNL     1      11.107  -3.196   6.506  0.00  0.00    +0.000 A 
ATOM     31  C   UNL     1      10.308  -3.269   7.632  0.00  0.00    +0.000 A 
ATOM     32  C   UNL     1       9.199  -4.094   7.640  0.00  0.00    +0.004 A 
ENDBRANCH  26  27
ENDBRANCH  25  26
ENDBRANCH  24  25
ENDBRANCH   3  24
TORSDOF 8
