REMARK  Name = CHEMBL1208892
REMARK  8 active torsions:
REMARK  status: ('A' for Active; 'I' for Inactive)
REMARK    1  A    between atoms: C_1  and  C_2
REMARK    2  A    between atoms: C_2  and  C_4
REMARK    3  A    between atoms: C_2  and  O_14
REMARK    4  A    between atoms: C_9  and  C_10
REMARK    5  A    between atoms: O_14  and  C_15
REMARK    6  A    between atoms: C_17  and  N_23
REMARK    7  A    between atoms: C_19  and  C_20
REMARK    8  A    between atoms: C_30  and  C_32
REMARK                            x       y       z     vdW  Elec       q    Type
REMARK                         _______ _______ _______ _____ _____    ______ ____
ROOT
ATOM      1  C   UNL     1      -0.106  -0.774  -2.243  0.00  0.00    +0.143 A 
ATOM      2  C   UNL     1      -1.460  -0.544  -2.221  0.00  0.00    +0.080 A 
ATOM      3  C   UNL     1      -2.210  -0.870  -3.319  0.00  0.00    +0.090 A 
ATOM      4  S   UNL     1      -0.985  -1.527  -4.439  0.00  0.00    -0.062 S 
ATOM      5  C   UNL     1       0.450  -1.329  -3.395  0.00  0.00    +0.117 A 
ENDROOT
BRANCH   3   6
ATOM      6  N   UNL     1      -3.580  -0.725  -3.512  0.00  0.00    -0.292 N 
ATOM      7  C   UNL     1      -4.565  -1.133  -2.660  0.00  0.00    +0.205 A 
ATOM      8  N   UNL     1      -5.732  -0.840  -3.154  0.00  0.00    -0.235 NA
ATOM      9  C   UNL     1      -5.580  -0.226  -4.356  0.00  0.00    +0.090 A 
ATOM     10  C   UNL     1      -4.197  -0.138  -4.601  0.00  0.00    +0.074 A 
ATOM     11  C   UNL     1      -3.732   0.456  -5.767  0.00  0.00    +0.029 A 
ATOM     12  C   UNL     1      -4.614   0.961  -6.679  0.00  0.00    +0.012 A 
ATOM     13  C   UNL     1      -5.992   0.885  -6.450  0.00  0.00    +0.003 A 
ATOM     14  C   UNL     1      -6.477   0.286  -5.294  0.00  0.00    +0.040 A 
BRANCH  13  15
ATOM     15  C   UNL     1      -6.938   1.437  -7.448  0.00  0.00    +0.076 A 
ATOM     16  C   UNL     1      -6.472   1.935  -8.669  0.00  0.00    +0.048 A 
ATOM     17  C   UNL     1      -7.393   2.439  -9.569  0.00  0.00    +0.116 A 
ATOM     18  N   UNL     1      -8.678   2.437  -9.252  0.00  0.00    -0.223 NA
ATOM     19  C   UNL     1      -9.092   1.958  -8.087  0.00  0.00    +0.213 A 
ATOM     20  N   UNL     1      -8.246   1.461  -7.199  0.00  0.00    -0.215 NA
ATOM     21  N   UNL     1     -10.445   1.974  -7.795  0.00  0.00    -0.327 N 
ATOM     22  H   UNL     1     -11.076   2.332  -8.438  0.00  0.00    +0.145 HD
ATOM     23  H   UNL     1     -10.761   1.627  -6.946  0.00  0.00    +0.145 HD
ENDBRANCH  13  15
ENDBRANCH   3   6
BRANCH   5  24
ATOM     24  C   UNL     1       1.798  -1.652  -3.666  0.00  0.00    +0.252 C 
ATOM     25  O   UNL     1       2.655  -1.446  -2.824  0.00  0.00    -0.270 OA
ATOM     26  N   UNL     1       2.138  -2.187  -4.855  0.00  0.00    -0.325 N 
ATOM     27  H   UNL     1       1.456  -2.350  -5.525  0.00  0.00    +0.145 HD
ATOM     28  H   UNL     1       3.064  -2.409  -5.041  0.00  0.00    +0.145 HD
ENDBRANCH   5  24
BRANCH   1  29
ATOM     29  O   UNL     1       0.671  -0.465  -1.174  0.00  0.00    -0.483 OA
BRANCH  29  31
ATOM     30  C   UNL     1      -0.238   1.501  -0.101  0.00  0.00    +0.057 C 
ATOM     31  C   UNL     1       0.002  -0.006   0.003  0.00  0.00    +0.201 C 
BRANCH  31  32
ATOM     32  C   UNL     1       0.856  -0.297   1.211  0.00  0.00    +0.004 A 
ATOM     33  C   UNL     1       2.226  -0.416   1.076  0.00  0.00    +0.008 A 
ATOM     34  C   UNL     1       3.009  -0.682   2.184  0.00  0.00    +0.000 A 
ATOM     35  C   UNL     1       2.421  -0.829   3.427  0.00  0.00    +0.001 A 
ATOM     36  C   UNL     1       1.050  -0.709   3.561  0.00  0.00    +0.013 A 
ATOM     37  C   UNL     1       0.268  -0.438   2.454  0.00  0.00    +0.061 A 
BRANCH  37  38
ATOM     38  C   UNL     1      -1.225  -0.302   2.602  0.00  0.00    +0.418 C 
ATOM     39  F   UNL     1      -1.580  -0.485   3.943  0.00  0.00    -0.166 F 
ATOM     40  F   UNL     1      -1.621   0.973   2.184  0.00  0.00    -0.166 F 
ATOM     41  F   UNL     1      -1.862  -1.268   1.815  0.00  0.00    -0.166 F 
ENDBRANCH  37  38
ENDBRANCH  31  32
ENDBRANCH  29  31
ENDBRANCH   1  29
TORSDOF 7
