REMARK  Name = CHEMBL1095709
REMARK  4 active torsions:
REMARK  status: ('A' for Active; 'I' for Inactive)
REMARK    1  A    between atoms: C_4  and  N_7
REMARK    2  A    between atoms: C_16  and  C_24
REMARK    3  A    between atoms: N_18  and  C_19
REMARK    4  A    between atoms: C_19  and  C_20
REMARK                            x       y       z     vdW  Elec       q    Type
REMARK                         _______ _______ _______ _____ _____    ______ ____
ROOT
ATOM      1  N   UNL     1       3.621  -0.650  -0.037  0.00  0.00    -0.284 N 
ATOM      2  C   UNL     1       3.645  -2.032   0.059  0.00  0.00    +0.220 A 
ATOM      3  N   UNL     1       2.500  -2.700   0.061  0.00  0.00    -0.222 NA
ATOM      4  C   UNL     1       2.471  -4.020   0.168  0.00  0.00    +0.120 A 
ATOM      5  C   UNL     1       3.663  -4.712   0.270  0.00  0.00    -0.001 A 
ATOM      6  C   UNL     1       4.855  -3.975   0.237  0.00  0.00    +0.097 A 
ATOM      7  N   UNL     1       4.813  -2.655   0.143  0.00  0.00    -0.212 NA
ATOM      8  C   UNL     1       6.119  -4.732   0.260  0.00  0.00    +0.092 A 
ATOM      9  C   UNL     1       6.116  -6.092   0.033  0.00  0.00    +0.012 A 
ATOM     10  C   UNL     1       7.449  -6.493   0.136  0.00  0.00    +0.151 A 
ATOM     11  N   UNL     1       8.164  -5.407   0.384  0.00  0.00    -0.165 NA
ATOM     12  N   UNL     1       7.402  -4.367   0.446  0.00  0.00    -0.253 N 
ATOM     13  C   UNL     1       4.862  -6.860  -0.270  0.00  0.00    +0.044 C 
ATOM     14  C   UNL     1       3.674  -6.204   0.434  0.00  0.00    +0.043 C 
ATOM     15  H   UNL     1       4.445  -0.144   0.038  0.00  0.00    +0.155 HD
ENDROOT
BRANCH   1  19
ATOM     16  C   UNL     1       0.010   1.333  -0.653  0.00  0.00    +0.000 A 
ATOM     17  C   UNL     1       1.002   1.926   0.107  0.00  0.00    +0.002 A 
ATOM     18  C   UNL     1       2.200   1.271   0.313  0.00  0.00    +0.023 A 
ATOM     19  C   UNL     1       2.409   0.016  -0.244  0.00  0.00    +0.034 A 
ATOM     20  C   UNL     1       1.410  -0.577  -1.006  0.00  0.00    +0.023 A 
ATOM     21  C   UNL     1       0.214   0.083  -1.209  0.00  0.00    +0.002 A 
ENDBRANCH   1  19
BRANCH  10  22
ATOM     22  C   UNL     1       7.964  -7.871  -0.004  0.00  0.00    +0.262 C 
ATOM     23  O   UNL     1       7.197  -8.786  -0.232  0.00  0.00    -0.269 OA
ATOM     24  N   UNL     1       9.284  -8.113   0.121  0.00  0.00    -0.324 N 
ATOM     25  H   UNL     1       9.896  -7.382   0.304  0.00  0.00    +0.145 HD
ATOM     26  H   UNL     1       9.622  -9.017   0.029  0.00  0.00    +0.145 HD
ENDBRANCH  10  22
BRANCH  12  27
ATOM     27  C   UNL     1       7.862  -2.996   0.684  0.00  0.00    +0.257 C 
BRANCH  27  28
ATOM     28  C   UNL     1       7.872  -2.715   2.188  0.00  0.00    +0.409 C 
ATOM     29  F   UNL     1       8.734  -3.614   2.825  0.00  0.00    -0.169 F 
ATOM     30  F   UNL     1       8.311  -1.406   2.414  0.00  0.00    -0.169 F 
ATOM     31  F   UNL     1       6.578  -2.868   2.699  0.00  0.00    -0.169 F 
ENDBRANCH  27  28
ENDBRANCH  12  27
TORSDOF 4
