REMARK  Name = CHEMBL484473
REMARK  9 active torsions:
REMARK  status: ('A' for Active; 'I' for Inactive)
REMARK    1  A    between atoms: C_1  and  C_2
REMARK    2  A    between atoms: C_6  and  N_23
REMARK    3  A    between atoms: N_9  and  C_11
REMARK    4  A    between atoms: C_13  and  C_18
REMARK    5  A    between atoms: C_18  and  C_19
REMARK    6  A    between atoms: C_19  and  C_20
REMARK    7  A    between atoms: N_23  and  C_24
REMARK    8  A    between atoms: C_24  and  C_26
REMARK    9  A    between atoms: C_24  and  C_27
REMARK                            x       y       z     vdW  Elec       q    Type
REMARK                         _______ _______ _______ _____ _____    ______ ____
ROOT
ATOM      1  C   UNL     1      -0.018   1.503   0.010  0.00  0.00    +0.068 C 
ATOM      2  C   UNL     1       0.002  -0.004   0.002  0.00  0.00    +0.070 A 
ATOM      3  C   UNL     1       0.008  -0.857  -1.181  0.00  0.00    +0.041 A 
ATOM      4  C   UNL     1      -0.001  -0.627  -2.558  0.00  0.00    +0.124 A 
ATOM      5  N   UNL     1       0.008  -1.639  -3.399  0.00  0.00    -0.240 NA
ATOM      6  C   UNL     1       0.028  -2.903  -2.988  0.00  0.00    +0.121 A 
ATOM      7  C   UNL     1       0.039  -3.221  -1.640  0.00  0.00    +0.072 A 
ATOM      8  C   UNL     1       0.029  -2.188  -0.708  0.00  0.00    +0.080 A 
ATOM      9  N   UNL     1       0.035  -2.121   0.659  0.00  0.00    -0.232 N 
ATOM     10  N   UNL     1       0.023  -0.777   1.051  0.00  0.00    -0.170 NA
ENDROOT
BRANCH   9  11
ATOM     11  C   UNL     1       0.053  -3.220   1.526  0.00  0.00    +0.068 A 
ATOM     12  C   UNL     1       0.743  -3.144   2.730  0.00  0.00    +0.031 A 
ATOM     13  C   UNL     1       0.759  -4.229   3.584  0.00  0.00    -0.043 A 
ATOM     14  C   UNL     1       0.091  -5.391   3.243  0.00  0.00    +0.023 A 
ATOM     15  C   UNL     1      -0.597  -5.469   2.044  0.00  0.00    +0.043 A 
ATOM     16  C   UNL     1      -0.622  -4.384   1.188  0.00  0.00    +0.047 A 
ATOM     17 CL   UNL     1      -1.435  -6.929   1.619  0.00  0.00    -0.083 Cl
BRANCH  13  18
ATOM     18  C   UNL     1       1.507  -4.148   4.890  0.00  0.00    +0.046 C 
BRANCH  18  19
ATOM     19  C   UNL     1       0.571  -3.626   5.982  0.00  0.00    +0.130 C 
BRANCH  19  20
ATOM     20  C   UNL     1       1.319  -3.545   7.288  0.00  0.00    +0.356 C 
ATOM     21  O   UNL     1       2.492  -3.873   7.340  0.00  0.00    -0.246 OA
ATOM     22  O   UNL     1       0.752  -3.151   8.292  0.00  0.00    -0.246 OA
ENDBRANCH  19  20
ENDBRANCH  18  19
ENDBRANCH  13  18
ENDBRANCH   9  11
BRANCH   6  23
ATOM     23  N   UNL     1       0.037  -3.926  -3.930  0.00  0.00    -0.322 N 
ATOM     24  H   UNL     1       0.029  -3.714  -4.877  0.00  0.00    +0.148 HD
BRANCH  23  25
ATOM     25  C   UNL     1       0.059  -5.324  -3.493  0.00  0.00    +0.099 C 
ATOM     26  C   UNL     1      -1.371  -5.793  -3.214  0.00  0.00    +0.033 C 
BRANCH  25  27
ATOM     27  C   UNL     1       0.665  -6.180  -4.575  0.00  0.00    -0.028 A 
ATOM     28  C   UNL     1       0.367  -5.931  -5.902  0.00  0.00    +0.005 A 
ATOM     29  C   UNL     1       0.923  -6.716  -6.894  0.00  0.00    +0.000 A 
ATOM     30  C   UNL     1       1.779  -7.749  -6.561  0.00  0.00    +0.000 A 
ATOM     31  C   UNL     1       2.078  -7.997  -5.234  0.00  0.00    +0.000 A 
ATOM     32  C   UNL     1       1.525  -7.210  -4.242  0.00  0.00    +0.005 A 
ENDBRANCH  25  27
ENDBRANCH  23  25
ENDBRANCH   6  23
TORSDOF 7
