REMARK  Name = CHEMBL493326
REMARK  8 active torsions:
REMARK  status: ('A' for Active; 'I' for Inactive)
REMARK    1  A    between atoms: C_1  and  C_2
REMARK    2  A    between atoms: C_2  and  C_4
REMARK    3  A    between atoms: C_2  and  O_11
REMARK    4  A    between atoms: O_11  and  C_12
REMARK    5  A    between atoms: C_14  and  N_20
REMARK    6  A    between atoms: C_16  and  C_17
REMARK    7  A    between atoms: C_26  and  O_29
REMARK    8  A    between atoms: O_29  and  C_30
REMARK                            x       y       z     vdW  Elec       q    Type
REMARK                         _______ _______ _______ _____ _____    ______ ____
ROOT
ATOM      1  C   UNL     1       2.025  -0.553  -1.118  0.00  0.00    +0.143 A 
ATOM      2  C   UNL     1       2.699  -0.315   0.055  0.00  0.00    +0.080 A 
ATOM      3  C   UNL     1       4.064  -0.413   0.071  0.00  0.00    +0.090 A 
ATOM      4  S   UNL     1       4.436  -0.858  -1.617  0.00  0.00    -0.062 S 
ATOM      5  C   UNL     1       2.767  -0.893  -2.248  0.00  0.00    +0.117 A 
ENDROOT
BRANCH   3   6
ATOM      6  N   UNL     1       4.939  -0.217   1.135  0.00  0.00    -0.292 N 
ATOM      7  C   UNL     1       4.960   0.855   1.980  0.00  0.00    +0.205 A 
ATOM      8  N   UNL     1       5.908   0.713   2.858  0.00  0.00    -0.235 NA
ATOM      9  C   UNL     1       6.562  -0.459   2.642  0.00  0.00    +0.090 A 
ATOM     10  C   UNL     1       5.947  -1.074   1.538  0.00  0.00    +0.077 A 
ATOM     11  C   UNL     1       6.407  -2.303   1.086  0.00  0.00    +0.074 A 
ATOM     12  C   UNL     1       7.467  -2.916   1.730  0.00  0.00    +0.122 A 
ATOM     13  C   UNL     1       8.072  -2.306   2.825  0.00  0.00    +0.048 A 
ATOM     14  C   UNL     1       7.635  -1.092   3.274  0.00  0.00    +0.033 A 
BRANCH  12  15
ATOM     15  O   UNL     1       7.921  -4.120   1.290  0.00  0.00    -0.495 OA
ATOM     16  C   UNL     1       9.019  -4.697   1.999  0.00  0.00    +0.277 C 
ENDBRANCH  12  15
ENDBRANCH   3   6
BRANCH   5  17
ATOM     17  C   UNL     1       2.315  -1.187  -3.554  0.00  0.00    +0.252 C 
ATOM     18  O   UNL     1       1.123  -1.161  -3.807  0.00  0.00    -0.270 OA
ATOM     19  N   UNL     1       3.202  -1.497  -4.520  0.00  0.00    -0.325 N 
ATOM     20  H   UNL     1       4.151  -1.518  -4.318  0.00  0.00    +0.145 HD
ATOM     21  H   UNL     1       2.892  -1.699  -5.416  0.00  0.00    +0.145 HD
ENDBRANCH   5  17
BRANCH   1  22
ATOM     22  O   UNL     1       0.671  -0.465  -1.174  0.00  0.00    -0.483 OA
BRANCH  22  24
ATOM     23  C   UNL     1      -0.050   1.264   0.353  0.00  0.00    +0.057 C 
ATOM     24  C   UNL     1      -0.016  -0.237   0.059  0.00  0.00    +0.202 C 
BRANCH  24  25
ATOM     25  C   UNL     1      -1.425  -0.760  -0.048  0.00  0.00    +0.011 A 
ATOM     26  C   UNL     1      -2.030  -0.871  -1.286  0.00  0.00    +0.008 A 
ATOM     27  C   UNL     1      -3.323  -1.350  -1.383  0.00  0.00    +0.000 A 
ATOM     28  C   UNL     1      -4.012  -1.719  -0.243  0.00  0.00    +0.001 A 
ATOM     29  C   UNL     1      -3.408  -1.608   0.995  0.00  0.00    +0.020 A 
ATOM     30  C   UNL     1      -2.112  -1.134   1.093  0.00  0.00    +0.048 A 
ATOM     31 CL   UNL     1      -1.351  -1.001   2.648  0.00  0.00    -0.083 Cl
ENDBRANCH  24  25
ENDBRANCH  22  24
ENDBRANCH   1  22
TORSDOF 6
