REMARK  Name = CHEMBL1208964
REMARK  9 active torsions:
REMARK  status: ('A' for Active; 'I' for Inactive)
REMARK    1  A    between atoms: C_1  and  C_2
REMARK    2  A    between atoms: C_2  and  C_4
REMARK    3  A    between atoms: C_2  and  O_11
REMARK    4  A    between atoms: O_11  and  C_12
REMARK    5  A    between atoms: C_14  and  N_20
REMARK    6  A    between atoms: C_16  and  C_17
REMARK    7  A    between atoms: C_27  and  C_29
REMARK    8  A    between atoms: N_35  and  C_36
REMARK    9  A    between atoms: N_39  and  C_42
REMARK                            x       y       z     vdW  Elec       q    Type
REMARK                         _______ _______ _______ _____ _____    ______ ____
ROOT
ATOM      1  N   UNL     1      -3.580  -0.726  -3.512  0.00  0.00    -0.292 N 
ATOM      2  C   UNL     1      -4.565  -1.132  -2.661  0.00  0.00    +0.205 A 
ATOM      3  N   UNL     1      -5.732  -0.840  -3.155  0.00  0.00    -0.235 NA
ATOM      4  C   UNL     1      -5.580  -0.225  -4.357  0.00  0.00    +0.090 A 
ATOM      5  C   UNL     1      -4.197  -0.137  -4.601  0.00  0.00    +0.074 A 
ATOM      6  C   UNL     1      -3.732   0.457  -5.767  0.00  0.00    +0.029 A 
ATOM      7  C   UNL     1      -4.616   0.961  -6.679  0.00  0.00    +0.010 A 
ATOM      8  C   UNL     1      -5.993   0.885  -6.450  0.00  0.00    -0.016 A 
ATOM      9  C   UNL     1      -6.477   0.287  -5.294  0.00  0.00    +0.038 A 
ENDROOT
BRANCH   8  10
ATOM     10  C   UNL     1      -6.940   1.437  -7.449  0.00  0.00    -0.013 A 
ATOM     11  C   UNL     1      -8.322   1.377  -7.238  0.00  0.00    +0.028 A 
ATOM     12  C   UNL     1      -9.171   1.901  -8.188  0.00  0.00    +0.113 A 
ATOM     13  N   UNL     1      -8.698   2.455  -9.290  0.00  0.00    -0.240 NA
ATOM     14  C   UNL     1      -7.398   2.534  -9.531  0.00  0.00    +0.119 A 
ATOM     15  C   UNL     1      -6.476   2.035  -8.621  0.00  0.00    +0.052 A 
ATOM     16  N   UNL     1      -6.952   3.128 -10.706  0.00  0.00    -0.326 N 
ATOM     17  H   UNL     1      -7.592   3.482 -11.344  0.00  0.00    +0.148 HD
BRANCH  16  18
ATOM     18  C   UNL     1      -5.516   3.220 -10.982  0.00  0.00    +0.068 C 
ATOM     19  C   UNL     1      -4.946   4.475 -10.315  0.00  0.00    +0.003 C 
ATOM     20  C   UNL     1      -3.464   4.607 -10.672  0.00  0.00    -0.077 C 
ATOM     21  N   UNL     1      -3.315   4.714 -12.128  0.00  0.00    +0.378 N 
ATOM     22  C   UNL     1      -3.794   3.484 -12.770  0.00  0.00    -0.077 C 
ATOM     23  C   UNL     1      -5.289   3.309 -12.493  0.00  0.00    +0.003 C 
ATOM     24  C   UNL     1      -1.899   4.918 -12.461  0.00  0.00    -0.096 C 
ATOM     25  H   UNL     1      -3.854   5.499 -12.463  0.00  0.00    -0.082 HD
ENDBRANCH  16  18
ENDBRANCH   8  10
BRANCH   1  28
ATOM     26  C   UNL     1      -0.106  -0.774  -2.243  0.00  0.00    +0.143 A 
ATOM     27  C   UNL     1      -1.460  -0.544  -2.221  0.00  0.00    +0.080 A 
ATOM     28  C   UNL     1      -2.210  -0.870  -3.319  0.00  0.00    +0.090 A 
ATOM     29  S   UNL     1      -0.985  -1.527  -4.439  0.00  0.00    -0.062 S 
ATOM     30  C   UNL     1       0.450  -1.329  -3.395  0.00  0.00    +0.117 A 
BRANCH  30  31
ATOM     31  C   UNL     1       1.798  -1.651  -3.666  0.00  0.00    +0.252 C 
ATOM     32  O   UNL     1       2.655  -1.446  -2.824  0.00  0.00    -0.270 OA
ATOM     33  N   UNL     1       2.138  -2.187  -4.855  0.00  0.00    -0.325 N 
ATOM     34  H   UNL     1       1.456  -2.350  -5.525  0.00  0.00    +0.145 HD
ATOM     35  H   UNL     1       3.064  -2.408  -5.041  0.00  0.00    +0.145 HD
ENDBRANCH  30  31
BRANCH  26  36
ATOM     36  O   UNL     1       0.671  -0.465  -1.174  0.00  0.00    -0.483 OA
BRANCH  36  38
ATOM     37  C   UNL     1      -0.237   1.501  -0.101  0.00  0.00    +0.057 C 
ATOM     38  C   UNL     1       0.002  -0.006   0.003  0.00  0.00    +0.202 C 
BRANCH  38  39
ATOM     39  C   UNL     1       0.855  -0.297   1.211  0.00  0.00    +0.011 A 
ATOM     40  C   UNL     1       2.226  -0.417   1.077  0.00  0.00    +0.008 A 
ATOM     41  C   UNL     1       3.009  -0.683   2.184  0.00  0.00    +0.000 A 
ATOM     42  C   UNL     1       2.421  -0.831   3.427  0.00  0.00    +0.001 A 
ATOM     43  C   UNL     1       1.051  -0.711   3.563  0.00  0.00    +0.020 A 
ATOM     44  C   UNL     1       0.268  -0.439   2.455  0.00  0.00    +0.048 A 
ATOM     45 CL   UNL     1      -1.453  -0.282   2.626  0.00  0.00    -0.083 Cl
ENDBRANCH  38  39
ENDBRANCH  36  38
ENDBRANCH  26  36
ENDBRANCH   1  28
TORSDOF 7
