REMARK  Name = CHEMBL475881
REMARK  16 active torsions:
REMARK  status: ('A' for Active; 'I' for Inactive)
REMARK    1  A    between atoms: C_1  and  C_2
REMARK    2  A    between atoms: C_2  and  N_3
REMARK    3  A    between atoms: C_7  and  N_8
REMARK    4  A    between atoms: N_8  and  C_9
REMARK    5  A    between atoms: C_15  and  C_19
REMARK    6  A    between atoms: N_21  and  C_22
REMARK    7  A    between atoms: C_22  and  C_23
REMARK    8  A    between atoms: C_23  and  N_24
REMARK    9  A    between atoms: N_24  and  C_25
REMARK   10  A    between atoms: N_24  and  C_27
REMARK   11  A    between atoms: C_25  and  C_26
REMARK   12  A    between atoms: C_27  and  C_28
REMARK   13  A    between atoms: C_31  and  C_32
REMARK   14  A    between atoms: C_31  and  C_34
REMARK   15  A    between atoms: N_36  and  C_37
REMARK   16  A    between atoms: C_37  and  C_38
REMARK                            x       y       z     vdW  Elec       q    Type
REMARK                         _______ _______ _______ _____ _____    ______ ____
ROOT
ATOM      1  N   UNL     1       3.531  -2.951   0.733  0.00  0.00    -0.319 N 
ATOM      2  H   UNL     1       3.324  -2.514  -0.108  0.00  0.00    +0.152 HD
ENDROOT
BRANCH   1   3
ATOM      3  C   UNL     1       4.853  -3.297   1.034  0.00  0.00    +0.032 A 
ATOM      4  C   UNL     1       5.149  -3.930   2.240  0.00  0.00    +0.025 A 
ATOM      5  C   UNL     1       6.445  -4.276   2.550  0.00  0.00    +0.028 A 
ATOM      6  C   UNL     1       7.473  -3.994   1.656  0.00  0.00    +0.047 A 
ATOM      7  C   UNL     1       7.177  -3.357   0.440  0.00  0.00    +0.014 A 
ATOM      8  C   UNL     1       5.864  -3.014   0.131  0.00  0.00    +0.034 A 
ATOM      9  C   UNL     1       8.465  -3.208  -0.262  0.00  0.00    +0.062 A 
ATOM     10  C   UNL     1       9.415  -3.748   0.554  0.00  0.00    +0.096 A 
ATOM     11  N   UNL     1       8.836  -4.214   1.686  0.00  0.00    -0.360 N 
ATOM     12  H   UNL     1       9.312  -4.641   2.416  0.00  0.00    +0.165 HD
BRANCH   9  13
ATOM     13  C   UNL     1       8.682  -2.598  -1.580  0.00  0.00    +0.246 C 
ATOM     14  O   UNL     1       7.740  -2.152  -2.207  0.00  0.00    -0.270 OA
ATOM     15  N   UNL     1       9.926  -2.533  -2.096  0.00  0.00    -0.313 N 
ATOM     16  H   UNL     1      10.677  -2.889  -1.597  0.00  0.00    +0.149 HD
BRANCH  15  17
ATOM     17  C   UNL     1      10.142  -1.925  -3.411  0.00  0.00    +0.086 C 
BRANCH  17  18
ATOM     18  C   UNL     1      11.631  -1.978  -3.759  0.00  0.00    -0.060 C 
BRANCH  18  19
ATOM     19  N   UNL     1      11.832  -1.488  -5.129  0.00  0.00    +0.380 N 
ATOM     20  H   UNL     1      11.248  -2.013  -5.763  0.00  0.00    -0.082 HD
BRANCH  19  21
ATOM     21  C   UNL     1      11.473  -0.066  -5.198  0.00  0.00    -0.082 C 
ATOM     22  C   UNL     1      11.563   0.414  -6.648  0.00  0.00    -0.017 C 
ENDBRANCH  19  21
BRANCH  19  23
ATOM     23  C   UNL     1      13.241  -1.657  -5.508  0.00  0.00    -0.082 C 
ATOM     24  C   UNL     1      13.575  -3.148  -5.582  0.00  0.00    -0.017 C 
ENDBRANCH  19  23
ENDBRANCH  18  19
ENDBRANCH  17  18
ENDBRANCH  15  17
ENDBRANCH   9  13
ENDBRANCH   1   3
BRANCH   1  29
ATOM     25  N   UNL     1      -0.584  -2.054   0.169  0.00  0.00    -0.301 N 
ATOM     26  C   UNL     1       0.726  -2.255   0.172  0.00  0.00    +0.267 A 
ATOM     27  O   UNL     1       1.436  -1.914  -0.757  0.00  0.00    -0.266 OA
ATOM     28  C   UNL     1       1.249  -2.894   1.333  0.00  0.00    +0.092 A 
ATOM     29  C   UNL     1       2.531  -3.229   1.625  0.00  0.00    +0.092 C 
ATOM     30  S   UNL     1      -0.231  -3.135   2.299  0.00  0.00    -0.063 S 
ATOM     31  C   UNL     1      -1.341  -2.449   1.239  0.00  0.00    +0.107 A 
ATOM     32  C   UNL     1      -2.721  -2.315   1.411  0.00  0.00    +0.148 C 
BRANCH  32  33
ATOM     33  C   UNL     1      -3.340  -2.677   2.690  0.00  0.00    +0.286 C 
ATOM     34  O   UNL     1      -2.574  -3.141   3.705  0.00  0.00    -0.265 OA
ATOM     35  N   UNL     1      -4.631  -2.551   2.850  0.00  0.00    -0.237 NA
BRANCH  35  36
ATOM     36  C   UNL     1      -5.249  -2.912   4.128  0.00  0.00    +0.258 C 
BRANCH  36  37
ATOM     37  C   UNL     1      -5.838  -1.661   4.782  0.00  0.00    +0.409 C 
ATOM     38  F   UNL     1      -6.805  -1.105   3.937  0.00  0.00    -0.169 F 
ATOM     39  F   UNL     1      -6.429  -2.006   6.002  0.00  0.00    -0.169 F 
ATOM     40  F   UNL     1      -4.820  -0.727   5.004  0.00  0.00    -0.169 F 
ENDBRANCH  36  37
ENDBRANCH  35  36
ENDBRANCH  32  33
BRANCH  25  42
ATOM     41  C   UNL     1      -1.766  -2.470  -1.931  0.00  0.00    +0.027 C 
ATOM     42  C   UNL     1      -1.222  -1.404  -0.978  0.00  0.00    +0.122 C 
ENDBRANCH  25  42
BRANCH  32  43
ATOM     43  C   UNL     1      -3.531  -1.824   0.337  0.00  0.00    +0.107 C 
ATOM     44  N   UNL     1      -4.174  -1.434  -0.515  0.00  0.00    -0.191 NA
ENDBRANCH  32  43
ENDBRANCH   1  29
TORSDOF 13
