REMARK  Name = CHEMBL494123
REMARK  9 active torsions:
REMARK  status: ('A' for Active; 'I' for Inactive)
REMARK    1  A    between atoms: C_1  and  C_2
REMARK    2  A    between atoms: C_2  and  C_4
REMARK    3  A    between atoms: C_2  and  O_11
REMARK    4  A    between atoms: O_11  and  C_12
REMARK    5  A    between atoms: C_14  and  N_20
REMARK    6  A    between atoms: C_16  and  C_17
REMARK    7  A    between atoms: C_26  and  O_29
REMARK    8  A    between atoms: O_29  and  C_30
REMARK    9  A    between atoms: N_35  and  C_38
REMARK                            x       y       z     vdW  Elec       q    Type
REMARK                         _______ _______ _______ _____ _____    ______ ____
ROOT
ATOM      1  C   UNL     1      -1.054  -1.381  -0.973  0.00  0.00    +0.143 A 
ATOM      2  C   UNL     1      -0.430  -1.110  -2.165  0.00  0.00    +0.080 A 
ATOM      3  C   UNL     1      -1.181  -1.021  -3.306  0.00  0.00    +0.090 A 
ATOM      4  S   UNL     1      -2.832  -1.327  -2.703  0.00  0.00    -0.062 S 
ATOM      5  C   UNL     1      -2.437  -1.560  -0.978  0.00  0.00    +0.117 A 
ENDROOT
BRANCH   3   6
ATOM      6  N   UNL     1      -0.762  -0.758  -4.607  0.00  0.00    -0.292 N 
ATOM      7  C   UNL     1       0.050   0.265  -5.005  0.00  0.00    +0.205 A 
ATOM      8  N   UNL     1       0.236   0.211  -6.291  0.00  0.00    -0.235 NA
ATOM      9  C   UNL     1      -0.441  -0.847  -6.809  0.00  0.00    +0.090 A 
ATOM     10  C   UNL     1      -1.086  -1.487  -5.737  0.00  0.00    +0.077 A 
ATOM     11  C   UNL     1      -1.856  -2.617  -5.968  0.00  0.00    +0.074 A 
ATOM     12  C   UNL     1      -1.982  -3.109  -7.255  0.00  0.00    +0.123 A 
ATOM     13  C   UNL     1      -1.340  -2.475  -8.315  0.00  0.00    +0.048 A 
ATOM     14  C   UNL     1      -0.585  -1.356  -8.102  0.00  0.00    +0.033 A 
BRANCH  12  15
ATOM     15  O   UNL     1      -2.736  -4.216  -7.486  0.00  0.00    -0.489 OA
BRANCH  15  16
ATOM     16  C   UNL     1      -3.461  -4.750  -6.376  0.00  0.00    +0.172 C 
ATOM     17  C   UNL     1      -2.525  -5.672  -5.554  0.00  0.00    +0.043 C 
ATOM     18  C   UNL     1      -3.144  -5.913  -4.203  0.00  0.00    -0.015 C 
ATOM     19  C   UNL     1      -4.035  -7.167  -4.151  0.00  0.00    -0.079 C 
ATOM     20  N   UNL     1      -4.907  -7.322  -5.335  0.00  0.00    +0.378 N 
ATOM     21  C   UNL     1      -5.489  -6.066  -5.743  0.00  0.00    -0.076 C 
ATOM     22  C   UNL     1      -4.617  -5.487  -6.869  0.00  0.00    +0.026 C 
ATOM     23  C   UNL     1      -5.986  -8.267  -5.014  0.00  0.00    -0.096 C 
ATOM     24  H   UNL     1      -4.362  -7.695  -6.098  0.00  0.00    -0.082 HD
ENDBRANCH  15  16
ENDBRANCH  12  15
ENDBRANCH   3   6
BRANCH   5  25
ATOM     25  C   UNL     1      -3.301  -1.850   0.102  0.00  0.00    +0.252 C 
ATOM     26  O   UNL     1      -2.849  -1.975   1.227  0.00  0.00    -0.270 OA
ATOM     27  N   UNL     1      -4.624  -1.987  -0.112  0.00  0.00    -0.325 N 
ATOM     28  H   UNL     1      -4.984  -1.887  -1.007  0.00  0.00    +0.145 HD
ATOM     29  H   UNL     1      -5.217  -2.186   0.629  0.00  0.00    +0.145 HD
ENDBRANCH   5  25
BRANCH   1  30
ATOM     30  O   UNL     1      -0.344  -1.478   0.180  0.00  0.00    -0.483 OA
BRANCH  30  32
ATOM     31  C   UNL     1       1.518   0.059   0.059  0.00  0.00    +0.057 C 
ATOM     32  C   UNL     1       1.080  -1.407   0.073  0.00  0.00    +0.202 C 
BRANCH  32  33
ATOM     33  C   UNL     1       1.708  -2.107   1.250  0.00  0.00    +0.011 A 
ATOM     34  C   UNL     1       1.006  -2.235   2.434  0.00  0.00    +0.008 A 
ATOM     35  C   UNL     1       1.581  -2.878   3.513  0.00  0.00    +0.000 A 
ATOM     36  C   UNL     1       2.860  -3.393   3.410  0.00  0.00    +0.001 A 
ATOM     37  C   UNL     1       3.563  -3.266   2.227  0.00  0.00    +0.020 A 
ATOM     38  C   UNL     1       2.985  -2.628   1.144  0.00  0.00    +0.048 A 
ATOM     39 CL   UNL     1       3.865  -2.474  -0.344  0.00  0.00    -0.083 Cl
ENDBRANCH  32  33
ENDBRANCH  30  32
ENDBRANCH   1  30
TORSDOF 7
