REMARK  Name = CHEMBL563989
REMARK  13 active torsions:
REMARK  status: ('A' for Active; 'I' for Inactive)
REMARK    1  A    between atoms: C_1  and  C_2
REMARK    2  A    between atoms: C_2  and  C_4
REMARK    3  A    between atoms: C_2  and  O_19
REMARK    4  A    between atoms: C_7  and  C_13
REMARK    5  A    between atoms: C_9  and  C_10
REMARK    6  A    between atoms: C_13  and  N_14
REMARK    7  A    between atoms: N_14  and  C_15
REMARK    8  A    between atoms: C_15  and  C_16
REMARK    9  A    between atoms: C_15  and  C_17
REMARK   10  A    between atoms: C_15  and  C_18
REMARK   11  A    between atoms: O_19  and  C_20
REMARK   12  A    between atoms: C_22  and  C_28
REMARK   13  A    between atoms: C_24  and  C_25
REMARK                            x       y       z     vdW  Elec       q    Type
REMARK                         _______ _______ _______ _____ _____    ______ ____
ROOT
ATOM      1  O   UNL     1      -1.339  -0.499   0.012  0.00  0.00    -0.483 OA
ENDROOT
BRANCH   1   2
ATOM      2  C   UNL     1      -1.965  -0.607  -1.188  0.00  0.00    +0.141 A 
ATOM      3  C   UNL     1      -1.294  -0.350  -2.354  0.00  0.00    +0.064 A 
ATOM      4  C   UNL     1      -1.977  -0.474  -3.557  0.00  0.00    +0.042 A 
ATOM      5  S   UNL     1      -3.607  -0.965  -3.021  0.00  0.00    -0.079 S 
ATOM      6  C   UNL     1      -3.305  -0.987  -1.262  0.00  0.00    +0.116 A 
BRANCH   4   7
ATOM      7  C   UNL     1      -1.484  -0.256  -4.922  0.00  0.00    +0.080 A 
ATOM      8  C   UNL     1      -0.185   0.027  -5.295  0.00  0.00    +0.140 A 
ATOM      9  N   UNL     1      -0.149   0.153  -6.617  0.00  0.00    -0.235 NA
ATOM     10  C   UNL     1      -1.367  -0.034  -7.117  0.00  0.00    +0.138 A 
ATOM     11  N   UNL     1      -2.226  -0.298  -6.083  0.00  0.00    -0.299 N 
ATOM     12  C   UNL     1      -3.546  -0.536  -6.324  0.00  0.00    +0.093 A 
ATOM     13  C   UNL     1      -4.030  -0.518  -7.585  0.00  0.00    +0.018 A 
ATOM     14  C   UNL     1      -3.175  -0.255  -8.666  0.00  0.00    +0.005 A 
ATOM     15  C   UNL     1      -1.855  -0.007  -8.437  0.00  0.00    +0.047 A 
ENDBRANCH   4   7
BRANCH   6  16
ATOM     16  C   UNL     1      -4.196  -1.305  -0.213  0.00  0.00    +0.252 C 
ATOM     17  O   UNL     1      -3.814  -1.265   0.944  0.00  0.00    -0.270 OA
ATOM     18  N   UNL     1      -5.468  -1.654  -0.491  0.00  0.00    -0.325 N 
ATOM     19  H   UNL     1      -5.771  -1.686  -1.412  0.00  0.00    +0.145 HD
ATOM     20  H   UNL     1      -6.079  -1.872   0.229  0.00  0.00    +0.145 HD
ENDBRANCH   6  16
ENDBRANCH   1   2
BRANCH   1  22
ATOM     21  C   UNL     1       0.292   1.279  -0.130  0.00  0.00    +0.057 C 
ATOM     22  C   UNL     1       0.065  -0.229  -0.010  0.00  0.00    +0.201 C 
BRANCH  22  23
ATOM     23  C   UNL     1       0.693  -0.733   1.263  0.00  0.00    -0.004 A 
ATOM     24  C   UNL     1      -0.072  -0.865   2.407  0.00  0.00    +0.008 A 
ATOM     25  C   UNL     1       0.504  -1.327   3.575  0.00  0.00    +0.002 A 
ATOM     26  C   UNL     1       1.847  -1.656   3.600  0.00  0.00    -0.064 A 
ATOM     27  C   UNL     1       2.612  -1.525   2.457  0.00  0.00    +0.006 A 
ATOM     28  C   UNL     1       2.034  -1.067   1.287  0.00  0.00    -0.037 A 
BRANCH  28  29
ATOM     29  C   UNL     1       2.867  -0.928   0.039  0.00  0.00    +0.019 C 
ATOM     30  C   UNL     1       4.286  -1.501   0.070  0.00  0.00    +0.009 C 
ATOM     31  C   UNL     1       4.071   0.014   0.094  0.00  0.00    +0.009 C 
ENDBRANCH  28  29
BRANCH  26  32
ATOM     32  C   UNL     1       2.476  -2.159   4.874  0.00  0.00    -0.046 C 
BRANCH  32  33
ATOM     33  N   UNL     1       2.367  -3.623   4.929  0.00  0.00    +0.385 N 
ATOM     34  H   UNL     1       1.394  -3.889   4.907  0.00  0.00    -0.085 HD
ATOM     35  H   UNL     1       2.845  -4.026   4.137  0.00  0.00    -0.085 HD
BRANCH  33  36
ATOM     36  C   UNL     1       2.980  -4.112   6.171  0.00  0.00    -0.077 C 
ATOM     37  C   UNL     1       2.256  -3.502   7.373  0.00  0.00    -0.011 C 
ATOM     38  C   UNL     1       2.868  -5.637   6.229  0.00  0.00    -0.011 C 
ATOM     39  C   UNL     1       4.456  -3.709   6.205  0.00  0.00    -0.011 C 
ENDBRANCH  33  36
ENDBRANCH  32  33
ENDBRANCH  26  32
ENDBRANCH  22  23
ENDBRANCH   1  22
TORSDOF 9
