REMARK  Name = CHEMBL564529
REMARK  9 active torsions:
REMARK  status: ('A' for Active; 'I' for Inactive)
REMARK    1  A    between atoms: C_1  and  C_2
REMARK    2  A    between atoms: C_2  and  C_4
REMARK    3  A    between atoms: C_2  and  O_18
REMARK    4  A    between atoms: C_7  and  C_11
REMARK    5  A    between atoms: C_11  and  N_12
REMARK    6  A    between atoms: N_12  and  C_13
REMARK    7  A    between atoms: O_18  and  C_19
REMARK    8  A    between atoms: C_21  and  C_27
REMARK    9  A    between atoms: C_23  and  C_24
REMARK                            x       y       z     vdW  Elec       q    Type
REMARK                         _______ _______ _______ _____ _____    ______ ____
ROOT
ATOM      1  O   UNL     1       0.671  -0.465  -1.174  0.00  0.00    -0.483 OA
ENDROOT
BRANCH   1   2
ATOM      2  C   UNL     1       2.025  -0.553  -1.118  0.00  0.00    +0.141 A 
ATOM      3  C   UNL     1       2.695  -0.309   0.051  0.00  0.00    +0.064 A 
ATOM      4  C   UNL     1       4.081  -0.412   0.058  0.00  0.00    +0.042 A 
ATOM      5  S   UNL     1       4.439  -0.864  -1.631  0.00  0.00    -0.079 S 
ATOM      6  C   UNL     1       2.765  -0.899  -2.249  0.00  0.00    +0.116 A 
BRANCH   4   7
ATOM      7  C   UNL     1       5.013  -0.201   1.172  0.00  0.00    +0.080 A 
ATOM      8  C   UNL     1       4.683   0.050   2.489  0.00  0.00    +0.140 A 
ATOM      9  N   UNL     1       5.807   0.180   3.183  0.00  0.00    -0.235 NA
ATOM     10  C   UNL     1       6.852   0.025   2.376  0.00  0.00    +0.138 A 
ATOM     11  N   UNL     1       6.390  -0.221   1.110  0.00  0.00    -0.299 N 
ATOM     12  C   UNL     1       7.262  -0.425   0.082  0.00  0.00    +0.093 A 
ATOM     13  C   UNL     1       8.596  -0.391   0.294  0.00  0.00    +0.018 A 
ATOM     14  C   UNL     1       9.100  -0.145   1.580  0.00  0.00    +0.005 A 
ATOM     15  C   UNL     1       8.239   0.069   2.613  0.00  0.00    +0.047 A 
ENDBRANCH   4   7
BRANCH   6  16
ATOM     16  C   UNL     1       2.306  -1.199  -3.551  0.00  0.00    +0.252 C 
ATOM     17  O   UNL     1       1.113  -1.172  -3.798  0.00  0.00    -0.270 OA
ATOM     18  N   UNL     1       3.188  -1.514  -4.520  0.00  0.00    -0.325 N 
ATOM     19  H   UNL     1       4.138  -1.535  -4.323  0.00  0.00    +0.145 HD
ATOM     20  H   UNL     1       2.873  -1.720  -5.414  0.00  0.00    +0.145 HD
ENDBRANCH   6  16
ENDBRANCH   1   2
BRANCH   1  22
ATOM     21  C   UNL     1      -0.048   1.272   0.345  0.00  0.00    +0.057 C 
ATOM     22  C   UNL     1      -0.015  -0.231   0.058  0.00  0.00    +0.202 C 
BRANCH  22  23
ATOM     23  C   UNL     1      -1.425  -0.753  -0.045  0.00  0.00    +0.011 A 
ATOM     24  C   UNL     1      -2.030  -0.870  -1.282  0.00  0.00    +0.009 A 
ATOM     25  C   UNL     1      -3.323  -1.350  -1.376  0.00  0.00    +0.002 A 
ATOM     26  C   UNL     1      -4.011  -1.713  -0.234  0.00  0.00    -0.063 A 
ATOM     27  C   UNL     1      -3.407  -1.597   1.004  0.00  0.00    +0.022 A 
ATOM     28  C   UNL     1      -2.111  -1.122   1.098  0.00  0.00    +0.048 A 
ATOM     29 CL   UNL     1      -1.349  -0.982   2.652  0.00  0.00    -0.083 Cl
BRANCH  26  30
ATOM     30  C   UNL     1      -5.421  -2.235  -0.337  0.00  0.00    -0.046 C 
BRANCH  30  31
ATOM     31  N   UNL     1      -5.392  -3.696  -0.488  0.00  0.00    +0.384 N 
ATOM     32  H   UNL     1      -4.882  -3.938  -1.324  0.00  0.00    -0.085 HD
ATOM     33  H   UNL     1      -4.939  -4.108   0.314  0.00  0.00    -0.085 HD
BRANCH  31  34
ATOM     34  C   UNL     1      -6.766  -4.206  -0.589  0.00  0.00    -0.071 C 
ATOM     35  C   UNL     1      -7.500  -4.017   0.755  0.00  0.00    -0.016 C 
ATOM     36  C   UNL     1      -8.382  -5.284   0.887  0.00  0.00    -0.002 C 
ATOM     37  C   UNL     1      -7.472  -6.396   0.310  0.00  0.00    -0.002 C 
ATOM     38  C   UNL     1      -6.749  -5.718  -0.872  0.00  0.00    -0.016 C 
ENDBRANCH  31  34
ENDBRANCH  30  31
ENDBRANCH  26  30
ENDBRANCH  22  23
ENDBRANCH   1  22
TORSDOF 8
