REMARK  Name = CHEMBL477605
REMARK  5 active torsions:
REMARK  status: ('A' for Active; 'I' for Inactive)
REMARK    1  A    between atoms: C_1  and  C_2
REMARK    2  A    between atoms: C_2  and  C_3
REMARK    3  A    between atoms: C_2  and  N_9
REMARK    4  A    between atoms: C_13  and  C_26
REMARK    5  A    between atoms: C_14  and  N_16
REMARK                            x       y       z     vdW  Elec       q    Type
REMARK                         _______ _______ _______ _____ _____    ______ ____
ROOT
ATOM      1  N   UNL     1      -1.437  -0.338   0.005  0.00  0.00    -0.307 N 
ATOM      2  C   UNL     1      -2.076  -0.575   1.205  0.00  0.00    +0.217 A 
ATOM      3  N   UNL     1      -1.429  -0.328   2.337  0.00  0.00    -0.222 NA
ATOM      4  C   UNL     1      -2.000  -0.538   3.510  0.00  0.00    +0.136 A 
ATOM      5  C   UNL     1      -3.309  -1.029   3.550  0.00  0.00    +0.110 A 
ATOM      6  C   UNL     1      -3.965  -1.279   2.325  0.00  0.00    +0.144 A 
ATOM      7  N   UNL     1      -3.318  -1.035   1.192  0.00  0.00    -0.198 NA
ATOM      8  H   UNL     1      -1.898  -0.509  -0.832  0.00  0.00    +0.149 HD
ENDROOT
BRANCH   6   9
ATOM      9  N   UNL     1      -5.257  -1.765   2.306  0.00  0.00    -0.309 N 
ATOM     10  C   UNL     1      -6.415  -0.856   2.297  0.00  0.00    +0.111 C 
ATOM     11  C   UNL     1      -7.159  -1.057   0.977  0.00  0.00    +0.054 C 
ATOM     12  C   UNL     1      -7.364  -2.522   0.695  0.00  0.00    -0.041 A 
ATOM     13  C   UNL     1      -8.364  -2.870  -0.206  0.00  0.00    +0.004 A 
ATOM     14  C   UNL     1      -8.598  -4.193  -0.516  0.00  0.00    +0.000 A 
ATOM     15  C   UNL     1      -7.833  -5.184   0.071  0.00  0.00    +0.000 A 
ATOM     16  C   UNL     1      -6.843  -4.841   0.968  0.00  0.00    +0.005 A 
ATOM     17  C   UNL     1      -6.610  -3.510   1.286  0.00  0.00    -0.027 A 
ATOM     18  C   UNL     1      -5.530  -3.206   2.288  0.00  0.00    +0.142 C 
ENDBRANCH   6   9
BRANCH   1  20
ATOM     19  C   UNL     1      -0.084   1.696   0.115  0.00  0.00    +0.033 C 
ATOM     20  C   UNL     1      -0.064   0.171  -0.006  0.00  0.00    +0.100 C 
BRANCH  20  21
ATOM     21  C   UNL     1       0.607  -0.221  -1.298  0.00  0.00    -0.027 A 
ATOM     22  C   UNL     1      -0.096  -0.166  -2.486  0.00  0.00    +0.005 A 
ATOM     23  C   UNL     1       0.520  -0.525  -3.671  0.00  0.00    +0.000 A 
ATOM     24  C   UNL     1       1.838  -0.941  -3.666  0.00  0.00    +0.000 A 
ATOM     25  C   UNL     1       2.542  -0.995  -2.477  0.00  0.00    +0.000 A 
ATOM     26  C   UNL     1       1.927  -0.631  -1.294  0.00  0.00    +0.005 A 
ENDBRANCH  20  21
ENDBRANCH   1  20
BRANCH   5  27
ATOM     27  C   UNL     1      -3.966  -1.272   4.799  0.00  0.00    +0.104 C 
ATOM     28  N   UNL     1      -4.487  -1.465   5.790  0.00  0.00    -0.191 NA
ENDBRANCH   5  27
TORSDOF 4
