REMARK  Name = CHEMBL520284
REMARK  10 active torsions:
REMARK  status: ('A' for Active; 'I' for Inactive)
REMARK    1  A    between atoms: C_1  and  O_2
REMARK    2  A    between atoms: O_2  and  C_3
REMARK    3  A    between atoms: C_8  and  O_9
REMARK    4  A    between atoms: O_9  and  C_10
REMARK    5  A    between atoms: N_11  and  C_14
REMARK    6  A    between atoms: C_16  and  O_24
REMARK    7  A    between atoms: C_17  and  C_19
REMARK    8  A    between atoms: O_24  and  C_25
REMARK    9  A    between atoms: C_25  and  C_26
REMARK   10  A    between atoms: C_31  and  C_32
REMARK                            x       y       z     vdW  Elec       q    Type
REMARK                         _______ _______ _______ _____ _____    ______ ____
ROOT
ATOM      1  C   UNL     1       2.786  -3.446  -4.864  0.00  0.00    +0.090 A 
ATOM      2  C   UNL     1       2.564  -3.959  -6.111  0.00  0.00    +0.080 A 
ATOM      3  C   UNL     1       2.925  -5.261  -6.373  0.00  0.00    +0.141 A 
ATOM      4  C   UNL     1       3.504  -6.002  -5.353  0.00  0.00    +0.103 A 
ATOM      5  S   UNL     1       3.536  -4.824  -4.013  0.00  0.00    -0.064 S 
ENDROOT
BRANCH   1  12
ATOM      6  C   UNL     1       0.606  -0.608  -1.057  0.00  0.00    +0.164 A 
ATOM      7  C   UNL     1       1.169   0.161  -2.055  0.00  0.00    +0.079 A 
ATOM      8  C   UNL     1       1.790  -0.460  -3.143  0.00  0.00    +0.093 A 
ATOM      9  C   UNL     1       1.835  -1.863  -3.208  0.00  0.00    +0.078 A 
ATOM     10  C   UNL     1       1.265  -2.625  -2.198  0.00  0.00    +0.077 A 
ATOM     11  C   UNL     1       0.659  -2.001  -1.124  0.00  0.00    +0.164 A 
ATOM     12  N   UNL     1       2.504  -2.168  -4.381  0.00  0.00    -0.292 N 
ATOM     13  C   UNL     1       2.835  -0.987  -4.976  0.00  0.00    +0.205 A 
ATOM     14  N   UNL     1       2.418   0.010  -4.252  0.00  0.00    -0.235 NA
BRANCH   6  16
ATOM     15  C   UNL     1      -0.017   1.425   0.010  0.00  0.00    +0.277 C 
ATOM     16  O   UNL     1       0.002  -0.004   0.002  0.00  0.00    -0.491 OA
ENDBRANCH   6  16
BRANCH  11  17
ATOM     17  O   UNL     1       0.106  -2.748  -0.131  0.00  0.00    -0.491 OA
ATOM     18  C   UNL     1       0.194  -4.169  -0.262  0.00  0.00    +0.277 C 
ENDBRANCH  11  17
ENDBRANCH   1  12
BRANCH   4  19
ATOM     19  C   UNL     1       3.972  -7.392  -5.372  0.00  0.00    +0.217 A 
ATOM     20  N   UNL     1       3.936  -8.238  -6.411  0.00  0.00    -0.105 NA
ATOM     21  N   UNL     1       4.441  -9.356  -6.016  0.00  0.00    -0.021 NA
ATOM     22  N   UNL     1       4.792  -9.255  -4.782  0.00  0.00    -0.021 NA
ATOM     23  N   UNL     1       4.526  -8.067  -4.357  0.00  0.00    -0.105 NA
ENDBRANCH   4  19
BRANCH   3  24
ATOM     24  O   UNL     1       2.720  -5.808  -7.601  0.00  0.00    -0.486 OA
BRANCH  24  25
ATOM     25  C   UNL     1       2.119  -4.971  -8.591  0.00  0.00    +0.265 C 
BRANCH  25  26
ATOM     26  C   UNL     1       1.971  -5.741  -9.878  0.00  0.00    +0.001 A 
ATOM     27  C   UNL     1       2.391  -7.056  -9.948  0.00  0.00    +0.007 A 
ATOM     28  C   UNL     1       2.256  -7.763 -11.128  0.00  0.00    +0.000 A 
ATOM     29  C   UNL     1       1.700  -7.155 -12.239  0.00  0.00    +0.001 A 
ATOM     30  C   UNL     1       1.279  -5.840 -12.168  0.00  0.00    +0.013 A 
ATOM     31  C   UNL     1       1.411  -5.135 -10.986  0.00  0.00    +0.061 A 
BRANCH  31  32
ATOM     32  C   UNL     1       0.947  -3.703 -10.908  0.00  0.00    +0.418 C 
ATOM     33  F   UNL     1       0.420  -3.315 -12.144  0.00  0.00    -0.166 F 
ATOM     34  F   UNL     1      -0.040  -3.586  -9.923  0.00  0.00    -0.166 F 
ATOM     35  F   UNL     1       2.030  -2.879 -10.583  0.00  0.00    -0.166 F 
ENDBRANCH  31  32
ENDBRANCH  25  26
ENDBRANCH  24  25
ENDBRANCH   3  24
TORSDOF 8
