REMARK  Name = CHEMBL519880
REMARK  11 active torsions:
REMARK  status: ('A' for Active; 'I' for Inactive)
REMARK    1  A    between atoms: C_1  and  C_2
REMARK    2  A    between atoms: C_9  and  C_11
REMARK    3  A    between atoms: C_15  and  C_17
REMARK    4  A    between atoms: C_17  and  C_19
REMARK    5  A    between atoms: N_25  and  C_26
REMARK    6  A    between atoms: C_28  and  O_36
REMARK    7  A    between atoms: C_29  and  O_34
REMARK    8  A    between atoms: C_30  and  O_32
REMARK    9  A    between atoms: O_32  and  C_33
REMARK   10  A    between atoms: O_34  and  C_35
REMARK   11  A    between atoms: O_36  and  C_37
REMARK                            x       y       z     vdW  Elec       q    Type
REMARK                         _______ _______ _______ _____ _____    ______ ____
ROOT
ATOM      1  C   UNL     1      -2.973  -1.188   1.096  0.00  0.00    +0.068 C 
ATOM      2  C   UNL     1      -2.058  -2.383   1.020  0.00  0.00    +0.067 A 
ATOM      3  C   UNL     1      -1.887  -3.211  -0.075  0.00  0.00    +0.107 A 
ATOM      4  C   UNL     1      -2.423  -3.263  -1.371  0.00  0.00    +0.144 A 
ATOM      5  N   UNL     1      -2.035  -4.212  -2.193  0.00  0.00    -0.219 NA
ATOM      6  C   UNL     1      -1.139  -5.137  -1.829  0.00  0.00    +0.238 A 
ATOM      7  N   UNL     1      -0.598  -5.148  -0.632  0.00  0.00    -0.128 NA
ATOM      8  N   UNL     1      -0.960  -4.169   0.300  0.00  0.00    -0.208 N 
ATOM      9  C   UNL     1      -0.608  -3.898   1.576  0.00  0.00    +0.162 A 
ATOM     10  N   UNL     1      -1.268  -2.827   1.989  0.00  0.00    -0.230 NA
ATOM     11  N   UNL     1      -0.770  -6.114  -2.743  0.00  0.00    -0.282 N 
ATOM     12  H   UNL     1      -0.185  -6.838  -2.470  0.00  0.00    +0.155 HD
ENDROOT
BRANCH   9  13
ATOM     13  C   UNL     1       0.361  -4.671   2.381  0.00  0.00    +0.020 A 
ATOM     14  C   UNL     1       0.766  -5.941   1.960  0.00  0.00    +0.011 A 
ATOM     15  C   UNL     1       1.671  -6.664   2.710  0.00  0.00    +0.001 A 
ATOM     16  C   UNL     1       2.183  -6.139   3.880  0.00  0.00    +0.012 A 
ATOM     17  C   UNL     1       1.788  -4.871   4.313  0.00  0.00    +0.023 A 
ATOM     18  C   UNL     1       0.878  -4.132   3.557  0.00  0.00    +0.023 A 
BRANCH  17  19
ATOM     19  C   UNL     1       2.336  -4.311   5.566  0.00  0.00    +0.193 C 
ATOM     20  O   UNL     1       3.384  -4.734   6.013  0.00  0.00    -0.287 OA
BRANCH  19  21
ATOM     21  C   UNL     1       1.611  -3.237   6.275  0.00  0.00    +0.022 A 
ATOM     22  C   UNL     1       0.242  -3.055   6.061  0.00  0.00    +0.012 A 
ATOM     23  C   UNL     1      -0.429  -2.051   6.727  0.00  0.00    +0.001 A 
ATOM     24  C   UNL     1       0.250  -1.224   7.606  0.00  0.00    +0.000 A 
ATOM     25  C   UNL     1       1.606  -1.399   7.822  0.00  0.00    +0.001 A 
ATOM     26  C   UNL     1       2.289  -2.403   7.167  0.00  0.00    +0.012 A 
ENDBRANCH  19  21
ENDBRANCH  17  19
ENDBRANCH   9  13
BRANCH  11  27
ATOM     27  C   UNL     1      -1.243  -6.055  -4.060  0.00  0.00    +0.041 A 
ATOM     28  C   UNL     1      -1.375  -4.827  -4.695  0.00  0.00    +0.073 A 
ATOM     29  C   UNL     1      -1.844  -4.768  -5.998  0.00  0.00    +0.167 A 
ATOM     30  C   UNL     1      -2.181  -5.937  -6.669  0.00  0.00    +0.204 A 
ATOM     31  C   UNL     1      -2.048  -7.165  -6.033  0.00  0.00    +0.167 A 
ATOM     32  C   UNL     1      -1.575  -7.224  -4.731  0.00  0.00    +0.073 A 
BRANCH  31  33
ATOM     33  O   UNL     1      -2.378  -8.310  -6.688  0.00  0.00    -0.491 OA
ATOM     34  C   UNL     1      -2.216  -9.537  -5.973  0.00  0.00    +0.277 C 
ENDBRANCH  31  33
BRANCH  30  35
ATOM     35  O   UNL     1      -2.642  -5.879  -7.949  0.00  0.00    -0.488 OA
ATOM     36  C   UNL     1      -1.668  -5.947  -8.993  0.00  0.00    +0.277 C 
ENDBRANCH  30  35
BRANCH  29  37
ATOM     37  O   UNL     1      -1.974  -3.565  -6.620  0.00  0.00    -0.491 OA
ATOM     38  C   UNL     1      -1.610  -2.405  -5.870  0.00  0.00    +0.277 C 
ENDBRANCH  29  37
ENDBRANCH  11  27
TORSDOF 7
