REMARK  3 active torsions:
REMARK  status: ('A' for Active; 'I' for Inactive)
REMARK    1  A    between atoms: O14_2  and  C13_3 
REMARK    2  A    between atoms: C11_8  and  C10_9 
REMARK    3  A    between atoms: C10_9  and  C9_10 
ROOT
HETATM    1  C9  C4F A   1       6.541   3.514  19.160  1.00 22.86    -0.025 A 
HETATM    2  C1  C4F A   1       7.087   3.221  20.503  1.00 23.95     0.016 A 
HETATM    3  C8  C4F A   1       5.618   2.563  18.992  1.00 22.04     0.098 A 
HETATM    4  N7  C4F A   1       5.537   1.758  19.997  1.00 22.99    -0.351 N 
ATOM      5  H7  C4F A   1       4.911   0.955  20.059  1.00  0.00     0.166 HD
HETATM    6  C6  C4F A   1       6.402   2.139  20.946  1.00 22.14     0.115 A 
HETATM    7  N5  C4F A   1       6.624   1.597  22.143  1.00 23.95    -0.352 N 
ATOM      8  H5  C4F A   1       6.084   0.794  22.464  1.00  0.00     0.166 HD
HETATM    9  C4  C4F A   1       7.577   2.138  22.912  1.00 23.50     0.089 A 
HETATM   10  C3  C4F A   1       8.300   3.262  22.495  1.00 24.20     0.018 A 
HETATM   11  C2  C4F A   1       8.043   3.848  21.263  1.00 23.45     0.017 A 
ENDROOT
BRANCH   1  12
HETATM   12  C10 C4F A   1       6.940   4.649  18.215  1.00 21.89     0.079 C 
BRANCH  12  13
HETATM   13  C11 C4F A   1       6.125   4.496  16.951  1.00 21.43    -0.051 A 
HETATM   14  C18 C4F A   1       4.950   5.200  16.758  1.00 21.56     0.007 A 
HETATM   15  C17 C4F A   1       4.206   5.021  15.599  1.00 21.25     0.003 A 
HETATM   16  C16 C4F A   1       4.652   4.138  14.625  1.00 19.42     0.037 A 
HETATM   17  C13 C4F A   1       5.831   3.437  14.817  1.00 22.38     0.068 A 
HETATM   18  C12 C4F A   1       6.554   3.605  15.986  1.00 22.10     0.044 A 
BRANCH  17  19
HETATM   19  O14 C4F A   1       6.285   2.513  13.896  1.00 23.68    -0.356 OA
HETATM   20  C15 C4F A   1       5.400   2.021  12.880  1.00 22.02     0.210 C 
ENDBRANCH  17  19
ENDBRANCH  12  13
ENDBRANCH   1  12
TORSDOF 3
