REMARK  Name = ZINC36370415
REMARK  7 active torsions:
REMARK  status: ('A' for Active; 'I' for Inactive)
REMARK    1  A    between atoms: C_1  and  C_2
REMARK    2  A    between atoms: C_5  and  C_8
REMARK    3  A    between atoms: C_8  and  C_10
REMARK    4  A    between atoms: C_8  and  N_24
REMARK    5  A    between atoms: C_16  and  C_18
REMARK    6  A    between atoms: C_26  and  C_33
REMARK    7  A    between atoms: C_29  and  C_32
REMARK                            x       y       z     vdW  Elec       q    Type
REMARK                         _______ _______ _______ _____ _____    ______ ____
ROOT
ATOM      1  C   UNL     1       0.059  -4.275  -0.021  0.00  0.00    +0.006 C 
ENDROOT
BRANCH   1   2
ATOM      2  C   UNL     1      -1.332  -4.797   0.230  0.00  0.00    +0.050 A 
ATOM      3  C   UNL     1      -2.128  -5.503  -0.582  0.00  0.00    +0.282 A 
ATOM      4  N   UNL     1      -3.379  -5.894  -0.170  0.00  0.00    -0.169 N 
ATOM      5  C   UNL     1      -3.762  -5.530   1.092  0.00  0.00    +0.200 A 
ATOM      6  S   UNL     1      -2.346  -4.642   1.693  0.00  0.00    -0.050 S 
ATOM      7  N   UNL     1      -4.965  -5.973   1.331  0.00  0.00    -0.197 NA
ATOM      8  C   UNL     1      -5.415  -6.635   0.256  0.00  0.00    +0.218 A 
ATOM      9  N   UNL     1      -4.491  -6.614  -0.680  0.00  0.00    -0.138 NA
ATOM     10  O   UNL     1      -1.694  -5.836  -1.827  0.00  0.00    -0.265 OA
BRANCH   8  11
ATOM     11  C   UNL     1      -6.738  -7.283   0.140  0.00  0.00    +0.173 A 
ATOM     12  C   UNL     1      -7.702  -7.305   1.099  0.00  0.00    +0.053 A 
ATOM     13  C   UNL     1      -8.789  -8.027   0.565  0.00  0.00    +0.042 A 
ATOM     14  C   UNL     1      -8.438  -8.405  -0.680  0.00  0.00    +0.196 A 
ATOM     15  O   UNL     1      -7.200  -7.950  -0.935  0.00  0.00    -0.460 OA
ENDBRANCH   8  11
ENDBRANCH   1   2
BRANCH   1  16
ATOM     16  N   UNL     1       0.962  -4.759   1.032  0.00  0.00    +0.388 N 
ATOM     17  C   UNL     1       2.314  -4.243   0.790  0.00  0.00    -0.074 C 
ATOM     18  C   UNL     1       3.241  -4.677   1.928  0.00  0.00    -0.031 C 
ATOM     19  C   UNL     1       3.280  -6.207   1.992  0.00  0.00    +0.003 C 
ATOM     20  C   UNL     1       1.855  -6.737   2.170  0.00  0.00    -0.031 C 
ATOM     21  C   UNL     1       0.980  -6.227   1.023  0.00  0.00    -0.074 C 
ATOM     22  C   UNL     1       1.874  -8.267   2.157  0.00  0.00    +0.005 C 
ATOM     23  C   UNL     1       4.650  -4.139   1.673  0.00  0.00    +0.005 C 
ATOM     24  H   UNL     1       0.635  -4.434   1.929  0.00  0.00    -0.080 HD
ENDBRANCH   1  16
BRANCH   1  29
ATOM     25  C   UNL     1      -0.018   1.503   0.010  0.00  0.00    +0.044 C 
ATOM     26  C   UNL     1       0.002  -0.004   0.002  0.00  0.00    -0.050 A 
ATOM     27  C   UNL     1       0.006  -0.689  -1.199  0.00  0.00    +0.003 A 
ATOM     28  C   UNL     1       0.025  -2.071  -1.206  0.00  0.00    +0.002 A 
ATOM     29  C   UNL     1       0.040  -2.768  -0.013  0.00  0.00    -0.056 A 
ATOM     30  C   UNL     1       0.037  -2.084   1.188  0.00  0.00    +0.002 A 
ATOM     31  C   UNL     1       0.023  -0.702   1.195  0.00  0.00    +0.003 A 
ENDBRANCH   1  29
TORSDOF 4
