REMARK  Name = ZINC20884489
REMARK  13 active torsions:
REMARK  status: ('A' for Active; 'I' for Inactive)
REMARK    1  A    between atoms: C_1  and  C_2
REMARK    2  A    between atoms: C_2  and  O_3
REMARK    3  A    between atoms: O_3  and  C_4
REMARK    4  A    between atoms: C_7  and  C_12
REMARK    5  A    between atoms: C_9  and  O_10
REMARK    6  A    between atoms: O_10  and  C_11
REMARK    7  A    between atoms: C_17  and  C_27
REMARK    8  A    between atoms: C_31  and  O_37
REMARK    9  A    between atoms: C_32  and  O_33
REMARK   10  A    between atoms: O_33  and  C_34
REMARK   11  A    between atoms: C_34  and  C_35
REMARK   12  A    between atoms: C_34  and  C_36
REMARK   13  A    between atoms: O_37  and  C_38
REMARK                            x       y       z     vdW  Elec       q    Type
REMARK                         _______ _______ _______ _____ _____    ______ ____
ROOT
ATOM      1  C   UNL     1      -2.495   1.140   0.496  0.00  0.00    +0.032 C 
ATOM      2  C   UNL     1      -2.417   0.270  -0.757  0.00  0.00    +0.059 C 
ATOM      3  C   UNL     1      -3.687  -0.553  -0.896  0.00  0.00    +0.017 C 
ATOM      4  C   UNL     1      -4.344  -0.979   0.195  0.00  0.00    +0.037 C 
ATOM      5  C   UNL     1      -5.598  -1.821   0.202  0.00  0.00    +0.140 C 
ATOM      6  N   UNL     1      -6.241  -1.948  -1.089  0.00  0.00    -0.331 N 
ATOM      7  C   UNL     1      -5.609  -2.598  -2.148  0.00  0.00    +0.049 A 
ATOM      8  C   UNL     1      -6.080  -3.805  -2.639  0.00  0.00    +0.025 A 
ATOM      9  C   UNL     1      -5.361  -4.468  -3.618  0.00  0.00    +0.002 A 
ATOM     10  C   UNL     1      -4.181  -3.933  -4.103  0.00  0.00    +0.002 A 
ATOM     11  C   UNL     1      -3.719  -2.717  -3.629  0.00  0.00    +0.025 A 
ATOM     12  C   UNL     1      -4.447  -2.045  -2.663  0.00  0.00    +0.052 A 
ATOM     13  N   UNL     1      -4.064  -0.800  -2.176  0.00  0.00    -0.316 N 
ATOM     14  C   UNL     1      -3.873  -0.645   1.487  0.00  0.00    +0.163 C 
ATOM     15  O   UNL     1      -4.474  -1.064   2.456  0.00  0.00    -0.292 OA
ATOM     16  C   UNL     1      -2.658   0.207   1.702  0.00  0.00    +0.088 C 
ATOM     17  H   UNL     1      -7.245  -1.528  -1.247  0.00  0.00    +0.147 HD
ATOM     18  H   UNL     1      -4.080   0.017  -2.913  0.00  0.00    +0.152 HD
ENDROOT
BRANCH   1  22
ATOM     19  C   UNL     1       1.102   3.417   0.900  0.00  0.00    +0.162 A 
ATOM     20  C   UNL     1       1.156   2.034   0.853  0.00  0.00    +0.050 A 
ATOM     21  C   UNL     1      -0.009   1.300   0.727  0.00  0.00    +0.008 A 
ATOM     22  C   UNL     1      -1.229   1.944   0.640  0.00  0.00    -0.040 A 
ATOM     23  C   UNL     1      -1.290   3.325   0.691  0.00  0.00    +0.053 A 
ATOM     24  C   UNL     1      -0.127   4.066   0.819  0.00  0.00    +0.162 A 
BRANCH  24  25
ATOM     25  O   UNL     1      -0.185   5.424   0.864  0.00  0.00    -0.491 OA
ATOM     26  C   UNL     1      -1.480   6.021   0.775  0.00  0.00    +0.277 C 
ENDBRANCH  24  25
BRANCH  19  27
ATOM     27  O   UNL     1       2.247   4.140   1.024  0.00  0.00    -0.489 OA
BRANCH  27  29
ATOM     28  C   UNL     1       4.642   4.384   1.237  0.00  0.00    +0.048 C 
ATOM     29  C   UNL     1       3.472   3.408   1.102  0.00  0.00    +0.226 C 
ENDBRANCH  27  29
ENDBRANCH  19  27
ENDBRANCH   1  22
BRANCH   5  30
ATOM     30  C   UNL     1      -5.246  -3.199   0.698  0.00  0.00    +0.023 A 
ATOM     31  C   UNL     1      -4.449  -4.028  -0.070  0.00  0.00    +0.009 A 
ATOM     32  C   UNL     1      -4.120  -5.291   0.385  0.00  0.00    +0.004 A 
ATOM     33  C   UNL     1      -4.595  -5.735   1.605  0.00  0.00    +0.049 A 
ATOM     34  C   UNL     1      -5.398  -4.912   2.377  0.00  0.00    +0.162 A 
ATOM     35  C   UNL     1      -5.725  -3.638   1.922  0.00  0.00    +0.168 A 
BRANCH  34  36
ATOM     36  O   UNL     1      -5.866  -5.348   3.577  0.00  0.00    -0.491 OA
ATOM     37  C   UNL     1      -5.490  -6.666   3.981  0.00  0.00    +0.277 C 
ENDBRANCH  34  36
BRANCH  35  38
ATOM     38  O   UNL     1      -6.514  -2.827   2.676  0.00  0.00    -0.485 OA
BRANCH  38  39
ATOM     39  C   UNL     1      -7.926  -3.021   2.577  0.00  0.00    +0.168 C 
ATOM     40  C   UNL     1      -8.597  -2.549   3.869  0.00  0.00    +0.051 C 
ATOM     41  C   UNL     1      -8.470  -2.215   1.396  0.00  0.00    +0.051 C 
ENDBRANCH  38  39
ENDBRANCH  35  38
ENDBRANCH   5  30
TORSDOF 8
