REMARK  Name = ZINC04266917
REMARK  22 active torsions:
REMARK  status: ('A' for Active; 'I' for Inactive)
REMARK    1  A    between atoms: C_1  and  C_2
REMARK    2  A    between atoms: C_6  and  C_47
REMARK    3  A    between atoms: C_8  and  O_11
REMARK    4  A    between atoms: O_11  and  C_12
REMARK    5  A    between atoms: C_12  and  C_18
REMARK    6  A    between atoms: N_13  and  N_14
REMARK    7  A    between atoms: C_18  and  C_20
REMARK    8  A    between atoms: C_18  and  C_44
REMARK    9  A    between atoms: C_20  and  C_22
REMARK   10  A    between atoms: C_20  and  C_23
REMARK   11  A    between atoms: C_23  and  C_25
REMARK   12  A    between atoms: C_23  and  C_28
REMARK   13  A    between atoms: C_25  and  C_27
REMARK   14  A    between atoms: C_28  and  O_30
REMARK   15  A    between atoms: O_30  and  C_31
REMARK   16  A    between atoms: C_34  and  C_43
REMARK   17  A    between atoms: C_38  and  C_40
REMARK   18  A    between atoms: C_40  and  C_41
REMARK   19  A    between atoms: C_40  and  C_42
REMARK   20  A    between atoms: C_44  and  C_46
REMARK   21  A    between atoms: C_47  and  C_48
REMARK   22  A    between atoms: C_47  and  C_49
REMARK                            x       y       z     vdW  Elec       q    Type
REMARK                         _______ _______ _______ _____ _____    ______ ____
ROOT
ATOM      1  C   UNL     1       1.986   5.075  -4.918  0.00  0.00    +0.146 C 
ENDROOT
BRANCH   1   2
ATOM      2  C   UNL     1       0.659   4.863  -5.600  0.00  0.00    +0.143 C 
ATOM      3  O   UNL     1      -0.031   3.919  -5.296  0.00  0.00    -0.297 OA
ATOM      4  C   UNL     1       0.193   5.827  -6.660  0.00  0.00    +0.087 C 
ENDBRANCH   1   2
BRANCH   1   5
ATOM      5  C   UNL     1       1.861   4.730  -3.456  0.00  0.00    +0.216 C 
ATOM      6  N   UNL     1       2.544   5.385  -2.577  0.00  0.00    -0.145 NA
BRANCH   6   7
ATOM      7  N   UNL     1       3.331   6.474  -2.972  0.00  0.00    -0.188 N 
ATOM      8  C   UNL     1       4.123   7.094  -2.074  0.00  0.00    +0.317 C 
ATOM      9  O   UNL     1       4.806   8.040  -2.416  0.00  0.00    -0.251 OA
ATOM     10  N   UNL     1       4.157   6.665  -0.796  0.00  0.00    -0.312 N 
ATOM     11  H   UNL     1       3.307   6.783  -3.891  0.00  0.00    +0.179 HD
ATOM     12  H   UNL     1       3.612   5.910  -0.523  0.00  0.00    +0.147 HD
ATOM     13  H   UNL     1       4.727   7.111  -0.150  0.00  0.00    +0.147 HD
ENDBRANCH   6   7
BRANCH   5  14
ATOM     14  O   UNL     1       1.032   3.732  -3.065  0.00  0.00    -0.474 OA
BRANCH  14  20
ATOM     15  C   UNL     1       2.431   3.192   0.893  0.00  0.00    +0.007 C 
ATOM     16  C   UNL     1       2.105   1.949   0.063  0.00  0.00    -0.011 C 
ATOM     17  C   UNL     1       0.728   1.415   0.464  0.00  0.00    +0.004 C 
ATOM     18  C   UNL     1      -0.330   2.490   0.209  0.00  0.00    +0.007 C 
ATOM     19  C   UNL     1      -0.338   2.856  -1.276  0.00  0.00    +0.032 C 
ATOM     20  C   UNL     1       1.039   3.390  -1.677  0.00  0.00    +0.178 C 
ATOM     21  C   UNL     1       2.097   2.315  -1.422  0.00  0.00    +0.048 C 
BRANCH  19  22
ATOM     22  C   UNL     1      -1.396   3.932  -1.531  0.00  0.00    -0.011 C 
ATOM     23  C   UNL     1      -1.533   4.165  -3.037  0.00  0.00    +0.007 C 
ATOM     24  C   UNL     1      -2.739   3.470  -0.962  0.00  0.00    +0.007 C 
ENDBRANCH  19  22
ENDBRANCH  14  20
ENDBRANCH   5  14
ENDBRANCH   1   5
BRANCH   1  25
ATOM     25  C   UNL     1       3.042   4.178  -5.566  0.00  0.00    +0.026 C 
ATOM     26  C   UNL     1       2.558   2.726  -5.548  0.00  0.00    +0.010 C 
BRANCH  25  27
ATOM     27  C   UNL     1       3.270   4.621  -7.012  0.00  0.00    +0.167 C 
BRANCH  27  28
ATOM     28  C   UNL     1       3.643   6.081  -7.037  0.00  0.00    +0.144 C 
ATOM     29  O   UNL     1       4.289   6.555  -6.133  0.00  0.00    -0.297 OA
ATOM     30  C   UNL     1       3.210   6.949  -8.190  0.00  0.00    +0.087 C 
ENDBRANCH  27  28
BRANCH  27  31
ATOM     31  C   UNL     1       4.385   3.807  -7.617  0.00  0.00    +0.318 C 
ATOM     32  O   UNL     1       5.012   3.037  -6.929  0.00  0.00    -0.250 OA
BRANCH  31  33
ATOM     33  O   UNL     1       4.682   3.939  -8.919  0.00  0.00    -0.461 OA
BRANCH  33  34
ATOM     34  C   UNL     1       5.750   3.103  -9.440  0.00  0.00    +0.180 C 
ATOM     35  C   UNL     1       7.074   3.865  -9.368  0.00  0.00    +0.048 C 
ATOM     36  C   UNL     1       6.974   5.143 -10.204  0.00  0.00    -0.011 C 
ATOM     37  C   UNL     1       6.673   4.778 -11.659  0.00  0.00    +0.004 C 
ATOM     38  C   UNL     1       5.348   4.016 -11.730  0.00  0.00    +0.007 C 
ATOM     39  C   UNL     1       5.449   2.739 -10.895  0.00  0.00    +0.032 C 
ATOM     40  C   UNL     1       5.849   6.023  -9.655  0.00  0.00    +0.007 C 
BRANCH  39  41
ATOM     41  C   UNL     1       4.124   1.977 -10.966  0.00  0.00    -0.011 C 
ATOM     42  C   UNL     1       3.823   1.612 -12.421  0.00  0.00    +0.007 C 
ATOM     43  C   UNL     1       4.224   0.699 -10.131  0.00  0.00    +0.007 C 
ENDBRANCH  39  41
ENDBRANCH  33  34
ENDBRANCH  31  33
ENDBRANCH  27  31
ENDBRANCH  25  27
ENDBRANCH   1  25
TORSDOF 13
