REMARK  Name = ZINC00427434
REMARK  4 active torsions:
REMARK  status: ('A' for Active; 'I' for Inactive)
REMARK    1  A    between atoms: C_1  and  C_2
REMARK    2  A    between atoms: C_2  and  C_3
REMARK    3  A    between atoms: C_8  and  N_9
REMARK    4  A    between atoms: C_16  and  C_25
REMARK                            x       y       z     vdW  Elec       q    Type
REMARK                         _______ _______ _______ _____ _____    ______ ____
ROOT
ATOM      1  N   UNL     1      -2.122   0.104  -1.439  0.00  0.00    -0.216 N 
ATOM      2  C   UNL     1      -1.682   1.313  -1.818  0.00  0.00    +0.310 C 
ATOM      3  O   UNL     1      -1.751   1.620  -2.993  0.00  0.00    -0.252 OA
ATOM      4  N   UNL     1      -1.168   2.198  -0.948  0.00  0.00    -0.292 N 
ATOM      5  C   UNL     1      -1.003   1.820   0.466  0.00  0.00    +0.114 C 
ATOM      6  C   UNL     1      -2.203   0.943   0.855  0.00  0.00    +0.096 C 
ATOM      7  C   UNL     1      -2.150  -0.306  -0.038  0.00  0.00    +0.185 C 
ATOM      8  O   UNL     1      -0.986  -1.057   0.296  0.00  0.00    -0.468 OA
ATOM      9  C   UNL     1       0.191  -0.399   0.459  0.00  0.00    +0.128 A 
ATOM     10  C   UNL     1       0.250   0.979   0.564  0.00  0.00    +0.016 A 
ATOM     11  C   UNL     1       1.467   1.610   0.752  0.00  0.00    +0.029 A 
ATOM     12  C   UNL     1       2.630   0.866   0.829  0.00  0.00    +0.042 A 
ATOM     13  C   UNL     1       2.577  -0.512   0.716  0.00  0.00    +0.023 A 
ATOM     14  C   UNL     1       1.364  -1.144   0.532  0.00  0.00    +0.047 A 
ATOM     15 CL   UNL     1       4.156   1.660   1.065  0.00  0.00    -0.084 Cl
ATOM     16  C   UNL     1      -3.395  -1.161   0.210  0.00  0.00    +0.079 C 
ATOM     17  H   UNL     1      -0.906   3.082  -1.249  0.00  0.00    +0.151 HD
ENDROOT
BRANCH   1  23
ATOM     18  C   UNL     1      -3.882  -0.746  -2.858  0.00  0.00    -0.026 A 
ATOM     19  C   UNL     1      -4.316  -1.630  -3.827  0.00  0.00    +0.005 A 
ATOM     20  C   UNL     1      -3.445  -2.568  -4.349  0.00  0.00    +0.000 A 
ATOM     21  C   UNL     1      -2.136  -2.621  -3.908  0.00  0.00    +0.002 A 
ATOM     22  C   UNL     1      -1.694  -1.737  -2.944  0.00  0.00    +0.024 A 
ATOM     23  C   UNL     1      -2.566  -0.793  -2.417  0.00  0.00    +0.045 A 
BRANCH  18  25
ATOM     24  C   UNL     1      -4.778   1.551  -3.124  0.00  0.00    +0.009 C 
ATOM     25  C   UNL     1      -4.833   0.273  -2.285  0.00  0.00    +0.033 C 
ENDBRANCH  18  25
ENDBRANCH   1  23
TORSDOF 2
