REMARK  Name = ZINC39957777
REMARK  8 active torsions:
REMARK  status: ('A' for Active; 'I' for Inactive)
REMARK    1  A    between atoms: C_1  and  C_2
REMARK    2  A    between atoms: C_2  and  C_3
REMARK    3  A    between atoms: C_2  and  N_4
REMARK    4  A    between atoms: C_7  and  C_14
REMARK    5  A    between atoms: C_9  and  C_11
REMARK    6  A    between atoms: N_16  and  C_17
REMARK    7  A    between atoms: C_17  and  C_18
REMARK    8  A    between atoms: C_18  and  C_19
REMARK                            x       y       z     vdW  Elec       q    Type
REMARK                         _______ _______ _______ _____ _____    ______ ____
ROOT
ATOM      1  N   UNL     1      -1.372  -0.511   0.012  0.00  0.00    -0.248 N 
ATOM      2  C   UNL     1      -1.911  -1.319  -0.980  0.00  0.00    +0.141 A 
ATOM      3  C   UNL     1      -3.233  -1.621  -0.666  0.00  0.00    +0.021 A 
ATOM      4  C   UNL     1      -3.984  -2.421  -1.516  0.00  0.00    +0.046 A 
ATOM      5  C   UNL     1      -3.369  -2.903  -2.681  0.00  0.00    +0.037 A 
ATOM      6  C   UNL     1      -2.055  -2.563  -2.928  0.00  0.00    +0.047 A 
ATOM      7  N   UNL     1      -1.375  -1.800  -2.096  0.00  0.00    -0.235 NA
ATOM      8  C   UNL     1      -3.533  -0.933   0.643  0.00  0.00    +0.141 C 
ATOM      9  N   UNL     1      -2.274  -0.252   1.000  0.00  0.00    -0.234 NA
ATOM     10  H   UNL     1      -2.420   0.741   1.105  0.00  0.00    +0.145 HD
ENDROOT
BRANCH   4  11
ATOM     11  C   UNL     1      -5.393  -2.755  -1.203  0.00  0.00    +0.245 C 
ATOM     12  O   UNL     1      -5.908  -2.327  -0.189  0.00  0.00    -0.270 OA
ATOM     13  N   UNL     1      -6.104  -3.534  -2.043  0.00  0.00    -0.311 N 
ATOM     14  H   UNL     1      -5.692  -3.876  -2.852  0.00  0.00    +0.149 HD
BRANCH  13  15
ATOM     15  C   UNL     1      -7.497  -3.865  -1.733  0.00  0.00    +0.109 C 
BRANCH  15  16
ATOM     16  C   UNL     1      -8.068  -4.754  -2.839  0.00  0.00    +0.056 C 
BRANCH  16  17
ATOM     17  C   UNL     1      -9.501  -5.094  -2.520  0.00  0.00    -0.021 A 
ATOM     18  C   UNL     1     -10.680  -4.282  -2.833  0.00  0.00    +0.003 A 
ATOM     19  C   UNL     1     -10.870  -3.051  -3.462  0.00  0.00    +0.010 A 
ATOM     20  C   UNL     1     -12.134  -2.549  -3.603  0.00  0.00    +0.001 A 
ATOM     21  C   UNL     1     -13.229  -3.254  -3.125  0.00  0.00    +0.002 A 
ATOM     22  C   UNL     1     -13.064  -4.471  -2.500  0.00  0.00    +0.026 A 
ATOM     23  C   UNL     1     -11.787  -5.001  -2.346  0.00  0.00    +0.047 A 
ATOM     24  N   UNL     1     -11.303  -6.160  -1.783  0.00  0.00    -0.360 N 
ATOM     25  C   UNL     1      -9.941  -6.201  -1.901  0.00  0.00    +0.087 A 
ATOM     26  H   UNL     1     -11.847  -6.848  -1.368  0.00  0.00    +0.165 HD
ENDBRANCH  16  17
ENDBRANCH  15  16
ENDBRANCH  13  15
ENDBRANCH   4  11
BRANCH   1  28
ATOM     27  C   UNL     1      -0.019   1.526   0.010  0.00  0.00    +0.029 C 
ATOM     28  C   UNL     1       0.002  -0.004   0.002  0.00  0.00    +0.086 C 
ATOM     29  C   UNL     1       0.742  -0.511   1.242  0.00  0.00    +0.029 C 
ENDBRANCH   1  28
BRANCH   6  30
ATOM     30  C   UNL     1      -1.383  -3.075  -4.176  0.00  0.00    +0.038 C 
ATOM     31  C   UNL     1      -2.281  -3.620  -5.289  0.00  0.00    +0.010 C 
ATOM     32  C   UNL     1      -1.578  -2.272  -5.463  0.00  0.00    +0.010 C 
ENDBRANCH   6  30
TORSDOF 6
