REMARK  Name = ZINC17157839
REMARK  5 active torsions:
REMARK  status: ('A' for Active; 'I' for Inactive)
REMARK    1  A    between atoms: C_4  and  S_23
REMARK    2  A    between atoms: C_6  and  C_7
REMARK    3  A    between atoms: N_9  and  N_10
REMARK    4  A    between atoms: C_11  and  C_13
REMARK    5  A    between atoms: S_23  and  N_26
REMARK                            x       y       z     vdW  Elec       q    Type
REMARK                         _______ _______ _______ _____ _____    ______ ____
ROOT
ATOM      1  C   UNL     1      -0.833   5.810   2.563  0.00  0.00    +0.260 C 
ATOM      2  O   UNL     1      -0.468   6.765   1.905  0.00  0.00    -0.269 OA
ATOM      3  N   UNL     1      -0.468   4.564   2.203  0.00  0.00    -0.230 N 
ATOM      4  H   UNL     1      -0.798   3.700   2.799  0.00  0.00    +0.173 HD
ENDROOT
BRANCH   1  10
ATOM      5  C   UNL     1      -2.103   4.922   4.513  0.00  0.00    +0.014 A 
ATOM      6  C   UNL     1      -2.888   5.121   5.630  0.00  0.00    +0.023 A 
ATOM      7  C   UNL     1      -3.261   6.402   5.998  0.00  0.00    +0.067 A 
ATOM      8  C   UNL     1      -2.846   7.492   5.250  0.00  0.00    +0.124 A 
ATOM      9  C   UNL     1      -2.058   7.306   4.134  0.00  0.00    +0.043 A 
ATOM     10  C   UNL     1      -1.678   6.016   3.759  0.00  0.00    +0.040 A 
ATOM     11 CL   UNL     1      -4.253   6.645   7.402  0.00  0.00    -0.082 Cl
BRANCH   8  12
ATOM     12  S   UNL     1      -3.326   9.119   5.726  0.00  0.00    +0.062 S 
ATOM     13  O   UNL     1      -2.779  10.004   4.758  0.00  0.00    -0.153 OA
ATOM     14  O   UNL     1      -4.718   9.066   6.008  0.00  0.00    -0.153 OA
BRANCH  12  15
ATOM     15  N   UNL     1      -2.565   9.455   7.158  0.00  0.00    -0.177 NA
ATOM     16  C   UNL     1      -3.268   9.286   8.437  0.00  0.00    +0.109 C 
ATOM     17  C   UNL     1      -2.420   8.383   9.345  0.00  0.00    +0.017 C 
ATOM     18  C   UNL     1      -1.015   8.975   9.475  0.00  0.00    +0.003 C 
ATOM     19  C   UNL     1      -0.353   9.029   8.096  0.00  0.00    +0.017 C 
ATOM     20  C   UNL     1      -1.176   9.934   7.174  0.00  0.00    +0.109 C 
ENDBRANCH  12  15
ENDBRANCH   8  12
ENDBRANCH   1  10
BRANCH   3  21
ATOM     21  N   UNL     1       0.333   4.369   1.070  0.00  0.00    -0.234 N 
ATOM     22  C   UNL     1       0.698   3.122   0.710  0.00  0.00    +0.235 C 
ATOM     23  O   UNL     1       0.334   2.170   1.367  0.00  0.00    -0.274 OA
ATOM     24  H   UNL     1       0.663   5.232   0.475  0.00  0.00    +0.173 HD
BRANCH  22  25
ATOM     25  C   UNL     1       1.559   2.912  -0.508  0.00  0.00    +0.049 C 
ATOM     26  C   UNL     1       2.888   3.649  -0.327  0.00  0.00    +0.019 C 
ATOM     27  C   UNL     1       3.763   3.435  -1.565  0.00  0.00    -0.009 C 
ATOM     28  C   UNL     1       4.029   1.940  -1.749  0.00  0.00    +0.007 C 
ATOM     29  C   UNL     1       2.701   1.203  -1.930  0.00  0.00    -0.009 C 
ATOM     30  C   UNL     1       1.826   1.417  -0.693  0.00  0.00    +0.019 C 
ATOM     31  C   UNL     1       1.980   1.748  -3.164  0.00  0.00    +0.007 C 
ATOM     32  C   UNL     1       1.713   3.244  -2.980  0.00  0.00    -0.009 C 
ATOM     33  C   UNL     1       3.041   3.980  -2.799  0.00  0.00    +0.007 C 
ATOM     34  C   UNL     1       0.838   3.457  -1.743  0.00  0.00    +0.019 C 
ENDBRANCH  22  25
ENDBRANCH   3  21
TORSDOF 5
