REMARK  Name = ZINC21858743
REMARK  10 active torsions:
REMARK  status: ('A' for Active; 'I' for Inactive)
REMARK    1  A    between atoms: C_1  and  C_2
REMARK    2  A    between atoms: C_7  and  C_8
REMARK    3  A    between atoms: C_8  and  N_9
REMARK    4  A    between atoms: C_22  and  C_23
REMARK    5  A    between atoms: C_22  and  C_24
REMARK    6  A    between atoms: N_26  and  C_27
REMARK    7  A    between atoms: C_27  and  C_28
REMARK    8  A    between atoms: C_28  and  C_29
REMARK    9  A    between atoms: C_29  and  C_30
REMARK   10  A    between atoms: C_29  and  C_31
REMARK                            x       y       z     vdW  Elec       q    Type
REMARK                         _______ _______ _______ _____ _____    ______ ____
ROOT
ATOM      1  N   UNL     1      -3.619   2.263   0.133  0.00  0.00    -0.276 N 
ATOM      2  C   UNL     1      -2.786   1.297   0.587  0.00  0.00    +0.264 C 
ATOM      3  O   UNL     1      -3.207   0.249   1.039  0.00  0.00    -0.268 OA
ATOM      4  C   UNL     1      -1.341   1.583   0.500  0.00  0.00    +0.106 A 
ATOM      5  C   UNL     1      -0.283   0.776   0.695  0.00  0.00    +0.041 A 
ATOM      6  C   UNL     1       0.889   1.552   0.500  0.00  0.00    +0.001 A 
ATOM      7  C   UNL     1       2.256   1.254   0.562  0.00  0.00    +0.010 A 
ATOM      8  C   UNL     1       3.177   2.229   0.314  0.00  0.00    +0.001 A 
ATOM      9  C   UNL     1       2.772   3.520   0.001  0.00  0.00    +0.002 A 
ATOM     10  C   UNL     1       1.435   3.840  -0.063  0.00  0.00    +0.026 A 
ATOM     11  C   UNL     1       0.473   2.864   0.186  0.00  0.00    +0.050 A 
ATOM     12  N   UNL     1      -0.893   2.870   0.203  0.00  0.00    -0.334 N 
ATOM     13  C   UNL     1      -1.827   3.976  -0.029  0.00  0.00    +0.157 C 
ATOM     14  C   UNL     1      -3.128   3.419  -0.607  0.00  0.00    +0.129 C 
ATOM     15  C   UNL     1      -2.888   3.010  -2.062  0.00  0.00    +0.043 C 
ENDROOT
BRANCH  14  16
ATOM     16  C   UNL     1      -4.177   4.500  -0.574  0.00  0.00    +0.238 C 
ATOM     17  O   UNL     1      -4.503   5.061  -1.599  0.00  0.00    -0.273 OA
ATOM     18  N   UNL     1      -4.754   4.845   0.594  0.00  0.00    -0.313 N 
ATOM     19  H   UNL     1      -4.405   4.392   1.534  0.00  0.00    +0.149 HD
BRANCH  18  20
ATOM     20  C   UNL     1      -5.845   5.822   0.613  0.00  0.00    +0.104 C 
BRANCH  20  21
ATOM     21  C   UNL     1      -6.317   6.032   2.053  0.00  0.00    +0.022 C 
BRANCH  21  22
ATOM     22  C   UNL     1      -7.457   7.052   2.072  0.00  0.00    -0.016 C 
ATOM     23  C   UNL     1      -8.013   7.170   3.493  0.00  0.00    +0.007 C 
ATOM     24  C   UNL     1      -6.931   8.414   1.616  0.00  0.00    +0.007 C 
ENDBRANCH  21  22
ENDBRANCH  20  21
ENDBRANCH  18  20
ENDBRANCH  14  16
BRANCH   1  25
ATOM     25  C   UNL     1      -5.056   2.142   0.392  0.00  0.00    +0.144 C 
BRANCH  25  32
ATOM     26  C   UNL     1      -5.116  -0.426  -0.930  0.00  0.00    +0.044 C 
ATOM     27  C   UNL     1      -5.819   0.755  -1.547  0.00  0.00    -0.046 A 
ATOM     28  C   UNL     1      -6.497   0.609  -2.743  0.00  0.00    +0.003 A 
ATOM     29  C   UNL     1      -7.137   1.694  -3.311  0.00  0.00    +0.000 A 
ATOM     30  C   UNL     1      -7.104   2.924  -2.681  0.00  0.00    +0.000 A 
ATOM     31  C   UNL     1      -6.431   3.069  -1.483  0.00  0.00    +0.005 A 
ATOM     32  C   UNL     1      -5.790   1.984  -0.914  0.00  0.00    -0.027 A 
ENDBRANCH  25  32
ENDBRANCH   1  25
TORSDOF 6
