REMARK  Name = ZINC51331449
REMARK  7 active torsions:
REMARK  status: ('A' for Active; 'I' for Inactive)
REMARK    1  A    between atoms: C_1  and  C_2
REMARK    2  A    between atoms: C_6  and  S_8
REMARK    3  A    between atoms: S_8  and  C_9
REMARK    4  A    between atoms: C_9  and  C_11
REMARK    5  A    between atoms: C_9  and  C_17
REMARK    6  A    between atoms: C_17  and  C_19
REMARK    7  A    between atoms: C_17  and  N_20
REMARK                            x       y       z     vdW  Elec       q    Type
REMARK                         _______ _______ _______ _____ _____    ______ ____
ROOT
ATOM      1  C   UNL     1       0.128  -4.651   2.337  0.00  0.00    +0.076 C 
ENDROOT
BRANCH   1   2
ATOM      2  C   UNL     1      -0.134  -5.540   3.525  0.00  0.00    +0.003 A 
ATOM      3  C   UNL     1      -1.139  -6.428   3.721  0.00  0.00    +0.014 A 
ATOM      4  C   UNL     1      -1.181  -7.144   4.904  0.00  0.00    +0.028 A 
ATOM      5  C   UNL     1      -0.214  -6.935   5.832  0.00  0.00    +0.078 A 
ATOM      6  S   UNL     1       0.803  -5.702   5.036  0.00  0.00    -0.081 S 
ATOM      7 CL   UNL     1      -0.014  -7.679   7.388  0.00  0.00    -0.076 Cl
ENDBRANCH   1   2
BRANCH   1   8
ATOM      8  C   UNL     1       1.494  -4.992   1.737  0.00  0.00    -0.060 C 
ATOM      9  C   UNL     1       1.737  -4.127   0.499  0.00  0.00    -0.013 C 
BRANCH   8  10
ATOM     10  N   UNL     1       1.522  -6.410   1.356  0.00  0.00    +0.381 N 
ATOM     11  H   UNL     1       1.361  -6.981   2.173  0.00  0.00    -0.090 HD
ATOM     12  H   UNL     1       0.800  -6.590   0.674  0.00  0.00    -0.090 HD
ATOM     13  H   UNL     1       2.422  -6.635   0.961  0.00  0.00    -0.090 HD
ENDBRANCH   8  10
ENDBRANCH   1   8
BRANCH   1  14
ATOM     14  S   UNL     1       0.116  -2.916   2.865  0.00  0.00    -0.079 S 
BRANCH  14  20
ATOM     15  C   UNL     1      -3.518   0.141   4.773  0.00  0.00    +0.066 C 
ATOM     16  C   UNL     1      -3.149  -1.189   4.169  0.00  0.00    +0.043 A 
ATOM     17  C   UNL     1      -4.119  -2.158   3.960  0.00  0.00    +0.043 A 
ATOM     18  C   UNL     1      -3.738  -3.367   3.401  0.00  0.00    +0.115 A 
ATOM     19  N   UNL     1      -2.468  -3.562   3.086  0.00  0.00    -0.230 NA
ATOM     20  C   UNL     1      -1.565  -2.615   3.300  0.00  0.00    +0.189 A 
ATOM     21  N   UNL     1      -1.898  -1.445   3.827  0.00  0.00    -0.227 NA
ENDBRANCH  14  20
ENDBRANCH   1  14
TORSDOF 5
