REMARK  Name = ZINC21888116
REMARK  7 active torsions:
REMARK  status: ('A' for Active; 'I' for Inactive)
REMARK    1  A    between atoms: C_1  and  C_2
REMARK    2  A    between atoms: C_2  and  C_3
REMARK    3  A    between atoms: C_2  and  N_4
REMARK    4  A    between atoms: N_4  and  C_5
REMARK    5  A    between atoms: N_4  and  C_6
REMARK    6  A    between atoms: N_9  and  S_12
REMARK    7  A    between atoms: S_12  and  C_15
REMARK                            x       y       z     vdW  Elec       q    Type
REMARK                         _______ _______ _______ _____ _____    ______ ____
ROOT
ATOM      1  S   UNL     1      -3.941  -1.030  -0.031  0.00  0.00    +0.061 S 
ATOM      2  O   UNL     1      -4.910  -0.125  -0.541  0.00  0.00    -0.153 OA
ATOM      3  O   UNL     1      -3.696  -2.298  -0.625  0.00  0.00    -0.153 OA
ENDROOT
BRANCH   1   4
ATOM      4  C   UNL     1      -2.403  -0.171  -0.024  0.00  0.00    +0.106 A 
ATOM      5  C   UNL     1      -2.377   1.212   0.018  0.00  0.00    +0.030 A 
ATOM      6  C   UNL     1      -1.169   1.866   0.018  0.00  0.00    +0.025 A 
ATOM      7  C   UNL     1       0.047   1.162  -0.025  0.00  0.00    +0.037 A 
ATOM      8  C   UNL     1       0.015  -0.215  -0.058  0.00  0.00    -0.024 A 
ATOM      9  C   UNL     1      -1.218  -0.869  -0.061  0.00  0.00    +0.034 A 
ATOM     10  C   UNL     1       1.214  -1.105  -0.088  0.00  0.00    +0.037 C 
ATOM     11  C   UNL     1       2.396  -0.631   0.699  0.00  0.00    +0.014 C 
ATOM     12  C   UNL     1       3.177   0.463   0.013  0.00  0.00    +0.096 C 
ATOM     13  C   UNL     1       2.458   1.764   0.048  0.00  0.00    +0.217 C 
ATOM     14  O   UNL     1       3.144   2.757   0.167  0.00  0.00    -0.275 OA
ATOM     15  N   UNL     1       1.172   1.954  -0.037  0.00  0.00    -0.285 N 
ATOM     16  H   UNL     1       1.076   3.045  -0.139  0.00  0.00    +0.155 HD
ENDBRANCH   1   4
BRANCH   1  20
ATOM     17  C   UNL     1      -5.889  -2.264   3.723  0.00  0.00    -0.066 C 
ATOM     18  C   UNL     1      -6.364  -1.064   2.900  0.00  0.00    +0.002 C 
ATOM     19  C   UNL     1      -5.149  -0.346   2.304  0.00  0.00    +0.108 C 
ATOM     20  N   UNL     1      -4.348  -1.319   1.548  0.00  0.00    -0.177 NA
ATOM     21  C   UNL     1      -3.921  -2.555   2.218  0.00  0.00    +0.108 C 
ATOM     22  C   UNL     1      -5.145  -3.245   2.816  0.00  0.00    +0.002 C 
BRANCH  17  23
ATOM     23  N   UNL     1      -7.050  -2.935   4.323  0.00  0.00    +0.381 N 
ATOM     24  C   UNL     1      -8.012  -3.346   3.291  0.00  0.00    -0.095 C 
ATOM     25  H   UNL     1      -6.691  -3.842   4.831  0.00  0.00    -0.081 HD
BRANCH  23  27
ATOM     26  C   UNL     1      -8.821  -2.853   6.013  0.00  0.00    -0.014 C 
ATOM     27  C   UNL     1      -7.692  -2.079   5.329  0.00  0.00    -0.075 C 
ATOM     28  C   UNL     1      -6.657  -1.657   6.374  0.00  0.00    -0.014 C 
ENDBRANCH  23  27
ENDBRANCH  17  23
ENDBRANCH   1  20
TORSDOF 4
