REMARK  Name = ZINC08772244
REMARK  9 active torsions:
REMARK  status: ('A' for Active; 'I' for Inactive)
REMARK    1  A    between atoms: C_1  and  C_2
REMARK    2  A    between atoms: C_2  and  C_3
REMARK    3  A    between atoms: C_3  and  C_32
REMARK    4  A    between atoms: N_6  and  N_10
REMARK    5  A    between atoms: C_11  and  C_13
REMARK    6  A    between atoms: C_13  and  S_14
REMARK    7  A    between atoms: S_14  and  C_15
REMARK    8  A    between atoms: C_18  and  C_25
REMARK    9  A    between atoms: N_19  and  C_20
REMARK                            x       y       z     vdW  Elec       q    Type
REMARK                         _______ _______ _______ _____ _____    ______ ____
ROOT
ATOM      1  S   UNL     1      -6.401   4.269  -0.195  0.00  0.00    -0.077 S 
ENDROOT
BRANCH   1   2
ATOM      2  C   UNL     1      -4.648   4.363  -0.041  0.00  0.00    +0.193 A 
ATOM      3  N   UNL     1      -3.935   5.459   0.096  0.00  0.00    -0.122 NA
ATOM      4  N   UNL     1      -2.687   5.165   0.184  0.00  0.00    -0.128 NA
ATOM      5  C   UNL     1      -2.526   3.865   0.102  0.00  0.00    +0.167 A 
ATOM      6  N   UNL     1      -3.777   3.311  -0.042  0.00  0.00    -0.299 N 
BRANCH   5   7
ATOM      7  C   UNL     1      -1.243   3.133   0.159  0.00  0.00    +0.038 A 
ATOM      8  C   UNL     1      -0.954   2.150  -0.789  0.00  0.00    +0.013 A 
ATOM      9  C   UNL     1       0.243   1.467  -0.727  0.00  0.00    +0.001 A 
ATOM     10  C   UNL     1       1.162   1.762   0.265  0.00  0.00    +0.001 A 
ATOM     11  C   UNL     1       0.885   2.739   1.204  0.00  0.00    +0.021 A 
ATOM     12  C   UNL     1      -0.312   3.427   1.157  0.00  0.00    +0.052 A 
ATOM     13 CL   UNL     1      -0.657   4.653   2.336  0.00  0.00    -0.083 Cl
ENDBRANCH   5   7
BRANCH   6  14
ATOM     14  C   UNL     1      -4.107   1.889  -0.170  0.00  0.00    +0.091 C 
ATOM     15  C   UNL     1      -4.826   1.632  -1.510  0.00  0.00    +0.025 C 
ATOM     16  C   UNL     1      -5.886   0.554  -1.171  0.00  0.00    +0.002 C 
ATOM     17  C   UNL     1      -6.366   0.978   0.239  0.00  0.00    +0.002 C 
ATOM     18  C   UNL     1      -5.085   1.473   0.942  0.00  0.00    +0.025 C 
ENDBRANCH   6  14
ENDBRANCH   1   2
BRANCH   1  19
ATOM     19  C   UNL     1      -6.819   6.028  -0.106  0.00  0.00    +0.174 C 
BRANCH  19  21
ATOM     20  N   UNL     1      -8.857   7.428  -0.179  0.00  0.00    -0.223 N 
ATOM     21  C   UNL     1      -8.312   6.196  -0.220  0.00  0.00    +0.240 C 
ATOM     22  O   UNL     1      -9.024   5.223  -0.347  0.00  0.00    -0.273 OA
ATOM     23  H   UNL     1      -8.287   8.207  -0.076  0.00  0.00    +0.174 HD
BRANCH  20  27
ATOM     24  C   UNL     1     -12.351   8.035  -1.045  0.00  0.00    +0.111 C 
ATOM     25  C   UNL     1     -10.875   8.035  -1.387  0.00  0.00    +0.263 C 
ATOM     26  O   UNL     1     -10.366   8.369  -2.436  0.00  0.00    -0.271 OA
ATOM     27  N   UNL     1     -10.245   7.584  -0.284  0.00  0.00    -0.137 N 
ATOM     28  C   UNL     1     -11.109   7.310   0.700  0.00  0.00    +0.326 C 
ATOM     29  O   UNL     1     -10.778   6.894   1.793  0.00  0.00    -0.251 OA
ATOM     30  N   UNL     1     -12.385   7.546   0.344  0.00  0.00    -0.284 N 
ATOM     31  C   UNL     1     -13.122   7.089  -1.968  0.00  0.00    +0.041 C 
ATOM     32  H   UNL     1     -13.173   7.419   0.895  0.00  0.00    +0.151 HD
BRANCH  24  34
ATOM     33  C   UNL     1     -14.342   9.465  -0.559  0.00  0.00    +0.006 C 
ATOM     34  C   UNL     1     -12.922   9.452  -1.130  0.00  0.00    +0.032 C 
ENDBRANCH  24  34
ENDBRANCH  20  27
ENDBRANCH  19  21
ENDBRANCH   1  19
TORSDOF 7
