REMARK  Name = ZINC09127012
REMARK  7 active torsions:
REMARK  status: ('A' for Active; 'I' for Inactive)
REMARK    1  A    between atoms: C_4  and  C_7
REMARK    2  A    between atoms: C_10  and  S_19
REMARK    3  A    between atoms: N_11  and  C_12
REMARK    4  A    between atoms: S_19  and  C_20
REMARK    5  A    between atoms: C_20  and  C_21
REMARK    6  A    between atoms: N_31  and  C_32
REMARK    7  A    between atoms: C_32  and  C_33
REMARK                            x       y       z     vdW  Elec       q    Type
REMARK                         _______ _______ _______ _____ _____    ______ ____
ROOT
ATOM      1  S   UNL     1      -3.165   0.294   3.893  0.00  0.00    -0.078 S 
ENDROOT
BRANCH   1   5
ATOM      2  C   UNL     1      -1.573   1.662   7.192  0.00  0.00    +0.169 A 
ATOM      3  N   UNL     1      -0.883   2.277   6.260  0.00  0.00    -0.128 NA
ATOM      4  N   UNL     1      -1.300   1.923   5.097  0.00  0.00    -0.122 NA
ATOM      5  C   UNL     1      -2.282   1.057   5.213  0.00  0.00    +0.197 A 
ATOM      6  N   UNL     1      -2.496   0.864   6.551  0.00  0.00    -0.270 N 
BRANCH   6   7
ATOM      7  C   UNL     1      -3.452   0.027   7.144  0.00  0.00    +0.051 A 
ATOM      8  C   UNL     1      -4.475   0.573   7.907  0.00  0.00    +0.029 A 
ATOM      9  C   UNL     1      -5.419  -0.252   8.488  0.00  0.00    +0.040 A 
ATOM     10  C   UNL     1      -5.338  -1.624   8.318  0.00  0.00    +0.124 A 
ATOM     11  C   UNL     1      -4.316  -2.170   7.561  0.00  0.00    +0.040 A 
ATOM     12  C   UNL     1      -3.373  -1.348   6.975  0.00  0.00    +0.029 A 
ATOM     13  F   UNL     1      -6.259  -2.430   8.890  0.00  0.00    -0.205 F 
ENDBRANCH   6   7
BRANCH   2  17
ATOM     14  C   UNL     1      -1.071   2.067  11.390  0.00  0.00    +0.000 A 
ATOM     15  C   UNL     1      -0.498   2.991  10.535  0.00  0.00    +0.001 A 
ATOM     16  C   UNL     1      -0.657   2.865   9.171  0.00  0.00    +0.011 A 
ATOM     17  C   UNL     1      -1.398   1.802   8.653  0.00  0.00    +0.020 A 
ATOM     18  C   UNL     1      -1.979   0.876   9.521  0.00  0.00    +0.011 A 
ATOM     19  C   UNL     1      -1.807   1.010  10.883  0.00  0.00    +0.001 A 
ENDBRANCH   2  17
ENDBRANCH   1   5
BRANCH   1  20
ATOM     20  C   UNL     1      -2.324   1.046   2.477  0.00  0.00    +0.151 C 
BRANCH  20  21
ATOM     21  C   UNL     1      -2.930   0.527   1.199  0.00  0.00    +0.124 A 
ATOM     22  N   UNL     1      -3.903  -0.329   1.282  0.00  0.00    -0.233 NA
ATOM     23  C   UNL     1      -4.497  -0.840   0.175  0.00  0.00    +0.078 A 
ATOM     24  C   UNL     1      -5.544  -1.760   0.263  0.00  0.00    +0.028 A 
ATOM     25  C   UNL     1      -6.118  -2.252  -0.887  0.00  0.00    +0.002 A 
ATOM     26  C   UNL     1      -5.669  -1.846  -2.137  0.00  0.00    +0.001 A 
ATOM     27  C   UNL     1      -4.638  -0.939  -2.250  0.00  0.00    +0.015 A 
ATOM     28  C   UNL     1      -4.043  -0.429  -1.098  0.00  0.00    +0.065 A 
ATOM     29  C   UNL     1      -2.943   0.545  -1.157  0.00  0.00    +0.262 A 
ATOM     30  O   UNL     1      -2.508   0.945  -2.221  0.00  0.00    -0.267 OA
ATOM     31  N   UNL     1      -2.430   0.977   0.019  0.00  0.00    -0.287 N 
BRANCH  31  32
ATOM     32  C   UNL     1      -1.330   1.944   0.019  0.00  0.00    +0.222 C 
BRANCH  32  33
ATOM     33  C   UNL     1      -0.014   1.209   0.009  0.00  0.00    +0.230 C 
ATOM     34  O   UNL     1       0.002  -0.004   0.002  0.00  0.00    -0.274 OA
ATOM     35  N   UNL     1       1.143   1.898   0.001  0.00  0.00    -0.328 N 
ATOM     36  H   UNL     1       1.990   1.425  -0.009  0.00  0.00    +0.145 HD
ATOM     37  H   UNL     1       1.130   2.868   0.007  0.00  0.00    +0.145 HD
ENDBRANCH  32  33
ENDBRANCH  31  32
ENDBRANCH  20  21
ENDBRANCH   1  20
TORSDOF 7
