REMARK  Name = ZINC13629872
REMARK  11 active torsions:
REMARK  status: ('A' for Active; 'I' for Inactive)
REMARK    1  A    between atoms: C_1  and  C_2
REMARK    2  A    between atoms: C_2  and  C_3
REMARK    3  A    between atoms: C_2  and  C_4
REMARK    4  A    between atoms: C_4  and  C_5
REMARK    5  A    between atoms: C_5  and  O_6
REMARK    6  A    between atoms: O_6  and  C_7
REMARK    7  A    between atoms: C_10  and  C_14
REMARK    8  A    between atoms: N_16  and  N_17
REMARK    9  A    between atoms: C_18  and  C_20
REMARK   10  A    between atoms: N_25  and  C_27
REMARK   11  A    between atoms: C_27  and  C_28
REMARK                            x       y       z     vdW  Elec       q    Type
REMARK                         _______ _______ _______ _____ _____    ______ ____
ROOT
ATOM      1  C   UNL     1       0.061  -4.251  -0.020  0.00  0.00    +0.260 C 
ATOM      2  O   UNL     1       1.122  -4.844  -0.034  0.00  0.00    -0.269 OA
ATOM      3  N   UNL     1      -1.097  -4.941  -0.013  0.00  0.00    -0.230 N 
ATOM      4  H   UNL     1      -1.944  -4.468  -0.002  0.00  0.00    +0.173 HD
ENDROOT
BRANCH   1   8
ATOM      5  C   UNL     1       0.002  -0.004   0.002  0.00  0.00    +0.134 A 
ATOM      6  C   UNL     1       1.216  -0.681  -0.013  0.00  0.00    +0.047 A 
ATOM      7  C   UNL     1       1.239  -2.058  -0.021  0.00  0.00    +0.017 A 
ATOM      8  C   UNL     1       0.040  -2.775  -0.013  0.00  0.00    +0.039 A 
ATOM      9  C   UNL     1      -1.179  -2.092   0.003  0.00  0.00    +0.032 A 
ATOM     10  C   UNL     1      -1.194  -0.714   0.015  0.00  0.00    +0.060 A 
ATOM     11 BR   UNL     1      -2.842   0.213   0.043  0.00  0.00    -0.046 Br
BRANCH   5  12
ATOM     12  O   UNL     1      -0.016   1.353   0.009  0.00  0.00    -0.491 OA
BRANCH  12  13
ATOM     13  C   UNL     1       1.248   2.019   0.001  0.00  0.00    +0.229 C 
BRANCH  13  14
ATOM     14  C   UNL     1       1.027   3.533   0.011  0.00  0.00    +0.044 C 
BRANCH  14  16
ATOM     15  C   UNL     1       2.161   5.756  -0.113  0.00  0.00    +0.007 C 
ATOM     16  C   UNL     1       2.381   4.246   0.002  0.00  0.00    -0.014 C 
ATOM     17  C   UNL     1       3.128   3.937   1.301  0.00  0.00    +0.007 C 
ENDBRANCH  14  16
ENDBRANCH  13  14
ENDBRANCH  12  13
ENDBRANCH   5  12
ENDBRANCH   1   8
BRANCH   3  18
ATOM     18  N   UNL     1      -1.077  -6.342  -0.020  0.00  0.00    -0.234 N 
ATOM     19  C   UNL     1      -2.235  -7.032  -0.012  0.00  0.00    +0.234 C 
ATOM     20  O   UNL     1      -3.293  -6.441   0.001  0.00  0.00    -0.274 OA
ATOM     21  H   UNL     1      -0.231  -6.815  -0.030  0.00  0.00    +0.173 HD
BRANCH  19  22
ATOM     22  C   UNL     1      -2.214  -8.539  -0.020  0.00  0.00    +0.102 C 
ATOM     23  C   UNL     1      -1.528  -9.076  -1.298  0.00  0.00    +0.110 C 
ATOM     24  C   UNL     1      -2.326 -10.311  -1.655  0.00  0.00    +0.217 C 
ATOM     25  O   UNL     1      -1.958 -11.178  -2.419  0.00  0.00    -0.276 OA
ATOM     26  N   UNL     1      -3.501 -10.307  -1.003  0.00  0.00    -0.293 N 
ATOM     27  C   UNL     1      -3.641  -9.111  -0.164  0.00  0.00    +0.121 C 
BRANCH  26  28
ATOM     28  C   UNL     1      -4.512 -11.362  -1.114  0.00  0.00    +0.182 C 
BRANCH  28  29
ATOM     29  C   UNL     1      -4.256 -12.415  -0.066  0.00  0.00    +0.122 A 
ATOM     30  C   UNL     1      -4.760 -12.421   1.181  0.00  0.00    +0.046 A 
ATOM     31  C   UNL     1      -4.268 -13.585   1.815  0.00  0.00    +0.041 A 
ATOM     32  C   UNL     1      -3.487 -14.216   0.920  0.00  0.00    +0.195 A 
ATOM     33  O   UNL     1      -3.483 -13.503  -0.217  0.00  0.00    -0.466 OA
ENDBRANCH  28  29
ENDBRANCH  26  28
ENDBRANCH  19  22
ENDBRANCH   3  18
TORSDOF 9
