REMARK  Name = ZINC24779695
REMARK  9 active torsions:
REMARK  status: ('A' for Active; 'I' for Inactive)
REMARK    1  A    between atoms: C_1  and  C_2
REMARK    2  A    between atoms: C_3  and  C_14
REMARK    3  A    between atoms: C_4  and  C_13
REMARK    4  A    between atoms: N_5  and  C_7
REMARK    5  A    between atoms: N_21  and  C_22
REMARK    6  A    between atoms: C_22  and  C_23
REMARK    7  A    between atoms: N_25  and  C_26
REMARK    8  A    between atoms: N_25  and  C_33
REMARK    9  A    between atoms: C_26  and  C_27
REMARK                            x       y       z     vdW  Elec       q    Type
REMARK                         _______ _______ _______ _____ _____    ______ ____
ROOT
ATOM      1  C   UNL     1      -2.349   8.070  -0.689  0.00  0.00    +0.054 C 
ATOM      2  C   UNL     1      -2.623   9.509  -0.353  0.00  0.00    +0.204 C 
ATOM      3  O   UNL     1      -2.964  10.258  -1.244  0.00  0.00    -0.277 OA
ATOM      4  N   UNL     1      -2.507   9.997   0.886  0.00  0.00    -0.318 N 
ATOM      5  C   UNL     1      -2.070   9.188   2.020  0.00  0.00    +0.085 C 
ATOM      6  C   UNL     1      -2.215   7.701   1.690  0.00  0.00    -0.058 C 
ATOM      7  N   UNL     1      -1.576   7.441   0.390  0.00  0.00    +0.397 N 
ATOM      8  H   UNL     1      -2.758  11.058   1.031  0.00  0.00    +0.149 HD
ATOM      9  H   UNL     1      -0.569   7.883   0.399  0.00  0.00    -0.079 HD
ENDROOT
BRANCH   1  12
ATOM     10  C   UNL     1       0.733   8.722  -1.031  0.00  0.00    +0.068 C 
ATOM     11  C   UNL     1      -0.205   8.284  -2.126  0.00  0.00    +0.063 A 
ATOM     12  C   UNL     1      -1.566   7.997  -1.974  0.00  0.00    -0.009 A 
ATOM     13  C   UNL     1      -2.053   7.636  -3.184  0.00  0.00    +0.044 A 
ATOM     14  N   UNL     1      -1.036   7.700  -4.073  0.00  0.00    -0.237 N 
ATOM     15  N   UNL     1       0.114   8.107  -3.383  0.00  0.00    -0.171 NA
ATOM     16  C   UNL     1      -3.474   7.236  -3.487  0.00  0.00    +0.066 C 
BRANCH  14  17
ATOM     17  C   UNL     1      -1.116   7.407  -5.442  0.00  0.00    +0.066 A 
ATOM     18  C   UNL     1      -0.080   6.730  -6.070  0.00  0.00    +0.028 A 
ATOM     19  C   UNL     1      -0.165   6.438  -7.417  0.00  0.00    +0.002 A 
ATOM     20  C   UNL     1      -1.275   6.829  -8.143  0.00  0.00    +0.000 A 
ATOM     21  C   UNL     1      -2.306   7.509  -7.521  0.00  0.00    +0.002 A 
ATOM     22  C   UNL     1      -2.230   7.799  -6.173  0.00  0.00    +0.028 A 
ENDBRANCH  14  17
ENDBRANCH   1  12
BRANCH   7  23
ATOM     23  C   UNL     1      -1.424   5.999   0.157  0.00  0.00    +0.021 C 
BRANCH  23  24
ATOM     24  C   UNL     1      -2.785   5.352   0.106  0.00  0.00    +0.204 C 
ATOM     25  O   UNL     1      -3.774   5.999   0.375  0.00  0.00    -0.277 OA
ATOM     26  N   UNL     1      -2.902   4.055  -0.240  0.00  0.00    -0.269 N 
BRANCH  26  27
ATOM     27  C   UNL     1      -1.755   3.282  -0.454  0.00  0.00    +0.037 A 
ATOM     28  C   UNL     1      -0.912   2.979   0.608  0.00  0.00    +0.023 A 
ATOM     29  C   UNL     1       0.222   2.220   0.393  0.00  0.00    +0.002 A 
ATOM     30  C   UNL     1       0.512   1.753  -0.876  0.00  0.00    +0.000 A 
ATOM     31  C   UNL     1      -0.328   2.048  -1.934  0.00  0.00    +0.002 A 
ATOM     32  C   UNL     1      -1.460   2.811  -1.726  0.00  0.00    +0.023 A 
ENDBRANCH  26  27
BRANCH  26  33
ATOM     33  C   UNL     1      -4.229   3.454  -0.393  0.00  0.00    +0.148 C 
BRANCH  33  34
ATOM     34  C   UNL     1      -4.676   2.881   0.928  0.00  0.00    -0.030 A 
ATOM     35  C   UNL     1      -4.379   1.570   1.248  0.00  0.00    +0.005 A 
ATOM     36  C   UNL     1      -4.785   1.046   2.462  0.00  0.00    +0.000 A 
ATOM     37  C   UNL     1      -5.496   1.831   3.350  0.00  0.00    +0.000 A 
ATOM     38  C   UNL     1      -5.798   3.141   3.027  0.00  0.00    +0.000 A 
ATOM     39  C   UNL     1      -5.387   3.666   1.816  0.00  0.00    +0.005 A 
ENDBRANCH  33  34
ENDBRANCH  26  33
ENDBRANCH  23  24
ENDBRANCH   7  23
TORSDOF 7
