REMARK  Name = ZINC39686270
REMARK  10 active torsions:
REMARK  status: ('A' for Active; 'I' for Inactive)
REMARK    1  A    between atoms: C_1  and  C_2
REMARK    2  A    between atoms: C_2  and  C_3
REMARK    3  A    between atoms: C_3  and  C_5
REMARK    4  A    between atoms: C_3  and  C_11
REMARK    5  A    between atoms: C_15  and  C_24
REMARK    6  A    between atoms: N_26  and  C_27
REMARK    7  A    between atoms: C_33  and  C_35
REMARK    8  A    between atoms: C_35  and  C_36
REMARK    9  A    between atoms: C_36  and  C_37
REMARK   10  A    between atoms: C_36  and  C_38
REMARK                            x       y       z     vdW  Elec       q    Type
REMARK                         _______ _______ _______ _____ _____    ______ ____
ROOT
ATOM      1  C   UNL     1       0.818  -1.741   1.014  0.00  0.00    +0.223 C 
ATOM      2  O   UNL     1       0.269  -2.350   1.908  0.00  0.00    -0.275 OA
ATOM      3  N   UNL     1       1.486  -2.410   0.054  0.00  0.00    -0.300 N 
ATOM      4  C   UNL     1       2.217  -1.846  -1.105  0.00  0.00    +0.121 C 
ATOM      5  C   UNL     1       3.483  -2.723  -1.232  0.00  0.00    +0.100 C 
ATOM      6  C   UNL     1       3.106  -4.055  -0.561  0.00  0.00    -0.004 C 
ATOM      7  C   UNL     1       1.659  -3.876  -0.079  0.00  0.00    +0.115 C 
ATOM      8  C   UNL     1       3.191  -5.197  -1.569  0.00  0.00    -0.010 C 
ATOM      9  C   UNL     1       2.869  -6.518  -0.865  0.00  0.00    -0.082 C 
ATOM     10  N   UNL     1       3.820  -6.735   0.232  0.00  0.00    +0.379 N 
ATOM     11  C   UNL     1       3.667  -5.682   1.243  0.00  0.00    -0.082 C 
ATOM     12  C   UNL     1       4.023  -4.325   0.628  0.00  0.00    -0.010 C 
ATOM     13  H   UNL     1       3.643  -7.634   0.655  0.00  0.00    -0.086 HD
ATOM     14  H   UNL     1       4.761  -6.716  -0.132  0.00  0.00    -0.086 HD
ENDROOT
BRANCH   5  15
ATOM     15  C   UNL     1       4.641  -2.080  -0.513  0.00  0.00    +0.218 C 
ATOM     16  O   UNL     1       4.441  -1.382   0.458  0.00  0.00    -0.275 OA
ATOM     17  N   UNL     1       5.900  -2.282  -0.950  0.00  0.00    -0.312 N 
ATOM     18  H   UNL     1       6.061  -2.840  -1.727  0.00  0.00    +0.149 HD
BRANCH  17  19
ATOM     19  C   UNL     1       7.027  -1.657  -0.252  0.00  0.00    +0.076 C 
ATOM     20  C   UNL     1       7.226  -0.234  -0.778  0.00  0.00    +0.041 C 
ATOM     21  C   UNL     1       8.382   0.428  -0.021  0.00  0.00    +0.109 C 
ATOM     22  N   UNL     1       9.571  -0.428  -0.131  0.00  0.00    -0.301 N 
ATOM     23  C   UNL     1       9.464  -1.839   0.264  0.00  0.00    +0.109 C 
ATOM     24  C   UNL     1       8.296  -2.476  -0.496  0.00  0.00    +0.041 C 
ATOM     25  C   UNL     1      10.738   0.071  -0.584  0.00  0.00    +0.216 C 
ATOM     26  O   UNL     1      10.813   1.238  -0.907  0.00  0.00    -0.276 OA
BRANCH  25  27
ATOM     27  C   UNL     1      11.948  -0.820  -0.691  0.00  0.00    +0.099 C 
BRANCH  27  28
ATOM     28  C   UNL     1      13.131  -0.011  -1.228  0.00  0.00    -0.008 C 
ATOM     29  C   UNL     1      13.512   1.070  -0.216  0.00  0.00    +0.008 C 
ATOM     30  C   UNL     1      14.324  -0.942  -1.454  0.00  0.00    +0.008 C 
ENDBRANCH  27  28
ENDBRANCH  25  27
ENDBRANCH  17  19
ENDBRANCH   5  15
BRANCH   1  31
ATOM     31  C   UNL     1       0.753  -0.235   0.978  0.00  0.00    +0.105 C 
BRANCH  31  32
ATOM     32  C   UNL     1      -0.046   0.261   2.155  0.00  0.00    -0.036 A 
ATOM     33  C   UNL     1      -1.362  -0.131   2.312  0.00  0.00    +0.004 A 
ATOM     34  C   UNL     1      -2.095   0.325   3.392  0.00  0.00    +0.000 A 
ATOM     35  C   UNL     1      -1.512   1.173   4.315  0.00  0.00    +0.000 A 
ATOM     36  C   UNL     1      -0.195   1.564   4.158  0.00  0.00    +0.000 A 
ATOM     37  C   UNL     1       0.539   1.105   3.081  0.00  0.00    +0.004 A 
ENDBRANCH  31  32
BRANCH  31  39
ATOM     38  C   UNL     1       0.127   1.741  -0.416  0.00  0.00    +0.005 C 
ATOM     39  C   UNL     1       0.081   0.215  -0.321  0.00  0.00    +0.014 C 
ENDBRANCH  31  39
ENDBRANCH   1  31
TORSDOF 7
