REMARK  Name = ZINC16042598
REMARK  7 active torsions:
REMARK  status: ('A' for Active; 'I' for Inactive)
REMARK    1  A    between atoms: C_4  and  C_7
REMARK    2  A    between atoms: C_7  and  C_8
REMARK    3  A    between atoms: C_8  and  C_9
REMARK    4  A    between atoms: N_28  and  C_31
REMARK    5  A    between atoms: C_31  and  C_32
REMARK    6  A    between atoms: C_32  and  C_34
REMARK    7  A    between atoms: C_32  and  O_40
REMARK                            x       y       z     vdW  Elec       q    Type
REMARK                         _______ _______ _______ _____ _____    ______ ____
ROOT
ATOM      1  C   UNL     1      -2.023   3.371   0.034  0.00  0.00    +0.124 C 
ATOM      2  C   UNL     1      -1.618   2.589   1.263  0.00  0.00    +0.041 A 
ATOM      3  C   UNL     1      -0.724   1.575   1.244  0.00  0.00    -0.015 A 
ATOM      4  C   UNL     1      -0.605   1.084   2.602  0.00  0.00    +0.003 A 
ATOM      5  C   UNL     1       0.157   0.062   3.177  0.00  0.00    +0.010 A 
ATOM      6  C   UNL     1       0.017  -0.131   4.529  0.00  0.00    +0.001 A 
ATOM      7  C   UNL     1      -0.836   0.644   5.298  0.00  0.00    +0.002 A 
ATOM      8  C   UNL     1      -1.601   1.662   4.755  0.00  0.00    +0.026 A 
ATOM      9  C   UNL     1      -1.479   1.881   3.385  0.00  0.00    +0.047 A 
ATOM     10  N   UNL     1      -2.077   2.780   2.540  0.00  0.00    -0.356 N 
ATOM     11  H   UNL     1      -2.724   3.452   2.806  0.00  0.00    +0.166 HD
ATOM     12  C   UNL     1      -0.013   1.086   0.008  0.00  0.00    +0.069 C 
ATOM     13  C   UNL     1      -0.761   1.597  -1.231  0.00  0.00    +0.167 C 
ATOM     14  N   UNL     1      -1.082   3.012  -1.048  0.00  0.00    -0.280 N 
ATOM     15  C   UNL     1      -0.572   3.981  -1.812  0.00  0.00    +0.234 C 
ATOM     16  O   UNL     1      -0.851   5.127  -1.531  0.00  0.00    -0.274 OA
ATOM     17  C   UNL     1       0.317   3.748  -2.989  0.00  0.00    +0.203 C 
ATOM     18  N   UNL     1       0.547   2.333  -3.229  0.00  0.00    -0.288 N 
ATOM     19  C   UNL     1       0.070   1.363  -2.452  0.00  0.00    +0.237 C 
ATOM     20  O   UNL     1       0.325   0.216  -2.753  0.00  0.00    -0.274 OA
ENDROOT
BRANCH   1  21
ATOM     21  C   UNL     1      -3.450   2.998  -0.373  0.00  0.00    +0.033 C 
BRANCH  21  22
ATOM     22  C   UNL     1      -3.877   3.848  -1.571  0.00  0.00    +0.037 C 
BRANCH  22  26
ATOM     23  C   UNL     1      -7.861   2.809  -2.708  0.00  0.00    +0.000 A 
ATOM     24  C   UNL     1      -7.646   3.811  -1.780  0.00  0.00    +0.000 A 
ATOM     25  C   UNL     1      -6.356   4.147  -1.412  0.00  0.00    +0.003 A 
ATOM     26  C   UNL     1      -5.282   3.481  -1.972  0.00  0.00    -0.047 A 
ATOM     27  C   UNL     1      -5.497   2.483  -2.904  0.00  0.00    +0.003 A 
ATOM     28  C   UNL     1      -6.787   2.143  -3.268  0.00  0.00    +0.000 A 
ENDBRANCH  22  26
ENDBRANCH  21  22
ENDBRANCH   1  21
BRANCH  18  29
ATOM     29  C   UNL     1       1.351   1.952  -4.393  0.00  0.00    +0.144 C 
BRANCH  29  30
ATOM     30  C   UNL     1       0.436   1.762  -5.604  0.00  0.00    +0.162 C 
BRANCH  30  31
ATOM     31  C   UNL     1       1.264   1.369  -6.802  0.00  0.00    -0.018 A 
ATOM     32  C   UNL     1       1.599   0.044  -7.006  0.00  0.00    +0.006 A 
ATOM     33  C   UNL     1       2.354  -0.316  -8.107  0.00  0.00    +0.000 A 
ATOM     34  C   UNL     1       2.781   0.651  -8.998  0.00  0.00    +0.000 A 
ATOM     35  C   UNL     1       2.451   1.977  -8.790  0.00  0.00    +0.000 A 
ATOM     36  C   UNL     1       1.692   2.336  -7.692  0.00  0.00    +0.006 A 
ENDBRANCH  30  31
BRANCH  30  37
ATOM     37  O   UNL     1      -0.515   0.733  -5.326  0.00  0.00    -0.386 OA
ATOM     38  H   UNL     1      -0.119  -0.127  -5.129  0.00  0.00    +0.210 HD
ENDBRANCH  30  37
ENDBRANCH  29  30
ENDBRANCH  18  29
TORSDOF 7
