REMARK  Name = ZINC39666446
REMARK  7 active torsions:
REMARK  status: ('A' for Active; 'I' for Inactive)
REMARK    1  A    between atoms: C_1  and  C_2
REMARK    2  A    between atoms: C_2  and  C_4
REMARK    3  A    between atoms: C_2  and  O_27
REMARK    4  A    between atoms: C_4  and  N_5
REMARK    5  A    between atoms: C_6  and  C_8
REMARK    6  A    between atoms: C_19  and  C_21
REMARK    7  A    between atoms: O_27  and  C_28
REMARK                            x       y       z     vdW  Elec       q    Type
REMARK                         _______ _______ _______ _____ _____    ______ ____
ROOT
ATOM      1  C   UNL     1       1.384  -2.164  -4.023  0.00  0.00    +0.100 C 
ATOM      2  C   UNL     1       2.275  -2.865  -2.974  0.00  0.00    +0.121 C 
ATOM      3  N   UNL     1       3.100  -3.814  -3.758  0.00  0.00    -0.296 N 
ATOM      4  C   UNL     1       3.439  -3.072  -4.996  0.00  0.00    +0.115 C 
ATOM      5  C   UNL     1       2.151  -2.301  -5.348  0.00  0.00    -0.004 C 
ATOM      6  C   UNL     1       2.498  -0.923  -5.904  0.00  0.00    -0.010 C 
ATOM      7  C   UNL     1       3.209  -1.084  -7.250  0.00  0.00    -0.082 C 
ATOM      8  N   UNL     1       2.335  -1.804  -8.184  0.00  0.00    +0.379 N 
ATOM      9  C   UNL     1       2.083  -3.162  -7.687  0.00  0.00    -0.082 C 
ATOM     10  C   UNL     1       1.324  -3.089  -6.359  0.00  0.00    -0.010 C 
ATOM     11  C   UNL     1       3.461  -5.068  -3.421  0.00  0.00    +0.247 C 
ATOM     12  O   UNL     1       3.013  -5.581  -2.414  0.00  0.00    -0.270 OA
ATOM     13  H   UNL     1       1.459  -1.311  -8.271  0.00  0.00    -0.086 HD
ATOM     14  H   UNL     1       2.781  -1.856  -9.088  0.00  0.00    -0.086 HD
ENDROOT
BRANCH  11  15
ATOM     15  C   UNL     1       4.403  -5.821  -4.277  0.00  0.00    +0.037 A 
ATOM     16  C   UNL     1       5.255  -5.141  -5.149  0.00  0.00    +0.013 A 
ATOM     17  C   UNL     1       6.132  -5.850  -5.944  0.00  0.00    +0.001 A 
ATOM     18  C   UNL     1       6.167  -7.231  -5.880  0.00  0.00    +0.000 A 
ATOM     19  C   UNL     1       5.325  -7.912  -5.018  0.00  0.00    +0.001 A 
ATOM     20  C   UNL     1       4.448  -7.215  -4.213  0.00  0.00    +0.013 A 
ENDBRANCH  11  15
BRANCH   1  22
ATOM     21  N   UNL     1       0.078  -0.063  -4.035  0.00  0.00    -0.312 N 
ATOM     22  C   UNL     1       1.202  -0.710  -3.670  0.00  0.00    +0.218 C 
ATOM     23  O   UNL     1       2.068  -0.123  -3.056  0.00  0.00    -0.275 OA
ATOM     24  H   UNL     1      -0.614  -0.533  -4.526  0.00  0.00    +0.149 HD
BRANCH  21  25
ATOM     25  C   UNL     1      -0.099   1.350  -3.692  0.00  0.00    +0.148 C 
BRANCH  25  27
ATOM     26  C   UNL     1      -1.633   3.314  -3.861  0.00  0.00    +0.053 C 
ATOM     27  C   UNL     1      -1.449   1.838  -4.220  0.00  0.00    +0.187 C 
BRANCH  27  28
ATOM     28  O   UNL     1      -1.489   1.685  -5.640  0.00  0.00    -0.486 OA
BRANCH  28  29
ATOM     29  C   UNL     1      -2.716   1.561  -6.213  0.00  0.00    +0.139 A 
ATOM     30  C   UNL     1      -3.860   1.704  -5.442  0.00  0.00    +0.047 A 
ATOM     31  C   UNL     1      -5.106   1.578  -6.026  0.00  0.00    +0.004 A 
ATOM     32  C   UNL     1      -5.213   1.311  -7.378  0.00  0.00    +0.002 A 
ATOM     33  C   UNL     1      -4.075   1.168  -8.150  0.00  0.00    +0.023 A 
ATOM     34  C   UNL     1      -2.826   1.298  -7.571  0.00  0.00    +0.083 A 
ATOM     35 CL   UNL     1      -1.396   1.126  -8.541  0.00  0.00    -0.080 Cl
ENDBRANCH  28  29
ENDBRANCH  27  28
ENDBRANCH  25  27
ENDBRANCH  21  25
ENDBRANCH   1  22
TORSDOF 6
