REMARK  Name = ZINC09692587
REMARK  12 active torsions:
REMARK  status: ('A' for Active; 'I' for Inactive)
REMARK    1  A    between atoms: C_1  and  C_2
REMARK    2  A    between atoms: C_2  and  N_3
REMARK    3  A    between atoms: N_3  and  C_4
REMARK    4  A    between atoms: N_3  and  C_6
REMARK    5  A    between atoms: C_4  and  C_5
REMARK    6  A    between atoms: C_9  and  N_13
REMARK    7  A    between atoms: C_10  and  C_12
REMARK    8  A    between atoms: C_14  and  C_16
REMARK    9  A    between atoms: C_16  and  C_18
REMARK   10  A    between atoms: C_16  and  N_24
REMARK   11  A    between atoms: N_24  and  S_25
REMARK   12  A    between atoms: S_25  and  C_28
REMARK                            x       y       z     vdW  Elec       q    Type
REMARK                         _______ _______ _______ _____ _____    ______ ____
ROOT
ATOM      1  C   UNL     1       3.213   4.129  -1.718  0.00  0.00    +0.192 C 
ENDROOT
BRANCH   1   2
ATOM      2  C   UNL     1       2.035   3.620  -2.507  0.00  0.00    -0.020 A 
ATOM      3  C   UNL     1       2.226   2.691  -3.513  0.00  0.00    +0.006 A 
ATOM      4  C   UNL     1       1.144   2.220  -4.233  0.00  0.00    +0.000 A 
ATOM      5  C   UNL     1      -0.127   2.685  -3.954  0.00  0.00    +0.000 A 
ATOM      6  C   UNL     1      -0.318   3.618  -2.952  0.00  0.00    +0.000 A 
ATOM      7  C   UNL     1       0.763   4.085  -2.229  0.00  0.00    +0.006 A 
ENDBRANCH   1   2
BRANCH   1   9
ATOM      8  N   UNL     1       3.281   6.307  -2.889  0.00  0.00    -0.284 N 
ATOM      9  C   UNL     1       3.932   5.187  -2.515  0.00  0.00    +0.240 C 
ATOM     10  O   UNL     1       5.095   5.031  -2.821  0.00  0.00    -0.273 OA
ATOM     11  H   UNL     1       2.331   6.397  -2.715  0.00  0.00    +0.155 HD
BRANCH   8  15
ATOM     12  C   UNL     1       5.354   9.385  -4.794  0.00  0.00    +0.030 A 
ATOM     13  C   UNL     1       6.032   8.499  -3.966  0.00  0.00    +0.025 A 
ATOM     14  C   UNL     1       5.346   7.481  -3.335  0.00  0.00    +0.025 A 
ATOM     15  C   UNL     1       3.978   7.341  -3.529  0.00  0.00    +0.036 A 
ATOM     16  C   UNL     1       3.301   8.223  -4.361  0.00  0.00    -0.028 A 
ATOM     17  C   UNL     1       3.986   9.245  -4.987  0.00  0.00    +0.028 A 
ATOM     18  C   UNL     1       1.817   8.068  -4.575  0.00  0.00    +0.046 C 
BRANCH  12  19
ATOM     19  N   UNL     1       6.049  10.416  -5.433  0.00  0.00    -0.330 N 
BRANCH  19  21
ATOM     20  C   UNL     1       8.242   9.749  -6.286  0.00  0.00    +0.024 C 
ATOM     21  C   UNL     1       7.492  10.563  -5.230  0.00  0.00    +0.102 C 
ENDBRANCH  19  21
BRANCH  19  22
ATOM     22  C   UNL     1       5.334  11.350  -6.307  0.00  0.00    +0.102 C 
ATOM     23  C   UNL     1       4.838  12.540  -5.483  0.00  0.00    +0.024 C 
ENDBRANCH  19  22
ENDBRANCH  12  19
ENDBRANCH   8  15
ENDBRANCH   1   9
BRANCH   1  24
ATOM     24  N   UNL     1       4.130   3.021  -1.439  0.00  0.00    -0.174 NA
ATOM     25  H   UNL     1       4.798   2.767  -2.096  0.00  0.00    +0.149 HD
BRANCH  24  26
ATOM     26  S   UNL     1       4.027   2.202  -0.004  0.00  0.00    +0.061 S 
ATOM     27  O   UNL     1       3.987   3.185   1.022  0.00  0.00    -0.153 OA
ATOM     28  O   UNL     1       5.017   1.184  -0.045  0.00  0.00    -0.153 OA
BRANCH  26  29
ATOM     29  C   UNL     1       2.466   1.386   0.019  0.00  0.00    +0.133 A 
ATOM     30  C   UNL     1       2.409   0.033   0.021  0.00  0.00    +0.031 A 
ATOM     31  C   UNL     1       1.191  -0.646   0.039  0.00  0.00    +0.004 A 
ATOM     32  C   UNL     1       0.010   0.017   0.056  0.00  0.00    +0.031 A 
ATOM     33  C   UNL     1      -0.007   1.436   0.056  0.00  0.00    +0.102 A 
ATOM     34  C   UNL     1       1.268   2.147   0.036  0.00  0.00    +0.126 A 
ATOM     35  N   UNL     1       1.103   3.468   0.038  0.00  0.00    -0.189 NA
ATOM     36  S   UNL     1      -0.443   3.717   0.062  0.00  0.00    +0.117 S 
ATOM     37  N   UNL     1      -1.045   2.270   0.066  0.00  0.00    -0.191 NA
ENDBRANCH  26  29
ENDBRANCH  24  26
ENDBRANCH   1  24
TORSDOF 9
