REMARK  Name = ZINC28503278
REMARK  10 active torsions:
REMARK  status: ('A' for Active; 'I' for Inactive)
REMARK    1  A    between atoms: C_1  and  C_2
REMARK    2  A    between atoms: C_2  and  C_3
REMARK    3  A    between atoms: C_6  and  C_9
REMARK    4  A    between atoms: C_9  and  C_11
REMARK    5  A    between atoms: C_11  and  C_13
REMARK    6  A    between atoms: C_11  and  S_14
REMARK    7  A    between atoms: S_14  and  C_15
REMARK    8  A    between atoms: C_18  and  C_23
REMARK    9  A    between atoms: N_19  and  C_20
REMARK   10  A    between atoms: C_20  and  C_21
REMARK                            x       y       z     vdW  Elec       q    Type
REMARK                         _______ _______ _______ _____ _____    ______ ____
ROOT
ATOM      1  S   UNL     1       3.144  -2.044   7.349  0.00  0.00    -0.075 S 
ENDROOT
BRANCH   1   2
ATOM      2  C   UNL     1       2.091  -2.241   8.748  0.00  0.00    +0.193 A 
ATOM      3  N   UNL     1       0.794  -2.448   8.723  0.00  0.00    -0.122 NA
ATOM      4  N   UNL     1       0.338  -2.546   9.920  0.00  0.00    -0.125 NA
ATOM      5  C   UNL     1       1.319  -2.407  10.786  0.00  0.00    +0.201 A 
ATOM      6  N   UNL     1       2.473  -2.213  10.060  0.00  0.00    -0.296 N 
BRANCH   5   7
ATOM      7  C   UNL     1       1.205  -2.456  12.252  0.00  0.00    +0.172 A 
ATOM      8  C   UNL     1       0.142  -2.936  12.957  0.00  0.00    +0.053 A 
ATOM      9  C   UNL     1       0.461  -2.790  14.320  0.00  0.00    +0.042 A 
ATOM     10  C   UNL     1       1.687  -2.235  14.383  0.00  0.00    +0.196 A 
ATOM     11  O   UNL     1       2.136  -2.039  13.132  0.00  0.00    -0.460 OA
ENDBRANCH   5   7
BRANCH   6  12
ATOM     12  C   UNL     1       3.827  -2.015  10.584  0.00  0.00    +0.152 C 
BRANCH  12  13
ATOM     13  C   UNL     1       4.072  -0.544  10.798  0.00  0.00    -0.013 C 
ATOM     14  C   UNL     1       4.453  -0.108  11.973  0.00  0.00    +0.005 C 
ENDBRANCH  12  13
ENDBRANCH   6  12
ENDBRANCH   1   2
BRANCH   1  15
ATOM     15  C   UNL     1       2.022  -2.184   5.931  0.00  0.00    +0.122 C 
ATOM     16  C   UNL     1       1.438  -3.597   5.881  0.00  0.00    +0.028 C 
BRANCH  15  17
ATOM     17  C   UNL     1       2.782  -1.910   4.659  0.00  0.00    +0.176 C 
ATOM     18  O   UNL     1       3.980  -2.091   4.618  0.00  0.00    -0.291 OA
BRANCH  17  22
ATOM     19  C   UNL     1       0.731  -0.503   1.223  0.00  0.00    -0.048 A 
ATOM     20  C   UNL     1       2.099  -0.709   1.172  0.00  0.00    +0.004 A 
ATOM     21  C   UNL     1       2.773  -1.166   2.285  0.00  0.00    +0.011 A 
ATOM     22  C   UNL     1       2.071  -1.421   3.467  0.00  0.00    +0.019 A 
ATOM     23  C   UNL     1       0.689  -1.211   3.510  0.00  0.00    +0.011 A 
ATOM     24  C   UNL     1       0.030  -0.749   2.391  0.00  0.00    +0.004 A 
BRANCH  19  26
ATOM     25  C   UNL     1      -0.019   1.526   0.010  0.00  0.00    +0.009 C 
ATOM     26  C   UNL     1       0.002  -0.004   0.002  0.00  0.00    +0.032 C 
ENDBRANCH  19  26
ENDBRANCH  17  22
ENDBRANCH  15  17
ENDBRANCH   1  15
TORSDOF 8
