REMARK  Name = ZINC39755176
REMARK  11 active torsions:
REMARK  status: ('A' for Active; 'I' for Inactive)
REMARK    1  A    between atoms: C_1  and  C_2
REMARK    2  A    between atoms: C_2  and  C_4
REMARK    3  A    between atoms: C_2  and  S_13
REMARK    4  A    between atoms: N_6  and  C_7
REMARK    5  A    between atoms: S_13  and  C_14
REMARK    6  A    between atoms: C_17  and  CA_25
REMARK    7  A    between atoms: N_18  and  C_19
REMARK    8  A    between atoms: CA_25  and  C_27
REMARK    9  A    between atoms: CA_25  and  N_29
REMARK   10  A    between atoms: C_27  and  O_28
REMARK   11  A    between atoms: C_30  and  C_32
REMARK                            x       y       z     vdW  Elec       q    Type
REMARK                         _______ _______ _______ _____ _____    ______ ____
ROOT
ATOM      1  C   UNL     1      -0.136  -0.087   2.816  0.00  0.00    +0.197 A 
ATOM      2  N   UNL     1      -1.266   0.575   2.730  0.00  0.00    -0.122 NA
ATOM      3  N   UNL     1      -1.739   0.787   3.906  0.00  0.00    -0.131 NA
ATOM      4  C   UNL     1      -0.947   0.278   4.807  0.00  0.00    +0.161 A 
ATOM      5  N   UNL     1       0.102  -0.304   4.145  0.00  0.00    -0.273 N 
ENDROOT
BRANCH   5   6
ATOM      6  C   UNL     1       1.193  -0.978   4.713  0.00  0.00    +0.050 A 
ATOM      7  C   UNL     1       0.995  -2.169   5.397  0.00  0.00    +0.026 A 
ATOM      8  C   UNL     1       2.071  -2.831   5.955  0.00  0.00    +0.002 A 
ATOM      9  C   UNL     1       3.345  -2.309   5.831  0.00  0.00    +0.000 A 
ATOM     10  C   UNL     1       3.546  -1.123   5.149  0.00  0.00    +0.002 A 
ATOM     11  C   UNL     1       2.474  -0.459   4.585  0.00  0.00    +0.026 A 
ENDBRANCH   5   6
BRANCH   1  12
ATOM     12  S   UNL     1       0.879  -0.605   1.472  0.00  0.00    -0.073 S 
BRANCH  12  14
ATOM     13  C   UNL     1      -0.019   1.526   0.010  0.00  0.00    +0.029 C 
ATOM     14  C   UNL     1       0.002  -0.004   0.002  0.00  0.00    +0.137 C 
BRANCH  14  15
ATOM     15  C   UNL     1       0.707  -0.490  -1.238  0.00  0.00    +0.226 C 
ATOM     16  O   UNL     1       1.864  -0.849  -1.176  0.00  0.00    -0.275 OA
ATOM     17  N   UNL     1       0.053  -0.526  -2.415  0.00  0.00    -0.312 N 
ATOM     18  H   UNL     1      -0.873  -0.239  -2.465  0.00  0.00    +0.149 HD
BRANCH  17  19
ATOM     19  C   UNL     1       0.738  -0.999  -3.621  0.00  0.00    +0.073 C 
ATOM     20  C   UNL     1       1.513   0.159  -4.254  0.00  0.00    +0.022 C 
ATOM     21  C   UNL     1       2.229  -0.334  -5.513  0.00  0.00    +0.002 C 
ATOM     22  C   UNL     1       1.198  -0.865  -6.511  0.00  0.00    +0.000 C 
ATOM     23  C   UNL     1       0.424  -2.022  -5.878  0.00  0.00    +0.002 C 
ATOM     24  C   UNL     1      -0.292  -1.529  -4.619  0.00  0.00    +0.022 C 
ENDBRANCH  17  19
ENDBRANCH  14  15
ENDBRANCH  12  14
ENDBRANCH   1  12
BRANCH   4  25
ATOM     25  CA  UNL     1      -1.150   0.316   6.300  0.00  0.00    +0.167 C 
BRANCH  25  26
ATOM     26  N   UNL     1      -2.541  -0.023   6.612  0.00  0.00    -0.299 N 
ATOM     27  C   UNL     1      -2.854  -0.541   7.816  0.00  0.00    +0.245 C 
ATOM     28  O   UNL     1      -1.983  -0.727   8.643  0.00  0.00    -0.270 OA
ATOM     29  H   UNL     1      -3.236   0.125   5.952  0.00  0.00    +0.150 HD
BRANCH  27  30
ATOM     30  C   UNL     1      -4.257  -0.883   8.131  0.00  0.00    +0.037 A 
ATOM     31  C   UNL     1      -5.259  -0.676   7.181  0.00  0.00    +0.014 A 
ATOM     32  C   UNL     1      -6.566  -0.998   7.481  0.00  0.00    +0.021 A 
ATOM     33  C   UNL     1      -6.886  -1.524   8.721  0.00  0.00    +0.041 A 
ATOM     34  C   UNL     1      -5.896  -1.732   9.668  0.00  0.00    +0.021 A 
ATOM     35  C   UNL     1      -4.585  -1.419   9.378  0.00  0.00    +0.014 A 
ATOM     36 CL   UNL     1      -8.534  -1.925   9.092  0.00  0.00    -0.084 Cl
ENDBRANCH  27  30
ENDBRANCH  25  26
BRANCH  25  37
ATOM     37  C   UNL     1      -0.838   1.720   6.821  0.00  0.00    +0.186 C 
BRANCH  37  38
ATOM     38  O   UNL     1      -1.629   2.678   6.114  0.00  0.00    -0.393 OA
ATOM     39  H   UNL     1      -1.482   3.592   6.393  0.00  0.00    +0.209 HD
ENDBRANCH  37  38
ENDBRANCH  25  37
ENDBRANCH   4  25
TORSDOF 10
