REMARK  Name = ZINC36307899
REMARK  18 active torsions:
REMARK  status: ('A' for Active; 'I' for Inactive)
REMARK    1  A    between atoms: C_1  and  C_2
REMARK    2  A    between atoms: C_2  and  C_3
REMARK    3  A    between atoms: C_2  and  C_4
REMARK    4  A    between atoms: C_5  and  C_23
REMARK    5  A    between atoms: C_6  and  O_15
REMARK    6  A    between atoms: N_7  and  C_9
REMARK    7  A    between atoms: O_15  and  C_16
REMARK    8  A    between atoms: C_23  and  N_24
REMARK    9  A    between atoms: N_24  and  C_25
REMARK   10  A    between atoms: N_24  and  C_35
REMARK   11  A    between atoms: C_25  and  C_26
REMARK   12  A    between atoms: C_26  and  C_28
REMARK   13  A    between atoms: C_26  and  O_34
REMARK   14  A    between atoms: C_28  and  O_29
REMARK   15  A    between atoms: O_29  and  C_30
REMARK   16  A    between atoms: C_30  and  C_31
REMARK   17  A    between atoms: C_30  and  C_32
REMARK   18  A    between atoms: C_30  and  C_33
REMARK                            x       y       z     vdW  Elec       q    Type
REMARK                         _______ _______ _______ _____ _____    ______ ____
ROOT
ATOM      1  C   UNL     1       0.016   0.467   2.287  0.00  0.00    +0.071 A 
ATOM      2  C   UNL     1      -0.329  -0.661   3.038  0.00  0.00    +0.021 A 
ATOM      3  C   UNL     1       0.801  -1.127   3.634  0.00  0.00    +0.225 A 
ATOM      4  N   UNL     1       1.824  -0.311   3.264  0.00  0.00    -0.200 N 
ATOM      5  N   UNL     1       1.301   0.674   2.416  0.00  0.00    -0.168 NA
ENDROOT
BRANCH   4   6
ATOM      6  C   UNL     1       3.164  -0.437   3.657  0.00  0.00    +0.069 A 
ATOM      7  C   UNL     1       3.476  -0.760   4.970  0.00  0.00    +0.028 A 
ATOM      8  C   UNL     1       4.797  -0.884   5.354  0.00  0.00    +0.002 A 
ATOM      9  C   UNL     1       5.808  -0.685   4.432  0.00  0.00    +0.000 A 
ATOM     10  C   UNL     1       5.500  -0.362   3.123  0.00  0.00    +0.002 A 
ATOM     11  C   UNL     1       4.181  -0.243   2.732  0.00  0.00    +0.028 A 
ENDBRANCH   4   6
BRANCH   1  13
ATOM     12  C   UNL     1      -0.924   2.740   1.976  0.00  0.00    +0.014 C 
ATOM     13  C   UNL     1      -0.932   1.299   1.462  0.00  0.00    +0.034 C 
ATOM     14  C   UNL     1      -0.488   1.277  -0.002  0.00  0.00    +0.014 C 
ENDBRANCH   1  13
BRANCH   3  15
ATOM     15  O   UNL     1       0.891  -2.209   4.449  0.00  0.00    -0.435 OA
BRANCH  15  16
ATOM     16  C   UNL     1       0.628  -2.035   5.771  0.00  0.00    +0.165 A 
ATOM     17  C   UNL     1       0.223  -0.795   6.242  0.00  0.00    +0.049 A 
ATOM     18  C   UNL     1      -0.045  -0.621   7.586  0.00  0.00    +0.004 A 
ATOM     19  C   UNL     1       0.091  -1.681   8.463  0.00  0.00    +0.003 A 
ATOM     20  C   UNL     1       0.494  -2.919   7.998  0.00  0.00    +0.042 A 
ATOM     21  C   UNL     1       0.758  -3.101   6.653  0.00  0.00    +0.165 A 
ATOM     22  F   UNL     1       1.147  -4.312   6.197  0.00  0.00    -0.202 F 
ENDBRANCH  15  16
ENDBRANCH   3  15
BRANCH   2  23
ATOM     23  C   UNL     1      -1.708  -1.255   3.164  0.00  0.00    -0.035 C 
BRANCH  23  24
ATOM     24  N   UNL     1      -1.910  -2.255   2.107  0.00  0.00    +0.386 N 
ATOM     25  H   UNL     1      -1.735  -1.833   1.208  0.00  0.00    -0.081 HD
BRANCH  24  26
ATOM     26  C   UNL     1      -0.984  -3.377   2.311  0.00  0.00    -0.068 C 
ATOM     27  C   UNL     1       0.190  -3.509   1.338  0.00  0.00    -0.017 C 
ATOM     28  C   UNL     1      -0.982  -4.490   1.261  0.00  0.00    -0.017 C 
ENDBRANCH  24  26
BRANCH  24  29
ATOM     29  C   UNL     1      -3.294  -2.747   2.156  0.00  0.00    -0.044 C 
BRANCH  29  30
ATOM     30  C   UNL     1      -3.587  -3.304   3.550  0.00  0.00    +0.124 C 
BRANCH  30  31
ATOM     31  O   UNL     1      -2.803  -4.479   3.768  0.00  0.00    -0.391 OA
ATOM     32  H   UNL     1      -2.974  -5.189   3.135  0.00  0.00    +0.210 HD
ENDBRANCH  30  31
BRANCH  30  33
ATOM     33  C   UNL     1      -5.073  -3.656   3.656  0.00  0.00    +0.189 C 
BRANCH  33  34
ATOM     34  O   UNL     1      -5.371  -4.067   4.992  0.00  0.00    -0.372 OA
BRANCH  34  35
ATOM     35  C   UNL     1      -6.740  -4.420   5.200  0.00  0.00    +0.061 C 
ATOM     36  C   UNL     1      -7.113  -5.582   4.276  0.00  0.00    +0.041 C 
ATOM     37  C   UNL     1      -6.942  -4.842   6.657  0.00  0.00    +0.041 C 
ATOM     38  C   UNL     1      -7.630  -3.216   4.889  0.00  0.00    +0.041 C 
ENDBRANCH  34  35
ENDBRANCH  33  34
ENDBRANCH  30  33
ENDBRANCH  29  30
ENDBRANCH  24  29
ENDBRANCH  23  24
ENDBRANCH   2  23
TORSDOF 13
