REMARK  Name = ZINC64588108
REMARK  9 active torsions:
REMARK  status: ('A' for Active; 'I' for Inactive)
REMARK    1  A    between atoms: C_1  and  C_2
REMARK    2  A    between atoms: C_2  and  C_3
REMARK    3  A    between atoms: C_3  and  C_5
REMARK    4  A    between atoms: C_3  and  N_6
REMARK    5  A    between atoms: C_7  and  C_9
REMARK    6  A    between atoms: N_18  and  C_21
REMARK    7  A    between atoms: C_21  and  C_22
REMARK    8  A    between atoms: C_22  and  C_24
REMARK    9  A    between atoms: N_31  and  C_34
REMARK                            x       y       z     vdW  Elec       q    Type
REMARK                         _______ _______ _______ _____ _____    ______ ____
ROOT
ATOM      1  C   UNL     1      -4.079   0.322   2.607  0.00  0.00    +0.039 A 
ATOM      2  C   UNL     1      -3.303   0.570   3.743  0.00  0.00    +0.014 A 
ATOM      3  C   UNL     1      -3.905   0.920   4.931  0.00  0.00    +0.016 A 
ATOM      4  C   UNL     1      -5.293   1.027   5.000  0.00  0.00    +0.064 A 
ATOM      5  C   UNL     1      -6.076   0.780   3.863  0.00  0.00    +0.067 A 
ATOM      6  C   UNL     1      -5.466   0.434   2.668  0.00  0.00    +0.040 A 
ATOM      7  N   UNL     1      -7.464   0.892   3.950  0.00  0.00    -0.229 N 
ATOM      8  C   UNL     1      -8.063   1.242   5.140  0.00  0.00    +0.240 A 
ATOM      9  N   UNL     1      -9.355   1.276   4.955  0.00  0.00    -0.129 NA
ATOM     10  N   UNL     1      -9.615   0.944   3.620  0.00  0.00    -0.203 N 
ATOM     11  C   UNL     1      -8.429   0.711   3.024  0.00  0.00    +0.353 A 
ATOM     12  O   UNL     1      -8.258   0.396   1.859  0.00  0.00    -0.244 OA
ATOM     13  N   UNL     1      -7.311   1.492   6.279  0.00  0.00    -0.280 N 
ATOM     14  C   UNL     1      -5.967   1.400   6.260  0.00  0.00    +0.263 A 
ATOM     15  O   UNL     1      -5.319   1.621   7.265  0.00  0.00    -0.267 OA
ATOM     16  C   UNL     1      -7.990   1.861   7.524  0.00  0.00    +0.155 C 
ENDROOT
BRANCH   1  18
ATOM     17  N   UNL     1      -2.082  -0.162   1.273  0.00  0.00    -0.309 N 
ATOM     18  C   UNL     1      -3.424  -0.053   1.334  0.00  0.00    +0.244 C 
ATOM     19  O   UNL     1      -4.096  -0.264   0.344  0.00  0.00    -0.270 OA
ATOM     20  H   UNL     1      -1.545   0.006   2.063  0.00  0.00    +0.149 HD
BRANCH  17  21
ATOM     21  C   UNL     1      -1.433  -0.534   0.013  0.00  0.00    +0.070 C 
ATOM     22  C   UNL     1      -1.416  -2.058  -0.121  0.00  0.00    +0.028 C 
BRANCH  21  24
ATOM     23  C   UNL     1      -0.019   1.526   0.010  0.00  0.00    +0.005 C 
ATOM     24  C   UNL     1       0.002  -0.004   0.002  0.00  0.00    +0.018 C 
ENDBRANCH  21  24
ENDBRANCH  17  21
ENDBRANCH   1  18
BRANCH  10  25
ATOM     25  C   UNL     1     -10.934   0.863   2.988  0.00  0.00    +0.228 C 
BRANCH  25  26
ATOM     26  C   UNL     1     -11.475  -0.537   3.130  0.00  0.00    +0.185 C 
ATOM     27  O   UNL     1     -10.822  -1.383   3.704  0.00  0.00    -0.290 OA
BRANCH  26  28
ATOM     28  C   UNL     1     -12.794  -0.876   2.574  0.00  0.00    +0.021 A 
ATOM     29  C   UNL     1     -13.547   0.096   1.907  0.00  0.00    +0.011 A 
ATOM     30  C   UNL     1     -14.782  -0.230   1.387  0.00  0.00    +0.002 A 
ATOM     31  C   UNL     1     -15.278  -1.514   1.525  0.00  0.00    +0.020 A 
ATOM     32  C   UNL     1     -14.540  -2.483   2.184  0.00  0.00    +0.042 A 
ATOM     33  C   UNL     1     -13.299  -2.174   2.704  0.00  0.00    +0.031 A 
ATOM     34 CL   UNL     1     -15.173  -4.090   2.351  0.00  0.00    -0.084 Cl
ENDBRANCH  26  28
ENDBRANCH  25  26
ENDBRANCH  10  25
TORSDOF 6
