REMARK  Name = ZINC05063316
REMARK  7 active torsions:
REMARK  status: ('A' for Active; 'I' for Inactive)
REMARK    1  A    between atoms: C_1  and  C_2
REMARK    2  A    between atoms: C_5  and  N_11
REMARK    3  A    between atoms: C_6  and  N_8
REMARK    4  A    between atoms: N_11  and  C_12
REMARK    5  A    between atoms: C_12  and  N_14
REMARK    6  A    between atoms: C_15  and  C_17
REMARK    7  A    between atoms: C_17  and  C_18
REMARK                            x       y       z     vdW  Elec       q    Type
REMARK                         _______ _______ _______ _____ _____    ______ ____
ROOT
ATOM      1  N   UNL     1      -6.497   0.782   1.479  0.00  0.00    -0.268 N 
ATOM      2  C   UNL     1      -5.322   1.268   1.033  0.00  0.00    +0.219 C 
ATOM      3  O   UNL     1      -4.830   2.244   1.558  0.00  0.00    -0.275 OA
ATOM      4  H   UNL     1      -6.890   0.002   1.058  0.00  0.00    +0.156 HD
ENDROOT
BRANCH   1   5
ATOM      5  C   UNL     1      -7.126   1.381   2.509  0.00  0.00    +0.141 C 
ATOM      6  S   UNL     1      -6.433   2.759   3.252  0.00  0.00    -0.018 S 
BRANCH   5   7
ATOM      7  N   UNL     1      -8.302   0.896   2.955  0.00  0.00    -0.295 N 
ATOM      8  H   UNL     1      -8.736   0.168   2.484  0.00  0.00    +0.154 HD
BRANCH   7  13
ATOM      9  C   UNL     1     -10.707   3.106   7.593  0.00  0.00    +0.044 C 
ATOM     10  C   UNL     1     -10.068   2.519   6.361  0.00  0.00    -0.048 A 
ATOM     11  C   UNL     1      -8.721   2.209   6.364  0.00  0.00    +0.005 A 
ATOM     12  C   UNL     1      -8.132   1.670   5.237  0.00  0.00    +0.026 A 
ATOM     13  C   UNL     1      -8.895   1.441   4.099  0.00  0.00    +0.063 A 
ATOM     14  C   UNL     1     -10.247   1.759   4.097  0.00  0.00    +0.147 A 
ATOM     15  C   UNL     1     -10.831   2.292   5.230  0.00  0.00    +0.038 A 
BRANCH  14  16
ATOM     16  N   UNL     1     -11.062   1.522   2.885  0.00  0.00    +0.058 N 
ATOM     17  O   UNL     1     -12.262   1.730   2.908  0.00  0.00    -0.126 OA
ATOM     18  O   UNL     1     -10.533   1.119   1.865  0.00  0.00    -0.126 OA
ENDBRANCH  14  16
ENDBRANCH   7  13
ENDBRANCH   5   7
ENDBRANCH   1   5
BRANCH   2  19
ATOM     19  C   UNL     1      -4.619   0.599  -0.120  0.00  0.00    +0.103 C 
BRANCH  19  20
ATOM     20  C   UNL     1      -3.317   1.342  -0.424  0.00  0.00    -0.020 C 
ATOM     21  C   UNL     1      -2.603   0.662  -1.594  0.00  0.00    +0.011 C 
ATOM     22  C   UNL     1      -1.301   1.406  -1.899  0.00  0.00    -0.010 C 
ATOM     23  C   UNL     1      -0.397   1.379  -0.664  0.00  0.00    +0.007 C 
ATOM     24  C   UNL     1      -1.111   2.059   0.506  0.00  0.00    -0.010 C 
ATOM     25  C   UNL     1      -2.413   1.315   0.810  0.00  0.00    +0.011 C 
ATOM     26  C   UNL     1      -1.427   3.510   0.137  0.00  0.00    +0.007 C 
ATOM     27  C   UNL     1      -2.331   3.537  -1.098  0.00  0.00    -0.010 C 
ATOM     28  C   UNL     1      -1.617   2.857  -2.268  0.00  0.00    +0.007 C 
ATOM     29  C   UNL     1      -3.632   2.793  -0.793  0.00  0.00    +0.011 C 
ENDBRANCH  19  20
ENDBRANCH   2  19
TORSDOF 6
