REMARK  Name = ZINC09379164
REMARK  8 active torsions:
REMARK  status: ('A' for Active; 'I' for Inactive)
REMARK    1  A    between atoms: C_1  and  C_2
REMARK    2  A    between atoms: C_2  and  C_4
REMARK    3  A    between atoms: C_4  and  N_5
REMARK    4  A    between atoms: C_15  and  C_17
REMARK    5  A    between atoms: C_17  and  C_18
REMARK    6  A    between atoms: N_20  and  C_21
REMARK    7  A    between atoms: C_26  and  O_27
REMARK    8  A    between atoms: O_27  and  C_28
REMARK                            x       y       z     vdW  Elec       q    Type
REMARK                         _______ _______ _______ _____ _____    ______ ____
ROOT
ATOM      1  N   UNL     1      -1.831   5.954   0.948  0.00  0.00    -0.312 N 
ATOM      2  C   UNL     1      -1.839   7.341   1.109  0.00  0.00    +0.052 A 
ATOM      3  C   UNL     1      -0.838   7.965   1.840  0.00  0.00    +0.025 A 
ATOM      4  C   UNL     1      -0.854   9.337   2.002  0.00  0.00    +0.002 A 
ATOM      5  C   UNL     1      -1.865  10.094   1.439  0.00  0.00    +0.002 A 
ATOM      6  C   UNL     1      -2.866   9.482   0.708  0.00  0.00    +0.025 A 
ATOM      7  C   UNL     1      -2.856   8.107   0.540  0.00  0.00    +0.055 A 
ATOM      8  N   UNL     1      -3.864   7.474  -0.203  0.00  0.00    -0.282 N 
ATOM      9  C   UNL     1      -3.643   6.221  -0.658  0.00  0.00    +0.238 C 
ATOM     10  O   UNL     1      -4.499   5.640  -1.290  0.00  0.00    -0.273 OA
ATOM     11  C   UNL     1      -2.323   5.552  -0.373  0.00  0.00    +0.169 C 
ATOM     12  H   UNL     1      -4.703   7.926  -0.385  0.00  0.00    +0.155 HD
ENDROOT
BRANCH   1  13
ATOM     13  C   UNL     1      -0.492   5.403   1.201  0.00  0.00    +0.136 C 
BRANCH  13  15
ATOM     14  C   UNL     1       0.588   5.784  -1.144  0.00  0.00    +0.040 C 
ATOM     15  C   UNL     1       0.514   6.106   0.326  0.00  0.00    -0.063 C 
ATOM     16  C   UNL     1       1.324   6.995   0.844  0.00  0.00    +0.009 C 
ENDBRANCH  13  15
ENDBRANCH   1  13
BRANCH  11  17
ATOM     17  C   UNL     1      -2.506   4.034  -0.406  0.00  0.00    +0.128 C 
BRANCH  17  18
ATOM     18  C   UNL     1      -3.462   3.619   0.682  0.00  0.00    +0.220 C 
ATOM     19  O   UNL     1      -4.011   4.461   1.361  0.00  0.00    -0.275 OA
ATOM     20  N   UNL     1      -3.708   2.312   0.902  0.00  0.00    -0.283 N 
ATOM     21  H   UNL     1      -3.226   1.637   0.399  0.00  0.00    +0.155 HD
BRANCH  20  22
ATOM     22  C   UNL     1      -4.658   1.929   1.857  0.00  0.00    +0.076 A 
ATOM     23  C   UNL     1      -4.834   2.686   3.006  0.00  0.00    +0.027 A 
ATOM     24  C   UNL     1      -5.768   2.302   3.950  0.00  0.00    +0.002 A 
ATOM     25  C   UNL     1      -6.529   1.164   3.751  0.00  0.00    +0.004 A 
ATOM     26  C   UNL     1      -6.360   0.405   2.609  0.00  0.00    +0.047 A 
ATOM     27  C   UNL     1      -5.425   0.783   1.658  0.00  0.00    +0.141 A 
BRANCH  27  28
ATOM     28  O   UNL     1      -5.257   0.036   0.534  0.00  0.00    -0.493 OA
ATOM     29  C   UNL     1      -6.078  -1.125   0.397  0.00  0.00    +0.277 C 
ENDBRANCH  27  28
ENDBRANCH  20  22
ENDBRANCH  17  18
ENDBRANCH  11  17
TORSDOF 6
