REMARK  Name = ZINC14020790
REMARK  11 active torsions:
REMARK  status: ('A' for Active; 'I' for Inactive)
REMARK    1  A    between atoms: C_1  and  C_2
REMARK    2  A    between atoms: C_5  and  S_8
REMARK    3  A    between atoms: S_8  and  N_11
REMARK    4  A    between atoms: C_15  and  C_18
REMARK    5  A    between atoms: C_24  and  C_26
REMARK    6  A    between atoms: C_28  and  O_36
REMARK    7  A    between atoms: C_29  and  O_34
REMARK    8  A    between atoms: C_30  and  O_32
REMARK    9  A    between atoms: O_32  and  C_33
REMARK   10  A    between atoms: O_34  and  C_35
REMARK   11  A    between atoms: O_36  and  C_37
REMARK                            x       y       z     vdW  Elec       q    Type
REMARK                         _______ _______ _______ _____ _____    ______ ____
ROOT
ATOM      1  C   UNL     1      -1.844   5.197   2.826  0.00  0.00    +0.225 C 
ATOM      2  O   UNL     1      -0.745   5.530   3.215  0.00  0.00    -0.275 OA
ATOM      3  N   UNL     1      -2.909   5.990   3.056  0.00  0.00    -0.238 N 
ATOM      4  C   UNL     1      -2.749   7.186   3.738  0.00  0.00    +0.314 A 
ATOM      5  N   UNL     1      -1.624   7.661   4.216  0.00  0.00    -0.092 NA
ATOM      6  N   UNL     1      -1.845   8.794   4.785  0.00  0.00    -0.106 NA
ATOM      7  C   UNL     1      -3.121   9.082   4.700  0.00  0.00    +0.250 A 
ATOM      8  O   UNL     1      -3.720   8.070   4.036  0.00  0.00    -0.405 OA
ATOM      9  H   UNL     1      -3.788   5.724   2.744  0.00  0.00    +0.159 HD
ENDROOT
BRANCH   1  14
ATOM     10  N   UNL     1      -0.872   1.871   1.353  0.00  0.00    -0.176 NA
ATOM     11  C   UNL     1      -1.852   0.960   1.960  0.00  0.00    +0.109 C 
ATOM     12  C   UNL     1      -3.193   1.690   2.083  0.00  0.00    +0.018 C 
ATOM     13  C   UNL     1      -2.990   2.998   2.852  0.00  0.00    +0.015 C 
ATOM     14  C   UNL     1      -2.019   3.897   2.084  0.00  0.00    +0.091 C 
ATOM     15  C   UNL     1      -0.660   3.190   1.965  0.00  0.00    +0.122 C 
BRANCH  10  16
ATOM     16  S   UNL     1      -0.017   1.417   0.010  0.00  0.00    +0.061 S 
ATOM     17  O   UNL     1       0.002  -0.004   0.002  0.00  0.00    -0.153 OA
ATOM     18  O   UNL     1       1.172   2.195   0.003  0.00  0.00    -0.153 OA
BRANCH  16  23
ATOM     19  C   UNL     1      -3.225   3.125  -4.807  0.00  0.00    +0.044 C 
ATOM     20  C   UNL     1      -2.423   2.698  -3.604  0.00  0.00    -0.050 A 
ATOM     21  C   UNL     1      -1.494   3.559  -3.052  0.00  0.00    +0.005 A 
ATOM     22  C   UNL     1      -0.759   3.168  -1.948  0.00  0.00    +0.029 A 
ATOM     23  C   UNL     1      -0.954   1.915  -1.397  0.00  0.00    +0.105 A 
ATOM     24  C   UNL     1      -1.879   1.052  -1.952  0.00  0.00    +0.029 A 
ATOM     25  C   UNL     1      -2.617   1.445  -3.053  0.00  0.00    +0.005 A 
ENDBRANCH  16  23
ENDBRANCH  10  16
ENDBRANCH   1  14
BRANCH   7  26
ATOM     26  C   UNL     1      -3.783  10.291   5.233  0.00  0.00    +0.046 A 
ATOM     27  C   UNL     1      -5.157  10.469   5.062  0.00  0.00    +0.063 A 
ATOM     28  C   UNL     1      -5.774  11.600   5.566  0.00  0.00    +0.166 A 
ATOM     29  C   UNL     1      -5.025  12.564   6.234  0.00  0.00    +0.204 A 
ATOM     30  C   UNL     1      -3.655  12.392   6.401  0.00  0.00    +0.166 A 
ATOM     31  C   UNL     1      -3.033  11.260   5.903  0.00  0.00    +0.063 A 
BRANCH  30  32
ATOM     32  O   UNL     1      -2.926  13.336   7.053  0.00  0.00    -0.491 OA
ATOM     33  C   UNL     1      -1.524  13.094   7.189  0.00  0.00    +0.277 C 
ENDBRANCH  30  32
BRANCH  29  34
ATOM     34  O   UNL     1      -5.634  13.677   6.725  0.00  0.00    -0.488 OA
ATOM     35  C   UNL     1      -5.715  14.809   5.856  0.00  0.00    +0.277 C 
ENDBRANCH  29  34
BRANCH  28  36
ATOM     36  O   UNL     1      -7.114  11.771   5.405  0.00  0.00    -0.491 OA
ATOM     37  C   UNL     1      -7.821  10.742   4.710  0.00  0.00    +0.277 C 
ENDBRANCH  28  36
ENDBRANCH   7  26
TORSDOF 7
