REMARK  Name = ZINC62807882
REMARK  4 active torsions:
REMARK  status: ('A' for Active; 'I' for Inactive)
REMARK    1  A    between atoms: C_1  and  C_2
REMARK    2  A    between atoms: C_2  and  C_3
REMARK    3  A    between atoms: N_11  and  C_12
REMARK    4  A    between atoms: C_20  and  O_22
REMARK                            x       y       z     vdW  Elec       q    Type
REMARK                         _______ _______ _______ _____ _____    ______ ____
ROOT
ATOM      1  C   UNL     1      -1.412  -0.526   0.013  0.00  0.00    +0.111 A 
ATOM      2  N   UNL     1      -2.103  -0.784   1.084  0.00  0.00    -0.232 NA
ATOM      3  C   UNL     1      -3.334  -1.237   0.735  0.00  0.00    +0.089 A 
ATOM      4  C   UNL     1      -4.451  -1.652   1.465  0.00  0.00    +0.030 A 
ATOM      5  C   UNL     1      -5.577  -2.066   0.811  0.00  0.00    +0.002 A 
ATOM      6  C   UNL     1      -5.625  -2.079  -0.576  0.00  0.00    +0.002 A 
ATOM      7  C   UNL     1      -4.535  -1.675  -1.317  0.00  0.00    +0.028 A 
ATOM      8  C   UNL     1      -3.382  -1.250  -0.669  0.00  0.00    +0.069 A 
ATOM      9  N   UNL     1      -2.154  -0.789  -1.097  0.00  0.00    -0.322 N 
ENDROOT
BRANCH   9  10
ATOM     10  C   UNL     1      -1.726  -0.619  -2.488  0.00  0.00    +0.117 C 
ATOM     11  C   UNL     1      -1.788  -1.967  -3.209  0.00  0.00    +0.028 C 
ATOM     12  C   UNL     1      -1.735  -1.739  -4.721  0.00  0.00    +0.002 C 
ATOM     13  C   UNL     1      -0.301  -1.401  -5.136  0.00  0.00    +0.000 C 
ATOM     14  C   UNL     1       0.015   0.044  -4.744  0.00  0.00    +0.000 C 
ATOM     15  C   UNL     1      -1.167   0.944  -5.114  0.00  0.00    +0.003 C 
ATOM     16  C   UNL     1      -1.817   1.482  -3.837  0.00  0.00    +0.033 C 
ATOM     17  C   UNL     1      -2.653   0.377  -3.187  0.00  0.00    +0.137 C 
BRANCH  17  18
ATOM     18  O   UNL     1      -3.542   0.954  -2.229  0.00  0.00    -0.390 OA
ATOM     19  H   UNL     1      -4.160   1.597  -2.603  0.00  0.00    +0.210 HD
ENDBRANCH  17  18
ENDBRANCH   9  10
BRANCH   1  21
ATOM     20  C   UNL     1      -0.019   1.526   0.010  0.00  0.00    +0.012 C 
ATOM     21  C   UNL     1       0.002  -0.004   0.002  0.00  0.00    +0.071 C 
ENDBRANCH   1  21
TORSDOF 3
