REMARK  Name = ZINC06077709
REMARK  13 active torsions:
REMARK  status: ('A' for Active; 'I' for Inactive)
REMARK    1  A    between atoms: C_1  and  C_2
REMARK    2  A    between atoms: C_2  and  C_3
REMARK    3  A    between atoms: C_3  and  C_4
REMARK    4  A    between atoms: C_3  and  C_5
REMARK    5  A    between atoms: C_3  and  N_6
REMARK    6  A    between atoms: C_7  and  C_11
REMARK    7  A    between atoms: C_11  and  C_13
REMARK    8  A    between atoms: C_11  and  N_75
REMARK    9  A    between atoms: C_17  and  C_26
REMARK   10  A    between atoms: C_19  and  C_25
REMARK   11  A    between atoms: N_29  and  C_32
REMARK   12  A    between atoms: C_35  and  O_38
REMARK   13  A    between atoms: O_38  and  C_39
REMARK                            x       y       z     vdW  Elec       q    Type
REMARK                         _______ _______ _______ _____ _____    ______ ____
ROOT
ATOM      1  C   UNL     1      -2.140   1.058   0.177  0.00  0.00    +0.039 C 
ENDROOT
BRANCH   1   2
ATOM      2  C   UNL     1      -0.846   1.803   0.376  0.00  0.00    +0.011 A 
ATOM      3  C   UNL     1       0.315   1.116   0.512  0.00  0.00    +0.017 A 
ATOM      4  C   UNL     1       1.557   1.870   0.698  0.00  0.00    -0.001 A 
ATOM      5  C   UNL     1       2.786   1.217   0.838  0.00  0.00    +0.013 A 
ATOM      6  C   UNL     1       3.926   1.949   1.009  0.00  0.00    -0.050 A 
ATOM      7  C   UNL     1       3.876   3.336   1.047  0.00  0.00    +0.008 A 
ATOM      8  C   UNL     1       2.676   4.001   0.911  0.00  0.00    -0.026 A 
ATOM      9  C   UNL     1       1.502   3.276   0.735  0.00  0.00    +0.052 A 
ATOM     10  N   UNL     1       0.288   3.914   0.597  0.00  0.00    -0.322 N 
ATOM     11  H   UNL     1       0.250   4.913   0.623  0.00  0.00    +0.169 HD
ATOM     12  C   UNL     1      -0.847   3.213   0.427  0.00  0.00    +0.251 A 
ATOM     13  O   UNL     1      -1.903   3.811   0.308  0.00  0.00    -0.268 OA
ATOM     14  C   UNL     1       2.636   5.506   0.953  0.00  0.00    +0.046 C 
ATOM     15  C   UNL     1       5.250   1.246   1.160  0.00  0.00    +0.044 C 
ENDBRANCH   1   2
BRANCH   1  21
ATOM     16  C   UNL     1      -4.111   0.900  -1.221  0.00  0.00    -0.058 C 
ATOM     17  C   UNL     1      -4.800   1.487  -2.456  0.00  0.00    +0.086 C 
ATOM     18  N   UNL     1      -3.948   1.276  -3.635  0.00  0.00    -0.333 N 
ATOM     19  C   UNL     1      -2.638   1.917  -3.457  0.00  0.00    +0.086 C 
ATOM     20  C   UNL     1      -1.950   1.330  -2.222  0.00  0.00    -0.058 C 
ATOM     21  N   UNL     1      -2.805   1.568  -1.041  0.00  0.00    +0.391 N 
ATOM     22  H   UNL     1      -2.959   2.578  -0.938  0.00  0.00    -0.080 HD
BRANCH  18  23
ATOM     23  C   UNL     1      -4.578   1.736  -4.797  0.00  0.00    +0.030 A 
ATOM     24  C   UNL     1      -3.952   2.682  -5.598  0.00  0.00    +0.027 A 
ATOM     25  C   UNL     1      -4.571   3.132  -6.747  0.00  0.00    +0.047 A 
ATOM     26  C   UNL     1      -5.823   2.647  -7.096  0.00  0.00    +0.120 A 
ATOM     27  C   UNL     1      -6.451   1.706  -6.294  0.00  0.00    +0.047 A 
ATOM     28  C   UNL     1      -5.831   1.251  -5.147  0.00  0.00    +0.027 A 
BRANCH  26  29
ATOM     29  O   UNL     1      -6.435   3.095  -8.225  0.00  0.00    -0.495 OA
ATOM     30  C   UNL     1      -5.731   4.064  -9.004  0.00  0.00    +0.277 C 
ENDBRANCH  26  29
ENDBRANCH  18  23
ENDBRANCH   1  21
BRANCH   1  32
ATOM     31  N   UNL     1      -3.392   0.385   2.295  0.00  0.00    -0.225 N 
ATOM     32  C   UNL     1      -3.041   1.290   1.362  0.00  0.00    +0.143 A 
ATOM     33  N   UNL     1      -3.631   2.415   1.688  0.00  0.00    -0.115 NA
ATOM     34  N   UNL     1      -4.315   2.209   2.761  0.00  0.00    -0.023 NA
ATOM     35  N   UNL     1      -4.170   0.985   3.131  0.00  0.00    -0.043 NA
BRANCH  31  36
ATOM     36  C   UNL     1      -2.970  -1.016   2.350  0.00  0.00    +0.061 C 
ATOM     37  C   UNL     1      -3.485  -1.753   1.111  0.00  0.00    +0.036 C 
ATOM     38  C   UNL     1      -1.442  -1.087   2.387  0.00  0.00    +0.036 C 
BRANCH  36  40
ATOM     39  C   UNL     1      -3.101  -3.136   3.665  0.00  0.00    +0.006 C 
ATOM     40  C   UNL     1      -3.542  -1.672   3.608  0.00  0.00    +0.026 C 
ENDBRANCH  36  40
ENDBRANCH  31  36
ENDBRANCH   1  32
TORSDOF 7
