REMARK  Name = ZINC44029220
REMARK  5 active torsions:
REMARK  status: ('A' for Active; 'I' for Inactive)
REMARK    1  A    between atoms: C_1  and  C_2
REMARK    2  A    between atoms: C_2  and  C_4
REMARK    3  A    between atoms: C_2  and  S_11
REMARK    4  A    between atoms: S_11  and  C_12
REMARK    5  A    between atoms: N_20  and  C_23
REMARK                            x       y       z     vdW  Elec       q    Type
REMARK                         _______ _______ _______ _____ _____    ______ ____
ROOT
ATOM      1  C   UNL     1       2.509  -0.029  -1.285  0.00  0.00    +0.172 A 
ATOM      2  N   UNL     1       3.426  -0.305  -2.258  0.00  0.00    -0.301 N 
ATOM      3  H   UNL     1       3.158  -0.803  -3.046  0.00  0.00    +0.171 HD
ATOM      4  C   UNL     1       4.705   0.112  -2.129  0.00  0.00    +0.263 A 
ATOM      5  O   UNL     1       5.531  -0.129  -2.991  0.00  0.00    -0.267 OA
ATOM      6  C   UNL     1       5.060   0.838  -0.964  0.00  0.00    +0.103 A 
ATOM      7  C   UNL     1       6.256   1.417  -0.493  0.00  0.00    +0.150 A 
ATOM      8  N   UNL     1       6.018   1.976   0.660  0.00  0.00    -0.172 NA
ATOM      9  N   UNL     1       4.672   1.794   1.001  0.00  0.00    -0.214 N 
ATOM     10  C   UNL     1       4.070   1.091   0.001  0.00  0.00    +0.171 A 
ATOM     11  N   UNL     1       2.823   0.648  -0.202  0.00  0.00    -0.204 NA
ENDROOT
BRANCH   9  12
ATOM     12  C   UNL     1       4.052   2.256   2.168  0.00  0.00    +0.068 A 
ATOM     13  C   UNL     1       2.729   2.677   2.133  0.00  0.00    +0.028 A 
ATOM     14  C   UNL     1       2.119   3.131   3.286  0.00  0.00    +0.002 A 
ATOM     15  C   UNL     1       2.825   3.168   4.475  0.00  0.00    +0.000 A 
ATOM     16  C   UNL     1       4.143   2.750   4.513  0.00  0.00    +0.002 A 
ATOM     17  C   UNL     1       4.756   2.288   3.365  0.00  0.00    +0.028 A 
ENDBRANCH   9  12
BRANCH   1  18
ATOM     18  S   UNL     1       0.851  -0.589  -1.490  0.00  0.00    -0.080 S 
BRANCH  18  20
ATOM     19  C   UNL     1      -0.019   1.526   0.010  0.00  0.00    +0.024 C 
ATOM     20  C   UNL     1       0.002  -0.004   0.002  0.00  0.00    +0.084 C 
BRANCH  20  21
ATOM     21  C   UNL     1      -1.412  -0.526   0.013  0.00  0.00    +0.001 A 
ATOM     22  C   UNL     1      -2.034  -0.862  -1.175  0.00  0.00    +0.007 A 
ATOM     23  C   UNL     1      -3.330  -1.340  -1.165  0.00  0.00    +0.000 A 
ATOM     24  C   UNL     1      -4.007  -1.483   0.032  0.00  0.00    +0.003 A 
ATOM     25  C   UNL     1      -3.387  -1.148   1.220  0.00  0.00    +0.038 A 
ATOM     26  C   UNL     1      -2.086  -0.674   1.213  0.00  0.00    +0.128 A 
ATOM     27  F   UNL     1      -1.478  -0.350   2.375  0.00  0.00    -0.205 F 
ENDBRANCH  20  21
ENDBRANCH  18  20
ENDBRANCH   1  18
TORSDOF 4
