REMARK  Name = ZINC32905580
REMARK  9 active torsions:
REMARK  status: ('A' for Active; 'I' for Inactive)
REMARK    1  A    between atoms: C_1  and  C_2
REMARK    2  A    between atoms: C_2  and  C_3
REMARK    3  A    between atoms: C_2  and  C_4
REMARK    4  A    between atoms: C_2  and  C_5
REMARK    5  A    between atoms: C_8  and  C_11
REMARK    6  A    between atoms: N_13  and  N_14
REMARK    7  A    between atoms: C_15  and  C_17
REMARK    8  A    between atoms: C_17  and  O_18
REMARK    9  A    between atoms: O_18  and  C_19
REMARK                            x       y       z     vdW  Elec       q    Type
REMARK                         _______ _______ _______ _____ _____    ______ ____
ROOT
ATOM      1  N   UNL     1       2.366   1.217  -0.014  0.00  0.00    -0.231 N 
ATOM      2  C   UNL     1       3.524   1.907  -0.021  0.00  0.00    +0.267 C 
ATOM      3  O   UNL     1       3.508   3.119  -0.015  0.00  0.00    -0.271 OA
ATOM      4  H   UNL     1       2.381   0.117  -0.020  0.00  0.00    +0.173 HD
ENDROOT
BRANCH   1   7
ATOM      5  C   UNL     1      -0.014   1.211   0.009  0.00  0.00    +0.260 C 
ATOM      6  O   UNL     1       0.002  -0.004   0.002  0.00  0.00    -0.269 OA
ATOM      7  N   UNL     1       1.143   1.901   0.001  0.00  0.00    -0.230 N 
ATOM      8  H   UNL     1       1.129   3.001   0.007  0.00  0.00    +0.173 HD
BRANCH   5  12
ATOM      9  C   UNL     1      -3.721   3.285   0.038  0.00  0.00    -0.042 A 
ATOM     10  C   UNL     1      -3.706   1.901   0.030  0.00  0.00    +0.005 A 
ATOM     11  C   UNL     1      -2.506   1.222   0.021  0.00  0.00    +0.013 A 
ATOM     12  C   UNL     1      -1.305   1.933   0.019  0.00  0.00    +0.038 A 
ATOM     13  C   UNL     1      -1.327   3.329   0.032  0.00  0.00    +0.013 A 
ATOM     14  C   UNL     1      -2.534   3.996   0.037  0.00  0.00    +0.005 A 
BRANCH   9  16
ATOM     15  C   UNL     1      -5.828   3.633   1.299  0.00  0.00    +0.015 C 
ATOM     16  C   UNL     1      -5.037   4.021   0.049  0.00  0.00    -0.013 C 
ATOM     17  C   UNL     1      -4.777   5.529   0.056  0.00  0.00    +0.015 C 
ATOM     18  C   UNL     1      -5.840   3.647  -1.199  0.00  0.00    +0.015 C 
ENDBRANCH   9  16
ENDBRANCH   5  12
ENDBRANCH   1   7
BRANCH   2  19
ATOM     19  C   UNL     1       4.839   1.171  -0.038  0.00  0.00    +0.326 C 
BRANCH  19  20
ATOM     20  O   UNL     1       5.913   2.115  -0.043  0.00  0.00    -0.483 OA
BRANCH  20  21
ATOM     21  C   UNL     1       7.176   1.612  -0.058  0.00  0.00    +0.122 A 
ATOM     22  C   UNL     1       7.376   0.239  -0.067  0.00  0.00    +0.047 A 
ATOM     23  C   UNL     1       8.658  -0.272  -0.083  0.00  0.00    +0.027 A 
ATOM     24  C   UNL     1       9.748   0.588  -0.089  0.00  0.00    +0.037 A 
ATOM     25  C   UNL     1       9.547   1.962  -0.080  0.00  0.00    -0.022 A 
ATOM     26  C   UNL     1       8.264   2.472  -0.069  0.00  0.00    +0.051 A 
ATOM     27  C   UNL     1      10.732   2.893  -0.087  0.00  0.00    +0.046 C 
ATOM     28  C   UNL     1      11.880   2.265   0.703  0.00  0.00    +0.101 C 
ATOM     29  C   UNL     1      12.092   0.844   0.257  0.00  0.00    +0.218 C 
ATOM     30  O   UNL     1      13.216   0.387   0.224  0.00  0.00    -0.275 OA
ATOM     31  N   UNL     1      11.050   0.073  -0.105  0.00  0.00    -0.285 N 
ATOM     32  H   UNL     1      11.226  -0.967  -0.415  0.00  0.00    +0.155 HD
ENDBRANCH  20  21
ENDBRANCH  19  20
ENDBRANCH   2  19
TORSDOF 6
