REMARK  Name = ZINC38736302
REMARK  7 active torsions:
REMARK  status: ('A' for Active; 'I' for Inactive)
REMARK    1  A    between atoms: C_6  and  C_7
REMARK    2  A    between atoms: C_9  and  C_12
REMARK    3  A    between atoms: C_12  and  C_13
REMARK    4  A    between atoms: C_13  and  N_14
REMARK    5  A    between atoms: C_15  and  C_17
REMARK    6  A    between atoms: N_19  and  C_20
REMARK    7  A    between atoms: C_23  and  N_26
REMARK                            x       y       z     vdW  Elec       q    Type
REMARK                         _______ _______ _______ _____ _____    ______ ____
ROOT
ATOM      1  N   UNL     1      -2.304  -6.140  -1.172  0.00  0.00    -0.307 N 
ATOM      2  C   UNL     1      -1.734  -6.892  -2.134  0.00  0.00    +0.299 C 
ATOM      3  O   UNL     1      -1.072  -6.364  -3.004  0.00  0.00    -0.265 OA
ATOM      4  H   UNL     1      -2.833  -6.561  -0.476  0.00  0.00    +0.149 HD
ENDROOT
BRANCH   2   5
ATOM      5  C   UNL     1      -1.916  -8.374  -2.129  0.00  0.00    +0.303 C 
ATOM      6  O   UNL     1      -2.577  -8.902  -1.259  0.00  0.00    -0.265 OA
ATOM      7  N   UNL     1      -1.345  -9.126  -3.091  0.00  0.00    -0.278 N 
ATOM      8  H   UNL     1      -0.874  -8.700  -3.824  0.00  0.00    +0.155 HD
BRANCH   7   9
ATOM      9  C   UNL     1      -1.434 -10.519  -3.034  0.00  0.00    +0.034 A 
ATOM     10  C   UNL     1      -0.373 -11.303  -3.469  0.00  0.00    +0.025 A 
ATOM     11  C   UNL     1      -0.464 -12.680  -3.410  0.00  0.00    +0.034 A 
ATOM     12  C   UNL     1      -1.610 -13.278  -2.919  0.00  0.00    +0.126 A 
ATOM     13  C   UNL     1      -2.668 -12.501  -2.485  0.00  0.00    +0.034 A 
ATOM     14  C   UNL     1      -2.582 -11.124  -2.536  0.00  0.00    +0.025 A 
BRANCH  12  15
ATOM     15  N   UNL     1      -1.704 -14.754  -2.859  0.00  0.00    +0.056 N 
ATOM     16  O   UNL     1      -0.780 -15.435  -3.238  0.00  0.00    -0.126 OA
ATOM     17  O   UNL     1      -2.705 -15.279  -2.430  0.00  0.00    -0.126 OA
ENDBRANCH  12  15
ENDBRANCH   7   9
ENDBRANCH   2   5
BRANCH   1  18
ATOM     18  C   UNL     1      -2.126  -4.686  -1.176  0.00  0.00    +0.111 C 
BRANCH  18  19
ATOM     19  C   UNL     1      -2.869  -4.077   0.014  0.00  0.00    +0.074 C 
BRANCH  19  22
ATOM     20  C   UNL     1      -1.289  -0.755  -0.012  0.00  0.00    +0.109 A 
ATOM     21  N   UNL     1      -1.478  -2.067  -0.007  0.00  0.00    -0.244 NA
ATOM     22  C   UNL     1      -2.686  -2.581   0.009  0.00  0.00    +0.051 A 
ATOM     23  C   UNL     1      -3.771  -1.762   0.022  0.00  0.00    +0.070 A 
ATOM     24  S   UNL     1      -2.975  -0.160   0.015  0.00  0.00    -0.075 S 
BRANCH  20  30
ATOM     25  C   UNL     1      -0.049   1.406  -0.026  0.00  0.00    +0.012 A 
ATOM     26  C   UNL     1       1.134   2.115  -0.042  0.00  0.00    +0.020 A 
ATOM     27  C   UNL     1       2.345   1.444  -0.061  0.00  0.00    +0.041 A 
ATOM     28  C   UNL     1       2.377   0.060  -0.066  0.00  0.00    +0.020 A 
ATOM     29  C   UNL     1       1.200  -0.660  -0.050  0.00  0.00    +0.012 A 
ATOM     30  C   UNL     1      -0.024   0.011  -0.030  0.00  0.00    +0.007 A 
ATOM     31 CL   UNL     1       3.831   2.343  -0.082  0.00  0.00    -0.084 Cl
ENDBRANCH  20  30
ENDBRANCH  19  22
ENDBRANCH  18  19
ENDBRANCH   1  18
TORSDOF 7
