REMARK  Name = ZINC00931132
REMARK  8 active torsions:
REMARK  status: ('A' for Active; 'I' for Inactive)
REMARK    1  A    between atoms: C_1  and  C_2
REMARK    2  A    between atoms: C_4  and  N_13
REMARK    3  A    between atoms: C_7  and  N_8
REMARK    4  A    between atoms: N_13  and  C_14
REMARK    5  A    between atoms: C_14  and  C_16
REMARK    6  A    between atoms: C_14  and  C_21
REMARK    7  A    between atoms: N_23  and  C_24
REMARK    8  A    between atoms: C_30  and  C_32
REMARK                            x       y       z     vdW  Elec       q    Type
REMARK                         _______ _______ _______ _____ _____    ______ ____
ROOT
ATOM      1  N   UNL     1      -0.421  -2.921  -2.295  0.00  0.00    -0.249 N 
ATOM      2  C   UNL     1      -0.250  -2.303  -3.480  0.00  0.00    +0.265 C 
ATOM      3  O   UNL     1       0.033  -1.123  -3.513  0.00  0.00    -0.271 OA
ENDROOT
BRANCH   2   4
ATOM      4  C   UNL     1      -0.410  -3.075  -4.764  0.00  0.00    +0.296 C 
ATOM      5  C   UNL     1       0.751  -4.066  -4.920  0.00  0.00    +0.283 C 
ATOM      6  O   UNL     1       0.576  -4.771  -6.154  0.00  0.00    -0.484 OA
ATOM      7  C   UNL     1       0.265  -4.023  -7.247  0.00  0.00    +0.162 A 
ATOM      8  C   UNL     1       0.434  -4.564  -8.513  0.00  0.00    +0.049 A 
ATOM      9  C   UNL     1       0.119  -3.818  -9.633  0.00  0.00    +0.004 A 
ATOM     10  C   UNL     1      -0.365  -2.531  -9.495  0.00  0.00    +0.004 A 
ATOM     11  C   UNL     1      -0.535  -1.985  -8.237  0.00  0.00    +0.049 A 
ATOM     12  C   UNL     1      -0.220  -2.728  -7.109  0.00  0.00    +0.163 A 
ATOM     13  O   UNL     1      -0.385  -2.174  -5.876  0.00  0.00    -0.472 OA
ENDBRANCH   2   4
BRANCH   1  17
ATOM     14  C   UNL     1      -0.297   1.446  -0.043  0.00  0.00    +0.046 C 
ATOM     15  C   UNL     1      -0.347  -0.059   0.011  0.00  0.00    -0.023 A 
ATOM     16  C   UNL     1      -0.361  -0.791  -1.159  0.00  0.00    +0.029 A 
ATOM     17  C   UNL     1      -0.407  -2.178  -1.109  0.00  0.00    +0.038 A 
ATOM     18  C   UNL     1      -0.440  -2.828   0.118  0.00  0.00    +0.025 A 
ATOM     19  C   UNL     1      -0.426  -2.095   1.288  0.00  0.00    +0.030 A 
ATOM     20  C   UNL     1      -0.374  -0.709   1.237  0.00  0.00    +0.072 A 
BRANCH  20  21
ATOM     21  N   UNL     1      -0.354   0.036   2.426  0.00  0.00    -0.200 N 
ATOM     22  C   UNL     1      -1.086  -0.179   3.541  0.00  0.00    +0.250 A 
ATOM     23  N   UNL     1      -0.757   0.745   4.406  0.00  0.00    -0.116 NA
ATOM     24  N   UNL     1       0.133   1.529   3.914  0.00  0.00    -0.023 NA
ATOM     25  N   UNL     1       0.437   1.162   2.716  0.00  0.00    -0.039 NA
ENDBRANCH  20  21
ENDBRANCH   1  17
BRANCH   1  26
ATOM     26  C   UNL     1      -0.622  -4.372  -2.249  0.00  0.00    +0.233 C 
BRANCH  26  27
ATOM     27  C   UNL     1       0.557  -5.021  -1.570  0.00  0.00    +0.135 A 
ATOM     28  C   UNL     1       1.144  -6.172  -1.944  0.00  0.00    +0.047 A 
ATOM     29  C   UNL     1       2.202  -6.406  -1.036  0.00  0.00    +0.041 A 
ATOM     30  C   UNL     1       2.198  -5.384  -0.162  0.00  0.00    +0.195 A 
ATOM     31  O   UNL     1       1.203  -4.545  -0.493  0.00  0.00    -0.465 OA
ENDBRANCH  26  27
BRANCH  26  32
ATOM     32  C   UNL     1      -1.879  -4.680  -1.476  0.00  0.00    +0.242 C 
ATOM     33  O   UNL     1      -2.541  -3.778  -1.010  0.00  0.00    -0.273 OA
ATOM     34  N   UNL     1      -2.266  -5.960  -1.303  0.00  0.00    -0.311 N 
ATOM     35  H   UNL     1      -1.736  -6.682  -1.675  0.00  0.00    +0.149 HD
BRANCH  34  36
ATOM     36  C   UNL     1      -3.488  -6.260  -0.551  0.00  0.00    +0.073 C 
ATOM     37  C   UNL     1      -3.168  -6.308   0.944  0.00  0.00    +0.022 C 
ATOM     38  C   UNL     1      -4.443  -6.621   1.728  0.00  0.00    +0.002 C 
ATOM     39  C   UNL     1      -4.997  -7.975   1.281  0.00  0.00    +0.000 C 
ATOM     40  C   UNL     1      -5.317  -7.927  -0.214  0.00  0.00    +0.002 C 
ATOM     41  C   UNL     1      -4.042  -7.614  -0.999  0.00  0.00    +0.022 C 
ENDBRANCH  34  36
ENDBRANCH  26  32
ENDBRANCH   1  26
TORSDOF 7
