REMARK  Name = ZINC50712091
REMARK  4 active torsions:
REMARK  status: ('A' for Active; 'I' for Inactive)
REMARK    1  A    between atoms: C_1  and  C_2
REMARK    2  A    between atoms: C_13  and  C_15
REMARK    3  A    between atoms: C_18  and  N_21
REMARK    4  A    between atoms: N_21  and  C_22
REMARK                            x       y       z     vdW  Elec       q    Type
REMARK                         _______ _______ _______ _____ _____    ______ ____
ROOT
ATOM      1  C   UNL     1       0.404   1.096  -0.354  0.00  0.00    +0.028 C 
ATOM      2  C   UNL     1      -0.242  -0.179   0.193  0.00  0.00    +0.079 C 
ATOM      3  C   UNL     1      -0.042  -1.330  -0.802  0.00  0.00    +0.027 C 
ATOM      4  C   UNL     1      -0.755  -2.573  -0.269  0.00  0.00    +0.039 C 
ATOM      5  C   UNL     1      -0.342  -2.847   1.154  0.00  0.00    -0.026 A 
ATOM      6  C   UNL     1      -0.517  -4.121   1.668  0.00  0.00    +0.005 A 
ATOM      7  C   UNL     1      -0.152  -4.403   2.970  0.00  0.00    +0.000 A 
ATOM      8  C   UNL     1       0.392  -3.414   3.769  0.00  0.00    +0.002 A 
ATOM      9  C   UNL     1       0.571  -2.142   3.264  0.00  0.00    +0.024 A 
ATOM     10  C   UNL     1       0.205  -1.856   1.953  0.00  0.00    +0.040 A 
ATOM     11  N   UNL     1       0.401  -0.560   1.457  0.00  0.00    -0.264 N 
ATOM     12  C   UNL     1       1.169   0.321   2.128  0.00  0.00    +0.251 C 
ATOM     13  O   UNL     1       1.104   1.507   1.866  0.00  0.00    -0.270 OA
ENDROOT
BRANCH  12  14
ATOM     14  C   UNL     1       2.088  -0.152   3.180  0.00  0.00    +0.037 A 
ATOM     15  C   UNL     1       2.693  -1.408   3.068  0.00  0.00    +0.015 A 
ATOM     16  C   UNL     1       3.550  -1.847   4.051  0.00  0.00    +0.023 A 
ATOM     17  C   UNL     1       3.815  -1.042   5.156  0.00  0.00    +0.027 A 
ATOM     18  C   UNL     1       3.215   0.209   5.270  0.00  0.00    +0.023 A 
ATOM     19  C   UNL     1       2.361   0.656   4.288  0.00  0.00    +0.015 A 
BRANCH  17  20
ATOM     20  N   UNL     1       4.681  -1.489   6.148  0.00  0.00    -0.347 N 
ATOM     21  C   UNL     1       4.961  -0.644   7.311  0.00  0.00    +0.125 C 
ATOM     22  H   UNL     1       5.100  -2.360   6.070  0.00  0.00    +0.146 HD
ENDBRANCH  17  20
ENDBRANCH  12  14
TORSDOF 2
