REMARK  Name = ZINC63557292
REMARK  7 active torsions:
REMARK  status: ('A' for Active; 'I' for Inactive)
REMARK    1  A    between atoms: C_1  and  C_2
REMARK    2  A    between atoms: C_5  and  N_9
REMARK    3  A    between atoms: C_7  and  C_8
REMARK    4  A    between atoms: C_10  and  C_12
REMARK    5  A    between atoms: N_17  and  C_19
REMARK    6  A    between atoms: C_19  and  C_20
REMARK    7  A    between atoms: C_20  and  C_21
REMARK                            x       y       z     vdW  Elec       q    Type
REMARK                         _______ _______ _______ _____ _____    ______ ____
ROOT
ATOM      1  C   UNL     1      -0.134  -6.343  -1.187  0.00  0.00    +0.101 C 
ATOM      2  C   UNL     1       1.161  -6.978  -0.630  0.00  0.00    +0.110 C 
ATOM      3  C   UNL     1       1.359  -8.218  -1.474  0.00  0.00    +0.216 C 
ATOM      4  O   UNL     1       2.092  -9.141  -1.190  0.00  0.00    -0.276 OA
ATOM      5  N   UNL     1       0.604  -8.147  -2.584  0.00  0.00    -0.300 N 
ATOM      6  C   UNL     1      -0.161  -6.895  -2.630  0.00  0.00    +0.121 C 
ENDROOT
BRANCH   1   8
ATOM      7  N   UNL     1       0.059  -4.170  -0.021  0.00  0.00    -0.285 N 
ATOM      8  C   UNL     1      -0.040  -4.839  -1.187  0.00  0.00    +0.222 C 
ATOM      9  O   UNL     1      -0.054  -4.230  -2.236  0.00  0.00    -0.275 OA
ATOM     10  H   UNL     1       0.147  -4.658   0.812  0.00  0.00    +0.155 HD
BRANCH   7  15
ATOM     11  C   UNL     1      -0.041   1.502   0.014  0.00  0.00    +0.044 C 
ATOM     12  C   UNL     1      -0.015  -0.004   0.004  0.00  0.00    -0.047 A 
ATOM     13  C   UNL     1      -0.752  -0.702  -0.935  0.00  0.00    +0.005 A 
ATOM     14  C   UNL     1      -0.730  -2.082  -0.946  0.00  0.00    +0.023 A 
ATOM     15  C   UNL     1       0.034  -2.771  -0.013  0.00  0.00    +0.034 A 
ATOM     16  C   UNL     1       0.774  -2.068   0.929  0.00  0.00    +0.027 A 
ATOM     17  C   UNL     1       0.751  -0.686   0.932  0.00  0.00    -0.046 A 
ATOM     18  C   UNL     1       1.557   0.078   1.950  0.00  0.00    +0.044 C 
ENDBRANCH   7  15
ENDBRANCH   1   8
BRANCH   5  19
ATOM     19  C   UNL     1       0.550  -9.186  -3.615  0.00  0.00    +0.112 C 
BRANCH  19  20
ATOM     20  C   UNL     1      -0.557 -10.186  -3.274  0.00  0.00    +0.052 C 
BRANCH  20  21
ATOM     21  C   UNL     1      -0.612 -11.255  -4.335  0.00  0.00    -0.040 C 
ATOM     22  C   UNL     1      -0.012 -12.467  -4.300  0.00  0.00    +0.000 A 
ATOM     23  C   UNL     1       0.840 -13.126  -3.303  0.00  0.00    +0.030 A 
ATOM     24  C   UNL     1       1.303 -14.372  -3.556  0.00  0.00    +0.042 A 
ATOM     25  C   UNL     1       0.991 -15.047  -4.746  0.00  0.00    +0.022 A 
ATOM     26  C   UNL     1       0.214 -14.506  -5.708  0.00  0.00    +0.027 A 
ATOM     27  C   UNL     1      -0.327 -13.201  -5.546  0.00  0.00    +0.043 A 
ATOM     28  N   UNL     1      -1.093 -12.471  -6.321  0.00  0.00    -0.380 N 
ATOM     29  C   UNL     1      -1.355 -11.193  -5.651  0.00  0.00    +0.144 C 
ATOM     30 CL   UNL     1       2.311 -15.155  -2.379  0.00  0.00    -0.084 Cl
ATOM     31  H   UNL     1      -1.432 -12.734  -7.191  0.00  0.00    +0.160 HD
ENDBRANCH  20  21
ENDBRANCH  19  20
ENDBRANCH   5  19
TORSDOF 5
