REMARK  Name = ZINC09596482
REMARK  9 active torsions:
REMARK  status: ('A' for Active; 'I' for Inactive)
REMARK    1  A    between atoms: C_1  and  O_2
REMARK    2  A    between atoms: O_2  and  C_3
REMARK    3  A    between atoms: C_8  and  O_9
REMARK    4  A    between atoms: O_9  and  C_10
REMARK    5  A    between atoms: C_11  and  C_31
REMARK    6  A    between atoms: C_15  and  C_16
REMARK    7  A    between atoms: C_15  and  N_64
REMARK    8  A    between atoms: N_18  and  C_19
REMARK    9  A    between atoms: C_22  and  N_25
REMARK                            x       y       z     vdW  Elec       q    Type
REMARK                         _______ _______ _______ _____ _____    ______ ____
ROOT
ATOM      1  C   UNL     1       3.641   5.800   3.818  0.00  0.00    +0.162 A 
ATOM      2  C   UNL     1       3.650   6.640   2.730  0.00  0.00    +0.053 A 
ATOM      3  C   UNL     1       3.287   6.173   1.475  0.00  0.00    -0.043 A 
ATOM      4  C   UNL     1       2.924   4.856   1.309  0.00  0.00    -0.049 A 
ATOM      5  C   UNL     1       2.919   4.002   2.402  0.00  0.00    +0.052 A 
ATOM      6  C   UNL     1       3.275   4.467   3.656  0.00  0.00    +0.162 A 
ATOM      7  C   UNL     1       2.531   4.299  -0.035  0.00  0.00    +0.001 C 
ATOM      8  C   UNL     1       3.283   6.374  -1.004  0.00  0.00    -0.072 C 
ATOM      9  C   UNL     1       3.299   7.140   0.319  0.00  0.00    +0.017 C 
ATOM     10  N   UNL     1       2.175   5.399  -0.946  0.00  0.00    +0.393 N 
ATOM     11  H   UNL     1       1.333   5.868  -0.593  0.00  0.00    -0.080 HD
ENDROOT
BRANCH   7  12
ATOM     12  C   UNL     1       1.337   3.395   0.130  0.00  0.00    -0.019 A 
ATOM     13  C   UNL     1       1.294   2.042   0.202  0.00  0.00    +0.010 A 
ATOM     14  C   UNL     1       0.070   1.418   0.357  0.00  0.00    +0.008 A 
ATOM     15  C   UNL     1      -1.051   2.177   0.426  0.00  0.00    +0.045 A 
ATOM     16  S   UNL     1      -0.388   3.828   0.283  0.00  0.00    -0.103 S 
ENDBRANCH   7  12
BRANCH   1  18
ATOM     17  C   UNL     1       4.357   7.646   5.136  0.00  0.00    +0.277 C 
ATOM     18  O   UNL     1       3.994   6.266   5.046  0.00  0.00    -0.491 OA
ENDBRANCH   1  18
BRANCH   6  19
ATOM     19  O   UNL     1       3.268   3.625   4.724  0.00  0.00    -0.491 OA
ATOM     20  C   UNL     1       2.882   2.271   4.480  0.00  0.00    +0.277 C 
ENDBRANCH   6  19
BRANCH  10  21
ATOM     21  C   UNL     1       1.897   4.866  -2.299  0.00  0.00    +0.020 C 
BRANCH  21  22
ATOM     22  C   UNL     1       1.319   5.967  -3.150  0.00  0.00    +0.201 C 
ATOM     23  O   UNL     1       1.168   7.077  -2.684  0.00  0.00    -0.278 OA
ATOM     24  N   UNL     1       0.970   5.720  -4.428  0.00  0.00    -0.287 N 
ATOM     25  H   UNL     1       1.161   4.855  -4.824  0.00  0.00    +0.155 HD
BRANCH  24  26
ATOM     26  C   UNL     1       0.332   6.711  -5.184  0.00  0.00    +0.033 A 
ATOM     27  C   UNL     1      -0.536   7.603  -4.569  0.00  0.00    +0.025 A 
ATOM     28  C   UNL     1      -1.162   8.582  -5.314  0.00  0.00    +0.025 A 
ATOM     29  C   UNL     1      -0.930   8.670  -6.680  0.00  0.00    +0.036 A 
ATOM     30  C   UNL     1      -0.066   7.774  -7.297  0.00  0.00    +0.025 A 
ATOM     31  C   UNL     1       0.563   6.798  -6.551  0.00  0.00    +0.025 A 
BRANCH  29  32
ATOM     32  N   UNL     1      -1.568   9.661  -7.436  0.00  0.00    -0.271 N 
ATOM     33  C   UNL     1      -2.406  10.724  -6.870  0.00  0.00    +0.114 C 
ATOM     34  C   UNL     1      -2.516  11.796  -7.980  0.00  0.00    +0.029 C 
ATOM     35  C   UNL     1      -2.295  10.950  -9.255  0.00  0.00    +0.098 C 
ATOM     36  C   UNL     1      -1.495   9.758  -8.775  0.00  0.00    +0.220 C 
ATOM     37  O   UNL     1      -0.878   9.001  -9.494  0.00  0.00    -0.275 OA
ENDBRANCH  29  32
ENDBRANCH  24  26
ENDBRANCH  21  22
ENDBRANCH  10  21
TORSDOF 7
