REMARK  Name = ZINC33312893
REMARK  9 active torsions:
REMARK  status: ('A' for Active; 'I' for Inactive)
REMARK    1  A    between atoms: C_1  and  C_2
REMARK    2  A    between atoms: C_5  and  C_9
REMARK    3  A    between atoms: C_6  and  C_8
REMARK    4  A    between atoms: C_9  and  C_11
REMARK    5  A    between atoms: C_9  and  N_12
REMARK    6  A    between atoms: C_13  and  C_15
REMARK    7  A    between atoms: C_15  and  N_16
REMARK    8  A    between atoms: C_25  and  C_27
REMARK    9  A    between atoms: C_32  and  C_35
REMARK                            x       y       z     vdW  Elec       q    Type
REMARK                         _______ _______ _______ _____ _____    ______ ____
ROOT
ATOM      1  N   UNL     1      -2.217   4.811   0.032  0.00  0.00    +0.396 N 
ATOM      2  C   UNL     1      -1.220   5.061   1.085  0.00  0.00    -0.072 C 
ATOM      3  C   UNL     1       0.141   4.570   0.590  0.00  0.00    +0.017 C 
ATOM      4  C   UNL     1       0.022   3.161   0.069  0.00  0.00    -0.047 A 
ATOM      5  C   UNL     1       1.180   2.416  -0.095  0.00  0.00    +0.004 A 
ATOM      6  C   UNL     1       1.116   1.123  -0.574  0.00  0.00    +0.000 A 
ATOM      7  C   UNL     1      -0.110   0.568  -0.893  0.00  0.00    +0.000 A 
ATOM      8  C   UNL     1      -1.262   1.311  -0.736  0.00  0.00    +0.003 A 
ATOM      9  C   UNL     1      -1.200   2.608  -0.247  0.00  0.00    -0.049 A 
ATOM     10  C   UNL     1      -2.486   3.374  -0.081  0.00  0.00    +0.051 C 
ATOM     11  H   UNL     1      -1.810   5.162  -0.927  0.00  0.00    -0.080 HD
ENDROOT
BRANCH  10  12
ATOM     12  C   UNL     1      -3.370   3.126  -1.277  0.00  0.00    +0.206 C 
ATOM     13  O   UNL     1      -3.308   3.862  -2.239  0.00  0.00    -0.277 OA
ATOM     14  N   UNL     1      -4.229   2.087  -1.276  0.00  0.00    -0.303 N 
ATOM     15  C   UNL     1      -4.377   1.239  -0.086  0.00  0.00    +0.108 C 
ATOM     16  C   UNL     1      -5.866   1.182   0.291  0.00  0.00    +0.022 C 
ATOM     17  C   UNL     1      -6.674   0.712  -0.920  0.00  0.00    -0.011 C 
ATOM     18  C   UNL     1      -6.506   1.711  -2.067  0.00  0.00    +0.022 C 
ATOM     19  C   UNL     1      -5.029   1.777  -2.469  0.00  0.00    +0.108 C 
ATOM     20  C   UNL     1      -8.153   0.617  -0.540  0.00  0.00    +0.007 C 
ENDBRANCH  10  12
BRANCH   1  21
ATOM     21  C   UNL     1      -3.454   5.559   0.291  0.00  0.00    +0.020 C 
BRANCH  21  23
ATOM     22  N   UNL     1      -4.144   7.927   0.483  0.00  0.00    -0.310 N 
ATOM     23  C   UNL     1      -3.183   7.037   0.168  0.00  0.00    +0.197 C 
ATOM     24  O   UNL     1      -2.099   7.424  -0.213  0.00  0.00    -0.278 OA
ATOM     25  H   UNL     1      -5.128   7.575   0.829  0.00  0.00    +0.149 HD
BRANCH  22  26
ATOM     26  C   UNL     1      -3.880   9.363   0.364  0.00  0.00    +0.100 C 
ATOM     27  C   UNL     1      -4.234   9.831  -1.050  0.00  0.00    +0.033 C 
BRANCH  26  32
ATOM     28  C   UNL     1      -7.099  12.239   4.205  0.00  0.00    +0.044 C 
ATOM     29  C   UNL     1      -6.260  11.489   3.204  0.00  0.00    -0.050 A 
ATOM     30  C   UNL     1      -6.684  10.263   2.727  0.00  0.00    +0.004 A 
ATOM     31  C   UNL     1      -5.916   9.577   1.804  0.00  0.00    +0.006 A 
ATOM     32  C   UNL     1      -4.720  10.113   1.366  0.00  0.00    -0.025 A 
ATOM     33  C   UNL     1      -4.296  11.339   1.842  0.00  0.00    -0.045 A 
ATOM     34  C   UNL     1      -5.066  12.027   2.761  0.00  0.00    +0.007 A 
ATOM     35  C   UNL     1      -2.995  11.926   1.359  0.00  0.00    +0.044 C 
ENDBRANCH  26  32
ENDBRANCH  22  26
ENDBRANCH  21  23
ENDBRANCH   1  21
TORSDOF 5
