REMARK  Name = ZINC41020086
REMARK  9 active torsions:
REMARK  status: ('A' for Active; 'I' for Inactive)
REMARK    1  A    between atoms: C_1  and  C_2
REMARK    2  A    between atoms: C_5  and  C_8
REMARK    3  A    between atoms: C_8  and  C_10
REMARK    4  A    between atoms: C_8  and  N_27
REMARK    5  A    between atoms: C_10  and  N_11
REMARK    6  A    between atoms: C_12  and  C_14
REMARK    7  A    between atoms: C_14  and  C_15
REMARK    8  A    between atoms: C_15  and  C_16
REMARK    9  A    between atoms: C_19  and  C_21
REMARK                            x       y       z     vdW  Elec       q    Type
REMARK                         _______ _______ _______ _____ _____    ______ ____
ROOT
ATOM      1  N   UNL     1      -2.244  -4.385  -0.902  0.00  0.00    -0.317 N 
ATOM      2  C   UNL     1      -3.557  -4.689  -0.896  0.00  0.00    +0.213 C 
ATOM      3  O   UNL     1      -4.017  -5.370  -0.005  0.00  0.00    -0.276 OA
ATOM      4  H   UNL     1      -1.875  -3.840  -1.615  0.00  0.00    +0.149 HD
ENDROOT
BRANCH   1   5
ATOM      5  C   UNL     1      -1.373  -4.877   0.169  0.00  0.00    +0.093 C 
BRANCH   5   6
ATOM      6  C   UNL     1       0.028  -4.285  -0.000  0.00  0.00    -0.020 C 
BRANCH   6  11
ATOM      7  C   UNL     1      -0.223   1.455   0.618  0.00  0.00    +0.044 C 
ATOM      8  C   UNL     1      -0.157  -0.042   0.457  0.00  0.00    -0.050 A 
ATOM      9  C   UNL     1      -0.110  -0.599  -0.807  0.00  0.00    +0.003 A 
ATOM     10  C   UNL     1      -0.050  -1.972  -0.955  0.00  0.00    +0.002 A 
ATOM     11  C   UNL     1      -0.037  -2.788   0.161  0.00  0.00    -0.059 A 
ATOM     12  C   UNL     1      -0.083  -2.230   1.425  0.00  0.00    +0.002 A 
ATOM     13  C   UNL     1      -0.139  -0.857   1.573  0.00  0.00    +0.003 A 
ENDBRANCH   6  11
BRANCH   6  14
ATOM     14  N   UNL     1       0.924  -4.849   1.018  0.00  0.00    +0.385 N 
ATOM     15  C   UNL     1       2.253  -4.239   0.890  0.00  0.00    -0.078 C 
ATOM     16  C   UNL     1       3.167  -4.763   2.000  0.00  0.00    -0.019 C 
ATOM     17  C   UNL     1       3.289  -6.284   1.877  0.00  0.00    -0.004 C 
ATOM     18  C   UNL     1       1.890  -6.905   1.937  0.00  0.00    -0.019 C 
ATOM     19  C   UNL     1       1.023  -6.301   0.830  0.00  0.00    -0.078 C 
ATOM     20  H   UNL     1       0.553  -4.654   1.936  0.00  0.00    -0.081 HD
ENDBRANCH   6  14
ENDBRANCH   5   6
ENDBRANCH   1   5
BRANCH   2  21
ATOM     21  C   UNL     1      -4.452  -4.182  -1.997  0.00  0.00    +0.105 C 
BRANCH  21  22
ATOM     22  C   UNL     1      -5.883  -4.666  -1.754  0.00  0.00    +0.105 C 
BRANCH  22  23
ATOM     23  C   UNL     1      -6.779  -4.160  -2.855  0.00  0.00    +0.197 A 
ATOM     24  N   UNL     1      -7.032  -4.784  -3.971  0.00  0.00    -0.221 NA
ATOM     25  C   UNL     1      -7.868  -4.035  -4.707  0.00  0.00    +0.161 A 
ATOM     26  C   UNL     1      -8.132  -2.905  -4.003  0.00  0.00    +0.155 A 
ATOM     27  O   UNL     1      -7.447  -2.998  -2.842  0.00  0.00    -0.440 OA
BRANCH  26  28
ATOM     28  C   UNL     1      -9.005  -1.789  -4.423  0.00  0.00    +0.019 A 
ATOM     29  C   UNL     1      -9.177  -0.682  -3.591  0.00  0.00    +0.011 A 
ATOM     30  C   UNL     1      -9.994   0.356  -3.989  0.00  0.00    +0.001 A 
ATOM     31  C   UNL     1     -10.642   0.302  -5.210  0.00  0.00    +0.000 A 
ATOM     32  C   UNL     1     -10.475  -0.792  -6.040  0.00  0.00    +0.001 A 
ATOM     33  C   UNL     1      -9.657  -1.835  -5.657  0.00  0.00    +0.011 A 
ENDBRANCH  26  28
ENDBRANCH  22  23
ENDBRANCH  21  22
ENDBRANCH   2  21
TORSDOF 8
