REMARK  Name = ZINC57531059
REMARK  11 active torsions:
REMARK  status: ('A' for Active; 'I' for Inactive)
REMARK    1  A    between atoms: C_1  and  C_2
REMARK    2  A    between atoms: C_2  and  C_3
REMARK    3  A    between atoms: C_2  and  C_4
REMARK    4  A    between atoms: C_2  and  N_5
REMARK    5  A    between atoms: C_6  and  C_10
REMARK    6  A    between atoms: C_10  and  C_12
REMARK    7  A    between atoms: C_10  and  N_27
REMARK    8  A    between atoms: N_27  and  C_28
REMARK    9  A    between atoms: N_27  and  C_35
REMARK   10  A    between atoms: C_28  and  C_29
REMARK   11  A    between atoms: C_35  and  C_36
REMARK                            x       y       z     vdW  Elec       q    Type
REMARK                         _______ _______ _______ _____ _____    ______ ____
ROOT
ATOM      1  C   UNL     1       0.364  -2.777  -0.412  0.00  0.00    +0.163 C 
ENDROOT
BRANCH   1   2
ATOM      2  C   UNL     1      -0.948  -3.170  -1.041  0.00  0.00    +0.042 A 
ATOM      3  C   UNL     1      -1.848  -2.212  -1.381  0.00  0.00    +0.021 A 
ATOM      4  C   UNL     1      -3.112  -2.625  -1.989  0.00  0.00    +0.003 A 
ATOM      5  C   UNL     1      -4.078  -1.681  -2.359  0.00  0.00    +0.059 A 
ATOM      6  C   UNL     1      -5.260  -2.100  -2.929  0.00  0.00    +0.167 A 
ATOM      7  C   UNL     1      -5.497  -3.464  -3.140  0.00  0.00    +0.168 A 
ATOM      8  C   UNL     1      -4.548  -4.403  -2.778  0.00  0.00    +0.075 A 
ATOM      9  C   UNL     1      -3.352  -3.997  -2.202  0.00  0.00    +0.053 A 
ATOM     10  N   UNL     1      -2.394  -4.920  -1.834  0.00  0.00    -0.322 N 
ATOM     11  H   UNL     1      -2.559  -5.865  -1.981  0.00  0.00    +0.169 HD
ATOM     12  C   UNL     1      -1.233  -4.529  -1.279  0.00  0.00    +0.254 A 
ATOM     13  O   UNL     1      -0.409  -5.373  -0.970  0.00  0.00    -0.268 OA
ATOM     14  O   UNL     1      -6.727  -3.606  -3.712  0.00  0.00    -0.453 OA
ATOM     15  C   UNL     1      -7.410  -2.361  -3.472  0.00  0.00    +0.466 C 
ATOM     16  O   UNL     1      -6.345  -1.398  -3.370  0.00  0.00    -0.453 OA
ENDBRANCH   1   2
BRANCH   1  18
ATOM     17  N   UNL     1       0.646  -0.461   0.617  0.00  0.00    -0.222 N 
ATOM     18  C   UNL     1       0.508  -1.278  -0.444  0.00  0.00    +0.174 A 
ATOM     19  N   UNL     1       0.523  -0.515  -1.510  0.00  0.00    -0.111 NA
ATOM     20  N   UNL     1       0.663   0.706  -1.125  0.00  0.00    -0.023 NA
ATOM     21  N   UNL     1       0.733   0.743   0.160  0.00  0.00    -0.043 NA
BRANCH  17  23
ATOM     22  C   UNL     1       0.842   0.379   2.905  0.00  0.00    +0.036 C 
ATOM     23  C   UNL     1       0.685  -0.863   2.025  0.00  0.00    +0.059 C 
ATOM     24  C   UNL     1       1.869  -1.804   2.254  0.00  0.00    +0.036 C 
ATOM     25  C   UNL     1      -0.616  -1.582   2.386  0.00  0.00    +0.036 C 
ENDBRANCH  17  23
ENDBRANCH   1  18
BRANCH   1  26
ATOM     26  N   UNL     1       1.469  -3.391  -1.161  0.00  0.00    -0.277 NA
BRANCH  26  27
ATOM     27  C   UNL     1       2.728  -3.301  -0.410  0.00  0.00    +0.122 C 
BRANCH  27  28
ATOM     28  C   UNL     1       3.790  -4.111  -1.109  0.00  0.00    -0.015 A 
ATOM     29  C   UNL     1       3.889  -5.476  -0.890  0.00  0.00    +0.008 A 
ATOM     30  C   UNL     1       4.881  -6.181  -1.556  0.00  0.00    +0.020 A 
ATOM     31  C   UNL     1       5.731  -5.503  -2.409  0.00  0.00    +0.111 A 
ATOM     32  N   UNL     1       5.607  -4.203  -2.592  0.00  0.00    -0.263 NA
ATOM     33  C   UNL     1       4.672  -3.502  -1.981  0.00  0.00    +0.115 A 
ENDBRANCH  27  28
ENDBRANCH  26  27
BRANCH  26  34
ATOM     34  C   UNL     1       1.605  -2.783  -2.491  0.00  0.00    +0.160 C 
BRANCH  34  35
ATOM     35  C   UNL     1       0.551  -3.345  -3.411  0.00  0.00    +0.119 A 
ATOM     36  C   UNL     1      -0.615  -2.753  -3.724  0.00  0.00    +0.046 A 
ATOM     37  C   UNL     1      -1.291  -3.624  -4.610  0.00  0.00    +0.041 A 
ATOM     38  C   UNL     1      -0.496  -4.695  -4.785  0.00  0.00    +0.195 A 
ATOM     39  O   UNL     1       0.621  -4.518  -4.061  0.00  0.00    -0.467 OA
ENDBRANCH  34  35
ENDBRANCH  26  34
ENDBRANCH   1  26
TORSDOF 8
