REMARK  Name = ZINC12619182
REMARK  5 active torsions:
REMARK  status: ('A' for Active; 'I' for Inactive)
REMARK    1  A    between atoms: C_1  and  C_2
REMARK    2  A    between atoms: C_3  and  C_18
REMARK    3  A    between atoms: C_4  and  C_10
REMARK    4  A    between atoms: N_20  and  C_21
REMARK    5  A    between atoms: C_26  and  C_27
REMARK                            x       y       z     vdW  Elec       q    Type
REMARK                         _______ _______ _______ _____ _____    ______ ____
ROOT
ATOM      1  C   UNL     1       0.006   4.987   0.742  0.00  0.00    +0.061 C 
ATOM      2  C   UNL     1      -0.131   3.539   0.346  0.00  0.00    +0.019 C 
ATOM      3  C   UNL     1      -1.329   3.074  -0.066  0.00  0.00    +0.056 C 
ATOM      4  C   UNL     1      -1.422   1.614  -0.459  0.00  0.00    +0.143 C 
ATOM      5  N   UNL     1      -0.190   0.814  -0.349  0.00  0.00    -0.288 N 
ATOM      6  C   UNL     1       0.934   1.421   0.080  0.00  0.00    +0.304 C 
ATOM      7  O   UNL     1       1.956   0.770   0.169  0.00  0.00    -0.252 OA
ATOM      8  N   UNL     1       0.960   2.718   0.410  0.00  0.00    -0.273 N 
ATOM      9  H   UNL     1      -0.187  -0.128  -0.584  0.00  0.00    +0.151 HD
ATOM     10  H   UNL     1       1.801   3.097   0.712  0.00  0.00    +0.156 HD
ENDROOT
BRANCH   4  11
ATOM     11  C   UNL     1      -2.473   0.969   0.407  0.00  0.00    -0.004 A 
ATOM     12  C   UNL     1      -2.101   0.266   1.538  0.00  0.00    +0.008 A 
ATOM     13  C   UNL     1      -3.065  -0.321   2.336  0.00  0.00    +0.020 A 
ATOM     14  C   UNL     1      -4.402  -0.214   1.997  0.00  0.00    +0.042 A 
ATOM     15  C   UNL     1      -4.775   0.484   0.863  0.00  0.00    +0.040 A 
ATOM     16  C   UNL     1      -3.810   1.076   0.068  0.00  0.00    +0.048 A 
ATOM     17 CL   UNL     1      -4.276   1.952  -1.356  0.00  0.00    -0.083 Cl
ATOM     18 CL   UNL     1      -5.613  -0.957   2.996  0.00  0.00    -0.083 Cl
ENDBRANCH   4  11
BRANCH   3  19
ATOM     19  C   UNL     1      -2.460   3.924  -0.133  0.00  0.00    +0.248 C 
ATOM     20  O   UNL     1      -3.291   3.903   0.757  0.00  0.00    -0.270 OA
ATOM     21  N   UNL     1      -2.617   4.755  -1.182  0.00  0.00    -0.281 N 
ATOM     22  H   UNL     1      -1.997   4.719  -1.927  0.00  0.00    +0.155 HD
BRANCH  21  23
ATOM     23  C   UNL     1      -3.675   5.670  -1.198  0.00  0.00    +0.045 A 
ATOM     24  C   UNL     1      -4.309   6.021  -0.012  0.00  0.00    +0.024 A 
ATOM     25  C   UNL     1      -5.352   6.925  -0.031  0.00  0.00    +0.002 A 
ATOM     26  C   UNL     1      -5.767   7.480  -1.228  0.00  0.00    +0.001 A 
ATOM     27  C   UNL     1      -5.139   7.133  -2.409  0.00  0.00    +0.014 A 
ATOM     28  C   UNL     1      -4.090   6.233  -2.397  0.00  0.00    +0.076 A 
BRANCH  28  29
ATOM     29  C   UNL     1      -3.402   5.859  -3.684  0.00  0.00    +0.419 C 
ATOM     30  F   UNL     1      -4.061   6.467  -4.759  0.00  0.00    -0.166 F 
ATOM     31  F   UNL     1      -2.073   6.293  -3.646  0.00  0.00    -0.166 F 
ATOM     32  F   UNL     1      -3.435   4.470  -3.844  0.00  0.00    -0.166 F 
ENDBRANCH  28  29
ENDBRANCH  21  23
ENDBRANCH   3  19
TORSDOF 4
