REMARK  Name = ZINC33033770
REMARK  10 active torsions:
REMARK  status: ('A' for Active; 'I' for Inactive)
REMARK    1  A    between atoms: C_1  and  C_2
REMARK    2  A    between atoms: C_5  and  C_30
REMARK    3  A    between atoms: C_6  and  S_8
REMARK    4  A    between atoms: S_8  and  N_11
REMARK    5  A    between atoms: N_11  and  C_12
REMARK    6  A    between atoms: C_14  and  C_24
REMARK    7  A    between atoms: C_17  and  N_18
REMARK    8  A    between atoms: N_26  and  C_27
REMARK    9  A    between atoms: C_27  and  C_28
REMARK   10  A    between atoms: C_27  and  C_29
REMARK                            x       y       z     vdW  Elec       q    Type
REMARK                         _______ _______ _______ _____ _____    ______ ____
ROOT
ATOM      1  C   UNL     1      -4.582   0.960  -0.281  0.00  0.00    +0.070 A 
ATOM      2  C   UNL     1      -3.331   1.545  -0.346  0.00  0.00    +0.039 A 
ATOM      3  C   UNL     1      -2.188   0.740  -0.387  0.00  0.00    +0.039 A 
ATOM      4  C   UNL     1      -2.315  -0.651  -0.368  0.00  0.00    +0.015 A 
ATOM      5  C   UNL     1      -3.563  -1.230  -0.297  0.00  0.00    +0.026 A 
ATOM      6  C   UNL     1      -4.701  -0.432  -0.257  0.00  0.00    +0.052 A 
ENDROOT
BRANCH   6   7
ATOM      7  N   UNL     1      -5.962  -1.022  -0.191  0.00  0.00    -0.332 N 
ATOM      8  C   UNL     1      -6.191  -1.905  -1.343  0.00  0.00    +0.086 C 
ATOM      9  C   UNL     1      -7.612  -2.469  -1.275  0.00  0.00    -0.063 C 
ATOM     10  N   UNL     1      -7.787  -3.199  -0.012  0.00  0.00    +0.381 N 
ATOM     11  C   UNL     1      -7.558  -2.316   1.140  0.00  0.00    -0.063 C 
ATOM     12  C   UNL     1      -6.136  -1.752   1.072  0.00  0.00    +0.086 C 
ATOM     13  H   UNL     1      -8.812  -3.595   0.044  0.00  0.00    -0.086 HD
ATOM     14  H   UNL     1      -7.069  -4.032   0.032  0.00  0.00    -0.086 HD
ENDBRANCH   6   7
BRANCH   3  15
ATOM     15  C   UNL     1      -0.851   1.359  -0.456  0.00  0.00    +0.244 C 
ATOM     16  O   UNL     1      -0.743   2.570  -0.477  0.00  0.00    -0.270 OA
ATOM     17  N   UNL     1       0.250   0.583  -0.495  0.00  0.00    -0.309 N 
ATOM     18  H   UNL     1       0.151  -0.512  -0.471  0.00  0.00    +0.149 HD
BRANCH  17  19
ATOM     19  C   UNL     1       1.577   1.198  -0.570  0.00  0.00    +0.067 C 
ATOM     20  C   UNL     1       2.619   0.234   0.001  0.00  0.00    +0.027 C 
ATOM     21  C   UNL     1       1.915   1.507  -2.030  0.00  0.00    +0.027 C 
ENDBRANCH  17  19
ENDBRANCH   3  15
BRANCH   1  22
ATOM     22  N   UNL     1      -5.729   1.762  -0.240  0.00  0.00    -0.214 N 
ATOM     23  H   UNL     1      -6.598   1.449   0.358  0.00  0.00    +0.174 HD
BRANCH  22  24
ATOM     24  S   UNL     1      -5.778   3.182  -1.091  0.00  0.00    +0.073 S 
ATOM     25  O   UNL     1      -7.102   3.683  -0.969  0.00  0.00    -0.150 OA
ATOM     26  O   UNL     1      -4.639   3.933  -0.693  0.00  0.00    -0.150 OA
BRANCH  24  32
ATOM     27  C   UNL     1      -2.992   3.356  -5.510  0.00  0.00    +0.044 C 
ATOM     28  C   UNL     1      -4.229   2.890  -4.787  0.00  0.00    -0.049 A 
ATOM     29  C   UNL     1      -5.184   2.147  -5.457  0.00  0.00    +0.004 A 
ATOM     30  C   UNL     1      -6.319   1.720  -4.794  0.00  0.00    +0.005 A 
ATOM     31  C   UNL     1      -6.500   2.036  -3.461  0.00  0.00    -0.024 A 
ATOM     32  C   UNL     1      -5.546   2.779  -2.790  0.00  0.00    +0.112 A 
ATOM     33  C   UNL     1      -4.413   3.210  -3.455  0.00  0.00    +0.032 A 
ATOM     34  C   UNL     1      -7.738   1.571  -2.738  0.00  0.00    +0.046 C 
ENDBRANCH  24  32
ENDBRANCH  22  24
ENDBRANCH   1  22
TORSDOF 6
