REMARK  Name = ZINC16661843
REMARK  5 active torsions:
REMARK  status: ('A' for Active; 'I' for Inactive)
REMARK    1  A    between atoms: C_1  and  C_2
REMARK    2  A    between atoms: C_5  and  N_8
REMARK    3  A    between atoms: C_14  and  C_15
REMARK    4  A    between atoms: C_20  and  O_21
REMARK    5  A    between atoms: O_21  and  C_22
REMARK                            x       y       z     vdW  Elec       q    Type
REMARK                         _______ _______ _______ _____ _____    ______ ____
ROOT
ATOM      1  N   UNL     1       0.943  -4.175  -0.752  0.00  0.00    -0.226 NA
ATOM      2  C   UNL     1       1.593  -4.815   0.194  0.00  0.00    +0.166 C 
ATOM      3  N   UNL     1       1.894  -6.157   0.270  0.00  0.00    -0.260 N 
ATOM      4  C   UNL     1       2.563  -6.641   1.303  0.00  0.00    +0.256 C 
ATOM      5  O   UNL     1       2.838  -7.824   1.385  0.00  0.00    -0.269 OA
ATOM      6  C   UNL     1       2.962  -5.682   2.350  0.00  0.00    +0.078 C 
ATOM      7  C   UNL     1       3.647  -5.900   3.502  0.00  0.00    +0.032 C 
ATOM      8  S   UNL     1       2.309  -4.155   1.691  0.00  0.00    -0.049 S 
ATOM      9  H   UNL     1       1.612  -6.754  -0.442  0.00  0.00    +0.157 HD
ENDROOT
BRANCH   1  14
ATOM     10  C   UNL     1       0.123   1.395  -0.344  0.00  0.00    +0.044 C 
ATOM     11  C   UNL     1       0.342  -0.092  -0.453  0.00  0.00    -0.050 A 
ATOM     12  C   UNL     1       0.759  -0.641  -1.653  0.00  0.00    +0.005 A 
ATOM     13  C   UNL     1       0.961  -2.001  -1.760  0.00  0.00    +0.028 A 
ATOM     14  C   UNL     1       0.744  -2.825  -0.653  0.00  0.00    +0.067 A 
ATOM     15  C   UNL     1       0.324  -2.264   0.555  0.00  0.00    +0.028 A 
ATOM     16  C   UNL     1       0.130  -0.902   0.649  0.00  0.00    +0.005 A 
ENDBRANCH   1  14
BRANCH   7  17
ATOM     17  C   UNL     1       3.952  -7.271   3.926  0.00  0.00    +0.018 A 
ATOM     18  C   UNL     1       2.987  -8.278   3.803  0.00  0.00    +0.011 A 
ATOM     19  C   UNL     1       3.281  -9.563   4.203  0.00  0.00    +0.001 A 
ATOM     20  C   UNL     1       4.527  -9.864   4.728  0.00  0.00    +0.004 A 
ATOM     21  C   UNL     1       5.490  -8.881   4.856  0.00  0.00    +0.046 A 
ATOM     22  C   UNL     1       5.216  -7.584   4.453  0.00  0.00    +0.127 A 
BRANCH  22  23
ATOM     23  O   UNL     1       6.162  -6.618   4.574  0.00  0.00    -0.495 OA
ATOM     24  C   UNL     1       7.424  -7.011   5.118  0.00  0.00    +0.277 C 
ENDBRANCH  22  23
ENDBRANCH   7  17
TORSDOF 3
