REMARK  Name = ZINC63863144
REMARK  11 active torsions:
REMARK  status: ('A' for Active; 'I' for Inactive)
REMARK    1  A    between atoms: C_1  and  C_2
REMARK    2  A    between atoms: C_4  and  S_22
REMARK    3  A    between atoms: C_6  and  C_7
REMARK    4  A    between atoms: N_9  and  C_10
REMARK    5  A    between atoms: C_10  and  C_11
REMARK    6  A    between atoms: C_11  and  C_12
REMARK    7  A    between atoms: C_11  and  N_15
REMARK    8  A    between atoms: C_12  and  C_13
REMARK    9  A    between atoms: C_12  and  C_14
REMARK   10  A    between atoms: C_18  and  C_21
REMARK   11  A    between atoms: S_22  and  N_25
REMARK                            x       y       z     vdW  Elec       q    Type
REMARK                         _______ _______ _______ _____ _____    ______ ____
ROOT
ATOM      1  C   UNL     1       0.148  -0.354   2.525  0.00  0.00    +0.251 C 
ATOM      2  O   UNL     1      -0.297   0.767   2.685  0.00  0.00    -0.270 OA
ATOM      3  N   UNL     1       0.289  -1.181   3.579  0.00  0.00    -0.312 N 
ATOM      4  H   UNL     1       0.644  -2.075   3.451  0.00  0.00    +0.149 HD
ENDROOT
BRANCH   1  10
ATOM      5  C   UNL     1      -0.047   1.293  -0.112  0.00  0.00    +0.045 C 
ATOM      6  C   UNL     1       0.466  -0.121  -0.021  0.00  0.00    -0.029 A 
ATOM      7  C   UNL     1       0.906  -0.812  -1.124  0.00  0.00    +0.040 A 
ATOM      8  C   UNL     1       1.356  -2.082  -0.971  0.00  0.00    +0.143 A 
ATOM      9  S   UNL     1       1.197  -2.379   0.675  0.00  0.00    -0.064 S 
ATOM     10  C   UNL     1       0.530  -0.806   1.183  0.00  0.00    +0.079 A 
BRANCH   8  11
ATOM     11  S   UNL     1       1.968  -3.171  -2.214  0.00  0.00    +0.062 S 
ATOM     12  O   UNL     1       1.786  -4.492  -1.721  0.00  0.00    -0.153 OA
ATOM     13  O   UNL     1       1.411  -2.734  -3.446  0.00  0.00    -0.153 OA
BRANCH  11  14
ATOM     14  N   UNL     1       3.602  -2.926  -2.319  0.00  0.00    -0.203 NA
ATOM     15  H   UNL     1       4.032  -2.272  -1.746  0.00  0.00    +0.144 HD
ATOM     16  H   UNL     1       4.129  -3.436  -2.953  0.00  0.00    +0.144 HD
ENDBRANCH  11  14
ENDBRANCH   8  11
ENDBRANCH   1  10
BRANCH   3  17
ATOM     17  C   UNL     1      -0.093  -0.730   4.920  0.00  0.00    +0.089 C 
BRANCH  17  18
ATOM     18  C   UNL     1      -0.026  -1.909   5.893  0.00  0.00    -0.049 C 
BRANCH  18  19
ATOM     19  N   UNL     1      -1.133  -2.835   5.617  0.00  0.00    +0.383 N 
ATOM     20  C   UNL     1      -2.409  -2.124   5.754  0.00  0.00    -0.078 C 
ATOM     21  C   UNL     1      -3.567  -3.103   5.548  0.00  0.00    -0.016 C 
ATOM     22  C   UNL     1      -3.469  -3.713   4.147  0.00  0.00    -0.018 C 
ATOM     23  C   UNL     1      -2.103  -4.388   3.990  0.00  0.00    -0.016 C 
ATOM     24  C   UNL     1      -1.000  -3.362   4.254  0.00  0.00    -0.078 C 
ATOM     25  C   UNL     1      -4.577  -4.752   3.962  0.00  0.00    +0.007 C 
ATOM     26  H   UNL     1      -1.103  -3.598   6.277  0.00  0.00    -0.081 HD
ENDBRANCH  18  19
BRANCH  18  27
ATOM     27  C   UNL     1      -0.139  -1.392   7.329  0.00  0.00    -0.029 C 
ATOM     28  C   UNL     1      -0.067  -2.570   8.302  0.00  0.00    +0.005 C 
ATOM     29  C   UNL     1       1.010  -0.423   7.614  0.00  0.00    +0.005 C 
ENDBRANCH  18  27
ENDBRANCH  17  18
ENDBRANCH   3  17
TORSDOF 7
