REMARK  Name = ZINC02951958
REMARK  12 active torsions:
REMARK  status: ('A' for Active; 'I' for Inactive)
REMARK    1  A    between atoms: C_1  and  C_2
REMARK    2  A    between atoms: C_2  and  O_3
REMARK    3  A    between atoms: O_3  and  C_4
REMARK    4  A    between atoms: N_6  and  C_8
REMARK    5  A    between atoms: C_8  and  C_10
REMARK    6  A    between atoms: C_8  and  N_14
REMARK    7  A    between atoms: N_14  and  C_15
REMARK    8  A    between atoms: C_15  and  N_17
REMARK    9  A    between atoms: N_17  and  C_18
REMARK   10  A    between atoms: C_19  and  C_31
REMARK   11  A    between atoms: N_20  and  C_30
REMARK   12  A    between atoms: N_21  and  C_24
REMARK                            x       y       z     vdW  Elec       q    Type
REMARK                         _______ _______ _______ _____ _____    ______ ____
ROOT
ATOM      1  C   UNL     1      -1.291   1.348  -0.119  0.00  0.00    +0.136 C 
ATOM      2  S   UNL     1      -1.229   2.754   0.857  0.00  0.00    -0.019 S 
ENDROOT
BRANCH   1   3
ATOM      3  N   UNL     1      -0.156   0.692  -0.428  0.00  0.00    -0.305 N 
ATOM      4  H   UNL     1      -0.191  -0.105  -0.981  0.00  0.00    +0.150 HD
BRANCH   3   5
ATOM      5  C   UNL     1       1.133   1.184   0.066  0.00  0.00    +0.214 C 
BRANCH   5   8
ATOM      6  C   UNL     1       1.523   0.756   2.433  0.00  0.00    +0.402 C 
ATOM      7  O   UNL     1       1.071   1.858   2.676  0.00  0.00    -0.226 OA
ATOM      8  N   UNL     1       1.597   0.325   1.158  0.00  0.00    -0.259 N 
ATOM      9  H   UNL     1       1.958  -0.554   0.964  0.00  0.00    +0.154 HD
BRANCH   6  10
ATOM     10  O   UNL     1       1.950  -0.033   3.437  0.00  0.00    -0.451 OA
BRANCH  10  12
ATOM     11  C   UNL     1       2.371  -0.534   5.782  0.00  0.00    +0.048 C 
ATOM     12  C   UNL     1       1.840   0.497   4.784  0.00  0.00    +0.230 C 
ENDBRANCH  10  12
ENDBRANCH   6  10
ENDBRANCH   5   8
BRANCH   5  13
ATOM     13  C   UNL     1       2.156   1.162  -1.071  0.00  0.00    +0.225 C 
ATOM     14 CL   UNL     1       1.585   2.219  -2.415  0.00  0.00    -0.080 Cl
ATOM     15 CL   UNL     1       3.742   1.768  -0.463  0.00  0.00    -0.080 Cl
ATOM     16 CL   UNL     1       2.349  -0.526  -1.674  0.00  0.00    -0.080 Cl
ENDBRANCH   5  13
ENDBRANCH   3   5
ENDBRANCH   1   3
BRANCH   1  17
ATOM     17  N   UNL     1      -2.476   0.899  -0.578  0.00  0.00    -0.291 N 
ATOM     18  H   UNL     1      -2.506   0.143  -1.185  0.00  0.00    +0.154 HD
BRANCH  17  19
ATOM     19  C   UNL     1      -3.672   1.527  -0.175  0.00  0.00    +0.120 A 
ATOM     20  C   UNL     1      -4.714   0.930   0.444  0.00  0.00    +0.059 A 
ATOM     21  N   UNL     1      -5.681   1.876   0.671  0.00  0.00    -0.282 N 
ATOM     22  N   UNL     1      -5.224   3.099   0.164  0.00  0.00    -0.216 N 
ATOM     23  C   UNL     1      -3.996   2.897  -0.355  0.00  0.00    +0.293 A 
ATOM     24  O   UNL     1      -3.292   3.738  -0.884  0.00  0.00    -0.264 OA
ATOM     25  C   UNL     1      -6.972   1.645   1.324  0.00  0.00    +0.171 C 
ATOM     26  C   UNL     1      -4.796  -0.526   0.825  0.00  0.00    +0.067 C 
BRANCH  22  27
ATOM     27  C   UNL     1      -5.917   4.313   0.192  0.00  0.00    +0.067 A 
ATOM     28  C   UNL     1      -7.235   4.372  -0.244  0.00  0.00    +0.028 A 
ATOM     29  C   UNL     1      -7.918   5.572  -0.210  0.00  0.00    +0.002 A 
ATOM     30  C   UNL     1      -7.289   6.716   0.246  0.00  0.00    +0.000 A 
ATOM     31  C   UNL     1      -5.975   6.661   0.675  0.00  0.00    +0.002 A 
ATOM     32  C   UNL     1      -5.288   5.464   0.650  0.00  0.00    +0.028 A 
ENDBRANCH  22  27
ENDBRANCH  17  19
ENDBRANCH   1  17
TORSDOF 9
