REMARK  Name = ZINC25760079
REMARK  12 active torsions:
REMARK  status: ('A' for Active; 'I' for Inactive)
REMARK    1  A    between atoms: C_1  and  C_2
REMARK    2  A    between atoms: C_2  and  C_3
REMARK    3  A    between atoms: C_2  and  C_4
REMARK    4  A    between atoms: C_2  and  C_5
REMARK    5  A    between atoms: C_7  and  C_16
REMARK    6  A    between atoms: C_8  and  O_15
REMARK    7  A    between atoms: C_9  and  C_11
REMARK    8  A    between atoms: C_11  and  C_12
REMARK    9  A    between atoms: C_11  and  C_13
REMARK   10  A    between atoms: C_11  and  C_14
REMARK   11  A    between atoms: N_17  and  C_18
REMARK   12  A    between atoms: C_27  and  O_29
REMARK                            x       y       z     vdW  Elec       q    Type
REMARK                         _______ _______ _______ _____ _____    ______ ____
ROOT
ATOM      1  C   UNL     1       0.809  -0.721  -1.116  0.00  0.00    -0.041 A 
ATOM      2  C   UNL     1       0.127  -1.490  -2.035  0.00  0.00    +0.017 A 
ATOM      3  C   UNL     1       0.699  -1.758  -3.280  0.00  0.00    +0.033 A 
ATOM      4  C   UNL     1       1.966  -1.242  -3.587  0.00  0.00    +0.129 A 
ATOM      5  C   UNL     1       2.638  -0.470  -2.651  0.00  0.00    +0.000 A 
ATOM      6  C   UNL     1       2.058  -0.208  -1.425  0.00  0.00    +0.012 A 
ENDROOT
BRANCH   1   8
ATOM      7  C   UNL     1       0.025   1.080   0.398  0.00  0.00    +0.015 C 
ATOM      8  C   UNL     1       0.191  -0.432   0.227  0.00  0.00    -0.013 C 
ATOM      9  C   UNL     1       1.099  -0.973   1.334  0.00  0.00    +0.015 C 
ATOM     10  C   UNL     1      -1.178  -1.108   0.315  0.00  0.00    +0.015 C 
ENDBRANCH   1   8
BRANCH   5  11
ATOM     11  C   UNL     1       4.000   0.087  -2.975  0.00  0.00    -0.009 C 
ATOM     12  C   UNL     1       4.516   0.895  -1.782  0.00  0.00    +0.015 C 
ATOM     13  C   UNL     1       4.965  -1.063  -3.269  0.00  0.00    +0.015 C 
ATOM     14  C   UNL     1       3.901   0.996  -4.202  0.00  0.00    +0.015 C 
ENDBRANCH   5  11
BRANCH   3  15
ATOM     15  C   UNL     1      -0.025  -2.580  -4.267  0.00  0.00    +0.090 C 
ATOM     16  N   UNL     1       0.550  -2.915  -5.376  0.00  0.00    -0.381 N 
ATOM     17  H   UNL     1       1.475  -2.671  -5.537  0.00  0.00    +0.160 HD
BRANCH  16  18
ATOM     18  C   UNL     1      -0.195  -3.665  -6.391  0.00  0.00    +0.138 C 
ATOM     19  C   UNL     1       0.515  -4.962  -6.713  0.00  0.00    -0.020 A 
ATOM     20  C   UNL     1       0.557  -6.159  -6.017  0.00  0.00    +0.006 A 
ATOM     21  C   UNL     1       1.283  -7.225  -6.511  0.00  0.00    +0.000 A 
ATOM     22  C   UNL     1       1.971  -7.098  -7.703  0.00  0.00    +0.000 A 
ATOM     23  C   UNL     1       1.931  -5.905  -8.399  0.00  0.00    +0.004 A 
ATOM     24  C   UNL     1       1.203  -4.835  -7.905  0.00  0.00    -0.040 A 
ATOM     25  C   UNL     1       1.002  -3.443  -8.466  0.00  0.00    +0.069 C 
ATOM     26  C   UNL     1      -0.229  -2.880  -7.719  0.00  0.00    +0.145 C 
BRANCH  26  27
ATOM     27  O   UNL     1      -0.085  -1.478  -7.484  0.00  0.00    -0.389 OA
ATOM     28  H   UNL     1      -0.100  -0.941  -8.289  0.00  0.00    +0.210 HD
ENDBRANCH  26  27
ENDBRANCH  16  18
ENDBRANCH   3  15
BRANCH   4  29
ATOM     29  O   UNL     1       2.532  -1.496  -4.794  0.00  0.00    -0.506 OA
ATOM     30  H   UNL     1       2.319  -0.842  -5.473  0.00  0.00    +0.292 HD
ENDBRANCH   4  29
TORSDOF 6
