REMARK  Name = ZINC39665151
REMARK  7 active torsions:
REMARK  status: ('A' for Active; 'I' for Inactive)
REMARK    1  A    between atoms: C_1  and  C_2
REMARK    2  A    between atoms: C_2  and  C_4
REMARK    3  A    between atoms: C_2  and  O_28
REMARK    4  A    between atoms: C_4  and  N_5
REMARK    5  A    between atoms: C_6  and  C_8
REMARK    6  A    between atoms: C_19  and  C_21
REMARK    7  A    between atoms: O_28  and  C_29
REMARK                            x       y       z     vdW  Elec       q    Type
REMARK                         _______ _______ _______ _____ _____    ______ ____
ROOT
ATOM      1  C   UNL     1      -0.899  -4.907   1.341  0.00  0.00    +0.100 C 
ATOM      2  C   UNL     1      -0.207  -5.069   2.714  0.00  0.00    +0.121 C 
ATOM      3  N   UNL     1      -1.238  -5.684   3.582  0.00  0.00    -0.296 N 
ATOM      4  C   UNL     1      -1.922  -6.665   2.705  0.00  0.00    +0.115 C 
ATOM      5  C   UNL     1      -2.021  -5.958   1.338  0.00  0.00    -0.004 C 
ATOM      6  C   UNL     1      -3.380  -5.279   1.194  0.00  0.00    -0.010 C 
ATOM      7  C   UNL     1      -4.475  -6.348   1.136  0.00  0.00    -0.082 C 
ATOM      8  N   UNL     1      -4.229  -7.242  -0.002  0.00  0.00    +0.379 N 
ATOM      9  C   UNL     1      -2.963  -7.960   0.190  0.00  0.00    -0.082 C 
ATOM     10  C   UNL     1      -1.804  -6.960   0.208  0.00  0.00    -0.010 C 
ATOM     11  C   UNL     1      -1.496  -5.414   4.877  0.00  0.00    +0.247 C 
ATOM     12  O   UNL     1      -0.918  -4.502   5.434  0.00  0.00    -0.270 OA
ATOM     13  H   UNL     1      -4.984  -7.908  -0.074  0.00  0.00    -0.086 HD
ATOM     14  H   UNL     1      -4.181  -6.699  -0.850  0.00  0.00    -0.086 HD
ENDROOT
BRANCH  11  15
ATOM     15  C   UNL     1      -2.482  -6.228   5.620  0.00  0.00    +0.038 A 
ATOM     16  C   UNL     1      -2.811  -7.509   5.174  0.00  0.00    +0.013 A 
ATOM     17  C   UNL     1      -3.732  -8.264   5.871  0.00  0.00    +0.002 A 
ATOM     18  C   UNL     1      -4.328  -7.754   7.011  0.00  0.00    +0.020 A 
ATOM     19  C   UNL     1      -4.005  -6.485   7.459  0.00  0.00    +0.042 A 
ATOM     20  C   UNL     1      -3.082  -5.721   6.773  0.00  0.00    +0.033 A 
ATOM     21 CL   UNL     1      -4.759  -5.854   8.891  0.00  0.00    -0.084 Cl
ENDBRANCH  11  15
BRANCH   1  23
ATOM     22  N   UNL     1      -1.605  -2.961  -0.013  0.00  0.00    -0.312 N 
ATOM     23  C   UNL     1      -1.477  -3.521   1.206  0.00  0.00    +0.218 C 
ATOM     24  O   UNL     1      -1.826  -2.910   2.193  0.00  0.00    -0.275 OA
ATOM     25  H   UNL     1      -1.326  -3.450  -0.804  0.00  0.00    +0.149 HD
BRANCH  22  26
ATOM     26  C   UNL     1      -2.167  -1.615  -0.145  0.00  0.00    +0.148 C 
BRANCH  26  28
ATOM     27  C   UNL     1      -2.790   0.187  -1.761  0.00  0.00    +0.053 C 
ATOM     28  C   UNL     1      -2.203  -1.220  -1.623  0.00  0.00    +0.187 C 
BRANCH  28  29
ATOM     29  O   UNL     1      -0.875  -1.236  -2.152  0.00  0.00    -0.488 OA
BRANCH  29  30
ATOM     30  C   UNL     1      -0.748  -1.431  -3.491  0.00  0.00    +0.121 A 
ATOM     31  C   UNL     1       0.511  -1.579  -4.055  0.00  0.00    +0.045 A 
ATOM     32  C   UNL     1       0.639  -1.778  -5.416  0.00  0.00    +0.004 A 
ATOM     33  C   UNL     1      -0.487  -1.828  -6.217  0.00  0.00    +0.000 A 
ATOM     34  C   UNL     1      -1.743  -1.680  -5.658  0.00  0.00    +0.004 A 
ATOM     35  C   UNL     1      -1.876  -1.488  -4.296  0.00  0.00    +0.045 A 
ENDBRANCH  29  30
ENDBRANCH  28  29
ENDBRANCH  26  28
ENDBRANCH  22  26
ENDBRANCH   1  23
TORSDOF 6
