REMARK  Name = ZINC08772933
REMARK  14 active torsions:
REMARK  status: ('A' for Active; 'I' for Inactive)
REMARK    1  A    between atoms: C_1  and  C_2
REMARK    2  A    between atoms: C_4  and  C_32
REMARK    3  A    between atoms: C_7  and  C_30
REMARK    4  A    between atoms: N_11  and  C_12
REMARK    5  A    between atoms: C_12  and  C_13
REMARK    6  A    between atoms: C_13  and  C_14
REMARK    7  A    between atoms: C_14  and  N_15
REMARK    8  A    between atoms: C_16  and  C_18
REMARK    9  A    between atoms: C_20  and  O_28
REMARK   10  A    between atoms: C_21  and  O_26
REMARK   11  A    between atoms: C_22  and  O_24
REMARK   12  A    between atoms: O_24  and  C_25
REMARK   13  A    between atoms: O_26  and  C_27
REMARK   14  A    between atoms: O_28  and  C_29
REMARK                            x       y       z     vdW  Elec       q    Type
REMARK                         _______ _______ _______ _____ _____    ______ ____
ROOT
ATOM      1  C   UNL     1      -4.665  -0.483   0.045  0.00  0.00    +0.104 C 
ENDROOT
BRANCH   1  12
ATOM      2  C   UNL     1       2.466   1.028  -0.015  0.00  0.00    +0.044 C 
ATOM      3  C   UNL     1       1.156   1.774   0.001  0.00  0.00    -0.048 A 
ATOM      4  C   UNL     1       1.161   3.167   0.007  0.00  0.00    +0.007 A 
ATOM      5  C   UNL     1      -0.006   3.869   0.022  0.00  0.00    -0.041 A 
ATOM      6  C   UNL     1      -1.231   3.181   0.030  0.00  0.00    +0.003 A 
ATOM      7  C   UNL     1      -2.454   3.875   0.045  0.00  0.00    +0.032 A 
ATOM      8  C   UNL     1      -3.627   3.133   0.053  0.00  0.00    +0.090 A 
ATOM      9  C   UNL     1      -3.554   1.720   0.045  0.00  0.00    +0.114 A 
ATOM     10  C   UNL     1      -1.238   1.764   0.018  0.00  0.00    +0.048 A 
ATOM     11  C   UNL     1      -0.013   1.076   0.008  0.00  0.00    +0.029 A 
ATOM     12  N   UNL     1      -4.724   0.981   0.053  0.00  0.00    -0.329 N 
ATOM     13  C   UNL     1       0.017   5.376   0.029  0.00  0.00    +0.044 C 
ATOM     14  H   UNL     1      -5.582   1.432   0.063  0.00  0.00    +0.147 HD
ATOM     15  N   UNL     1      -2.397   1.015   0.030  0.00  0.00    -0.342 N 
ATOM     16  H   UNL     1      -2.383  -0.011   0.028  0.00  0.00    +0.167 HD
BRANCH   8  17
ATOM     17  C   UNL     1      -4.898   3.792   0.068  0.00  0.00    +0.103 C 
ATOM     18  N   UNL     1      -5.907   4.314   0.081  0.00  0.00    -0.191 NA
ENDBRANCH   8  17
ENDBRANCH   1  12
BRANCH   1  19
ATOM     19  C   UNL     1      -6.087  -1.050   0.056  0.00  0.00    +0.037 C 
BRANCH  19  20
ATOM     20  C   UNL     1      -6.026  -2.578   0.047  0.00  0.00    +0.106 C 
BRANCH  20  21
ATOM     21  N   UNL     1      -7.386  -3.121   0.057  0.00  0.00    -0.311 N 
ATOM     22  C   UNL     1      -7.580  -4.455   0.052  0.00  0.00    +0.244 C 
ATOM     23  O   UNL     1      -6.625  -5.208   0.039  0.00  0.00    -0.270 OA
ATOM     24  H   UNL     1      -8.148  -2.521   0.068  0.00  0.00    +0.149 HD
BRANCH  22  25
ATOM     25  C   UNL     1      -8.951  -5.002   0.063  0.00  0.00    +0.044 A 
ATOM     26  C   UNL     1     -10.049  -4.138   0.084  0.00  0.00    +0.062 A 
ATOM     27  C   UNL     1     -11.331  -4.653   0.089  0.00  0.00    +0.166 A 
ATOM     28  C   UNL     1     -11.530  -6.031   0.084  0.00  0.00    +0.204 A 
ATOM     29  C   UNL     1     -10.437  -6.894   0.068  0.00  0.00    +0.166 A 
ATOM     30  C   UNL     1      -9.152  -6.384   0.058  0.00  0.00    +0.062 A 
BRANCH  29  31
ATOM     31  O   UNL     1     -10.635  -8.240   0.063  0.00  0.00    -0.491 OA
ATOM     32  C   UNL     1      -9.469  -9.066   0.047  0.00  0.00    +0.277 C 
ENDBRANCH  29  31
BRANCH  28  33
ATOM     33  O   UNL     1     -12.792  -6.535   0.095  0.00  0.00    -0.488 OA
ATOM     34  C   UNL     1     -13.381  -6.782   1.373  0.00  0.00    +0.277 C 
ENDBRANCH  28  33
BRANCH  27  35
ATOM     35  O   UNL     1     -12.401  -3.813   0.104  0.00  0.00    -0.491 OA
ATOM     36  C   UNL     1     -12.124  -2.411   0.108  0.00  0.00    +0.277 C 
ENDBRANCH  27  35
ENDBRANCH  22  25
ENDBRANCH  20  21
ENDBRANCH  19  20
ENDBRANCH   1  19
TORSDOF 9
