REMARK  Name = ZINC63912701
REMARK  6 active torsions:
REMARK  status: ('A' for Active; 'I' for Inactive)
REMARK    1  A    between atoms: C_1  and  C_2
REMARK    2  A    between atoms: C_6  and  C_8
REMARK    3  A    between atoms: C_12  and  N_14
REMARK    4  A    between atoms: N_14  and  S_15
REMARK    5  A    between atoms: S_15  and  C_18
REMARK    6  A    between atoms: C_21  and  N_23
REMARK                            x       y       z     vdW  Elec       q    Type
REMARK                         _______ _______ _______ _____ _____    ______ ____
ROOT
ATOM      1  C   UNL     1      -3.706   2.628  -2.968  0.00  0.00    +0.021 A 
ATOM      2  C   UNL     1      -3.892   3.056  -4.283  0.00  0.00    +0.012 A 
ATOM      3  C   UNL     1      -5.152   3.406  -4.724  0.00  0.00    +0.003 A 
ATOM      4  C   UNL     1      -6.234   3.333  -3.866  0.00  0.00    +0.027 A 
ATOM      5  C   UNL     1      -6.059   2.908  -2.555  0.00  0.00    +0.075 A 
ATOM      6  C   UNL     1      -4.797   2.549  -2.105  0.00  0.00    +0.038 A 
ENDROOT
BRANCH   1  12
ATOM      7  C   UNL     1      -0.013   1.086   0.008  0.00  0.00    +0.090 C 
ATOM      8  C   UNL     1      -0.742   1.585  -1.213  0.00  0.00    +0.148 A 
ATOM      9  N   UNL     1      -0.191   1.846  -2.370  0.00  0.00    -0.157 NA
ATOM     10  H   UNL     1      -1.127   2.551  -4.151  0.00  0.00    +0.191 HD
ATOM     11  N   UNL     1      -1.217   2.283  -3.224  0.00  0.00    -0.259 N 
ATOM     12  C   UNL     1      -2.355   2.252  -2.494  0.00  0.00    +0.156 A 
ATOM     13  N   UNL     1      -2.048   1.825  -1.286  0.00  0.00    -0.212 NA
ENDBRANCH   1  12
BRANCH   5  14
ATOM     14  N   UNL     1      -7.155   2.836  -1.692  0.00  0.00    -0.097 NA
BRANCH  14  15
ATOM     15  S   UNL     1      -8.663   3.258  -2.231  0.00  0.00    +0.098 S 
ATOM     16  O   UNL     1      -8.620   4.652  -2.505  0.00  0.00    -0.148 OA
ATOM     17  O   UNL     1      -9.025   2.299  -3.215  0.00  0.00    -0.148 OA
BRANCH  15  18
ATOM     18  C   UNL     1      -9.777   3.043  -0.883  0.00  0.00    +0.150 A 
ATOM     19  C   UNL     1     -10.150   3.935   0.066  0.00  0.00    +0.039 A 
ATOM     20  C   UNL     1     -11.049   3.542   1.040  0.00  0.00    +0.042 A 
ATOM     21  C   UNL     1     -11.531   2.275   1.016  0.00  0.00    +0.165 A 
ATOM     22  S   UNL     1     -10.714   1.596  -0.419  0.00  0.00    -0.044 S 
BRANCH  21  23
ATOM     23  N   UNL     1     -12.491   1.625   1.937  0.00  0.00    +0.063 N 
ATOM     24  O   UNL     1     -12.954   2.247   2.865  0.00  0.00    -0.126 OA
ATOM     25  O   UNL     1     -12.812   0.473   1.761  0.00  0.00    -0.126 OA
ENDBRANCH  21  23
ENDBRANCH  15  18
ENDBRANCH  14  15
ENDBRANCH   5  14
TORSDOF 5
