REMARK  Name = ZINC20607575
REMARK  12 active torsions:
REMARK  status: ('A' for Active; 'I' for Inactive)
REMARK    1  A    between atoms: C_1  and  C_2
REMARK    2  A    between atoms: C_2  and  C_3
REMARK    3  A    between atoms: C_4  and  C_31
REMARK    4  A    between atoms: C_6  and  N_12
REMARK    5  A    between atoms: C_7  and  C_8
REMARK    6  A    between atoms: C_8  and  O_10
REMARK    7  A    between atoms: O_10  and  C_11
REMARK    8  A    between atoms: C_13  and  C_15
REMARK    9  A    between atoms: C_15  and  C_17
REMARK   10  A    between atoms: C_15  and  N_19
REMARK   11  A    between atoms: C_17  and  C_18
REMARK   12  A    between atoms: C_22  and  C_24
REMARK                            x       y       z     vdW  Elec       q    Type
REMARK                         _______ _______ _______ _____ _____    ______ ____
ROOT
ATOM      1  N   UNL     1      -0.589   1.851   1.268  0.00  0.00    -0.278 N 
ATOM      2  C   UNL     1      -1.139   1.548   0.075  0.00  0.00    +0.242 C 
ATOM      3  O   UNL     1      -0.603   1.912  -0.950  0.00  0.00    -0.273 OA
ATOM      4  H   UNL     1      -1.118   1.597   2.198  0.00  0.00    +0.155 HD
ENDROOT
BRANCH   1   8
ATOM      5  C   UNL     1       2.638   3.514   2.208  0.00  0.00    -0.022 A 
ATOM      6  C   UNL     1       3.008   3.687   0.927  0.00  0.00    -0.008 A 
ATOM      7  S   UNL     1       1.658   2.976   0.009  0.00  0.00    -0.078 S 
ATOM      8  C   UNL     1       0.643   2.482   1.322  0.00  0.00    +0.086 A 
ATOM      9  C   UNL     1       1.368   2.867   2.445  0.00  0.00    +0.091 A 
ATOM     10  C   UNL     1       4.267   4.323   0.396  0.00  0.00    +0.052 C 
BRANCH   5  12
ATOM     11  C   UNL     1       4.461   2.847   3.750  0.00  0.00    +0.009 C 
ATOM     12  C   UNL     1       3.509   3.975   3.347  0.00  0.00    +0.033 C 
ENDBRANCH   5  12
BRANCH   9  13
ATOM     13  C   UNL     1       0.869   2.630   3.801  0.00  0.00    +0.342 C 
ATOM     14  O   UNL     1       1.141   1.593   4.377  0.00  0.00    -0.245 OA
BRANCH  13  15
ATOM     15  O   UNL     1       0.106   3.560   4.412  0.00  0.00    -0.464 OA
ATOM     16  C   UNL     1      -0.354   3.257   5.755  0.00  0.00    +0.280 C 
ENDBRANCH  13  15
ENDBRANCH   9  13
ENDBRANCH   1   8
BRANCH   2  17
ATOM     17  C   UNL     1      -2.421   0.757   0.015  0.00  0.00    +0.193 C 
BRANCH  17  18
ATOM     18  N   UNL     1      -3.557   1.675  -0.087  0.00  0.00    -0.256 N 
ATOM     19  C   UNL     1      -4.579   1.778   0.792  0.00  0.00    +0.044 A 
ATOM     20  C   UNL     1      -5.417   2.736   0.340  0.00  0.00    +0.005 A 
ATOM     21  C   UNL     1      -4.890   3.239  -0.858  0.00  0.00    +0.169 A 
ATOM     22  N   UNL     1      -3.773   2.607  -1.110  0.00  0.00    -0.166 NA
ATOM     23  C   UNL     1      -6.588   2.898   1.286  0.00  0.00    +0.039 C 
ATOM     24  C   UNL     1      -6.139   2.216   2.597  0.00  0.00    +0.011 C 
ATOM     25  C   UNL     1      -5.098   1.195   2.089  0.00  0.00    +0.056 C 
BRANCH  21  26
ATOM     26  C   UNL     1      -5.501   4.325  -1.705  0.00  0.00    +0.436 C 
ATOM     27  F   UNL     1      -5.016   5.569  -1.289  0.00  0.00    -0.164 F 
ATOM     28  F   UNL     1      -5.162   4.116  -3.046  0.00  0.00    -0.164 F 
ATOM     29  F   UNL     1      -6.893   4.296  -1.567  0.00  0.00    -0.164 F 
ENDBRANCH  21  26
ENDBRANCH  17  18
BRANCH  17  30
ATOM     30  C   UNL     1      -2.396  -0.163  -1.207  0.00  0.00    +0.033 C 
ATOM     31  C   UNL     1      -1.297  -1.213  -1.034  0.00  0.00    +0.006 C 
ENDBRANCH  17  30
ENDBRANCH   2  17
TORSDOF 8
