REMARK  Name = ZINC50307446
REMARK  11 active torsions:
REMARK  status: ('A' for Active; 'I' for Inactive)
REMARK    1  A    between atoms: C_1  and  C_2
REMARK    2  A    between atoms: C_2  and  C_3
REMARK    3  A    between atoms: C_4  and  N_19
REMARK    4  A    between atoms: C_5  and  C_9
REMARK    5  A    between atoms: N_11  and  C_12
REMARK    6  A    between atoms: N_11  and  C_16
REMARK    7  A    between atoms: C_12  and  C_13
REMARK    8  A    between atoms: C_13  and  C_14
REMARK    9  A    between atoms: C_13  and  C_15
REMARK   10  A    between atoms: C_16  and  C_17
REMARK   11  A    between atoms: C_16  and  C_18
REMARK                            x       y       z     vdW  Elec       q    Type
REMARK                         _______ _______ _______ _____ _____    ______ ____
ROOT
ATOM      1  C   UNL     1       6.292  -0.877  -1.127  0.00  0.00    +0.057 A 
ATOM      2  C   UNL     1       4.947  -0.883  -1.325  0.00  0.00    +0.078 A 
ATOM      3  C   UNL     1       4.764  -1.326  -2.660  0.00  0.00    +0.168 A 
ATOM      4  N   UNL     1       5.963  -1.551  -3.161  0.00  0.00    -0.167 NA
ATOM      5  N   UNL     1       6.867  -1.290  -2.286  0.00  0.00    -0.279 N 
ATOM      6  H   UNL     1       7.822  -1.378  -2.431  0.00  0.00    +0.189 HD
ENDROOT
BRANCH   3   7
ATOM      7  C   UNL     1       3.476  -1.504  -3.355  0.00  0.00    +0.269 C 
ATOM      8  O   UNL     1       2.432  -1.357  -2.749  0.00  0.00    -0.268 OA
ATOM      9  N   UNL     1       3.455  -1.829  -4.663  0.00  0.00    -0.293 N 
BRANCH   9  10
ATOM     10  C   UNL     1       2.182  -1.879  -5.386  0.00  0.00    +0.070 C 
ATOM     11  C   UNL     1       2.159  -0.786  -6.456  0.00  0.00    +0.028 C 
ATOM     12  C   UNL     1       2.027  -3.248  -6.051  0.00  0.00    +0.028 C 
ENDBRANCH   9  10
BRANCH   9  13
ATOM     13  C   UNL     1       4.707  -2.132  -5.362  0.00  0.00    +0.111 C 
BRANCH  13  14
ATOM     14  C   UNL     1       4.964  -3.639  -5.317  0.00  0.00    +0.000 C 
ATOM     15  C   UNL     1       6.258  -3.959  -6.068  0.00  0.00    +0.009 C 
ATOM     16  C   UNL     1       5.093  -4.092  -3.861  0.00  0.00    +0.009 C 
ENDBRANCH  13  14
ENDBRANCH   9  13
ENDBRANCH   3   7
BRANCH   2  17
ATOM     17  N   UNL     1       3.951  -0.525  -0.404  0.00  0.00    -0.355 N 
ATOM     18  H   UNL     1       4.197  -0.235   0.488  0.00  0.00    +0.142 HD
ATOM     19  H   UNL     1       3.016  -0.569  -0.659  0.00  0.00    +0.142 HD
ENDBRANCH   2  17
BRANCH   1  21
ATOM     20  C   UNL     1       7.086  -1.684   1.079  0.00  0.00    +0.010 C 
ATOM     21  C   UNL     1       7.009  -0.481   0.138  0.00  0.00    +0.053 C 
ENDBRANCH   1  21
TORSDOF 6
