REMARK  Name = ZINC11854619
REMARK  6 active torsions:
REMARK  status: ('A' for Active; 'I' for Inactive)
REMARK    1  A    between atoms: C_1  and  C_2
REMARK    2  A    between atoms: C_2  and  C_3
REMARK    3  A    between atoms: C_12  and  N_21
REMARK    4  A    between atoms: C_14  and  C_16
REMARK    5  A    between atoms: C_22  and  C_24
REMARK    6  A    between atoms: C_24  and  C_25
REMARK                            x       y       z     vdW  Elec       q    Type
REMARK                         _______ _______ _______ _____ _____    ______ ____
ROOT
ATOM      1  C   UNL     1       1.160  10.895   0.051  0.00  0.00    +0.050 A 
ATOM      2  C   UNL     1      -0.158  11.248   0.065  0.00  0.00    +0.093 A 
ATOM      3  C   UNL     1      -1.133  10.233   0.069  0.00  0.00    +0.253 A 
ATOM      4  O   UNL     1      -2.321  10.512   0.081  0.00  0.00    -0.268 OA
ATOM      5  N   UNL     1      -0.728   8.945   0.053  0.00  0.00    -0.291 N 
ATOM      6  H   UNL     1      -1.383   8.229   0.052  0.00  0.00    +0.172 HD
ATOM      7  C   UNL     1       0.600   8.655   0.044  0.00  0.00    +0.234 A 
ATOM      8  N   UNL     1       1.506   9.608   0.041  0.00  0.00    -0.217 NA
ATOM      9  N   UNL     1       1.005   7.334   0.033  0.00  0.00    -0.185 N 
ATOM     10  C   UNL     1       2.297   6.891   0.018  0.00  0.00    +0.132 A 
ATOM     11  C   UNL     1       2.267   5.534   0.011  0.00  0.00    +0.074 A 
ATOM     12  C   UNL     1       0.915   5.132   0.021  0.00  0.00    +0.102 A 
ATOM     13  N   UNL     1       0.164   6.215   0.029  0.00  0.00    -0.162 NA
ENDROOT
BRANCH  12  14
ATOM     14  C   UNL     1       0.425   3.737   0.018  0.00  0.00    +0.039 A 
ATOM     15  C   UNL     1      -0.864   3.276   0.028  0.00  0.00    +0.018 A 
ATOM     16  C   UNL     1      -1.080   1.915   0.017  0.00  0.00    +0.008 A 
ATOM     17  C   UNL     1      -0.013   1.076   0.008  0.00  0.00    +0.046 A 
ATOM     18  S   UNL     1       1.360   2.217   0.001  0.00  0.00    -0.095 S 
ENDBRANCH  12  14
BRANCH  10  19
ATOM     19  N   UNL     1       3.440   7.688   0.012  0.00  0.00    -0.270 N 
ATOM     20  C   UNL     1       4.660   7.116  -0.003  0.00  0.00    +0.223 C 
ATOM     21  O   UNL     1       4.764   5.908  -0.011  0.00  0.00    -0.275 OA
ATOM     22  H   UNL     1       3.357   8.654   0.019  0.00  0.00    +0.156 HD
BRANCH  20  23
ATOM     23  C   UNL     1       5.896   7.978  -0.010  0.00  0.00    +0.131 C 
BRANCH  23  24
ATOM     24  C   UNL     1       7.121   7.100  -0.027  0.00  0.00    -0.039 A 
ATOM     25  C   UNL     1       7.697   6.695   1.163  0.00  0.00    +0.005 A 
ATOM     26  C   UNL     1       8.817   5.885   1.148  0.00  0.00    +0.020 A 
ATOM     27  C   UNL     1       9.368   5.489  -0.058  0.00  0.00    +0.041 A 
ATOM     28  C   UNL     1       8.794   5.900  -1.248  0.00  0.00    +0.020 A 
ATOM     29  C   UNL     1       7.671   6.705  -1.232  0.00  0.00    +0.005 A 
ATOM     30 CL   UNL     1      10.779   4.477  -0.077  0.00  0.00    -0.084 Cl
ENDBRANCH  23  24
ENDBRANCH  20  23
ENDBRANCH  10  19
BRANCH   1  32
ATOM     31  C   UNL     1       2.688  12.225   1.482  0.00  0.00    +0.010 C 
ATOM     32  C   UNL     1       2.225  11.960   0.047  0.00  0.00    +0.052 C 
ENDBRANCH   1  32
TORSDOF 5
