REMARK  Name = ZINC20576871
REMARK  8 active torsions:
REMARK  status: ('A' for Active; 'I' for Inactive)
REMARK    1  A    between atoms: C_1  and  O_2
REMARK    2  A    between atoms: O_2  and  C_3
REMARK    3  A    between atoms: C_6  and  C_11
REMARK    4  A    between atoms: C_7  and  O_9
REMARK    5  A    between atoms: O_9  and  C_10
REMARK    6  A    between atoms: C_11  and  N_12
REMARK    7  A    between atoms: N_12  and  C_13
REMARK    8  A    between atoms: C_13  and  C_14
REMARK                            x       y       z     vdW  Elec       q    Type
REMARK                         _______ _______ _______ _____ _____    ______ ____
ROOT
ATOM      1  C   UNL     1       0.002  -0.004   0.002  0.00  0.00    +0.009 A 
ATOM      2  C   UNL     1      -0.888  -0.804  -0.621  0.00  0.00    +0.021 A 
ATOM      3  C   UNL     1      -0.502  -2.137  -0.376  0.00  0.00    +0.020 A 
ATOM      4  C   UNL     1       0.609  -2.104   0.388  0.00  0.00    +0.093 A 
ATOM      5  N   UNL     1       0.928  -0.796   0.619  0.00  0.00    -0.300 N 
ATOM      6  C   UNL     1       2.018  -0.344   1.365  0.00  0.00    +0.202 A 
ATOM      7  N   UNL     1       2.407   0.889   1.641  0.00  0.00    -0.121 NA
ATOM      8  N   UNL     1       3.427   1.128   2.342  0.00  0.00    -0.124 NA
ATOM      9  C   UNL     1       4.179   0.157   2.839  0.00  0.00    +0.186 A 
ATOM     10  S   UNL     1       3.293  -1.269   2.217  0.00  0.00    -0.013 S 
ATOM     11  N   UNL     1       5.327   0.225   3.617  0.00  0.00    -0.308 N 
ATOM     12  C   UNL     1       5.201  -0.625   4.822  0.00  0.00    +0.107 C 
ATOM     13  C   UNL     1       6.293  -0.378   5.827  0.00  0.00    +0.019 C 
ATOM     14  C   UNL     1       5.792   0.663   6.850  0.00  0.00    +0.002 C 
ATOM     15  C   UNL     1       5.855   2.023   6.327  0.00  0.00    +0.002 C 
ATOM     16  C   UNL     1       4.973   2.208   5.075  0.00  0.00    +0.019 C 
ATOM     17  C   UNL     1       5.699   1.631   3.890  0.00  0.00    +0.107 C 
ENDROOT
BRANCH   1  18
ATOM     18  C   UNL     1      -0.018   1.503   0.010  0.00  0.00    -0.027 C 
BRANCH  18  19
ATOM     19  N   UNL     1      -0.706   1.976   1.219  0.00  0.00    +0.385 N 
ATOM     20  H   UNL     1      -0.169   1.599   2.101  0.00  0.00    -0.085 HD
ATOM     21  H   UNL     1      -1.733   1.582   1.218  0.00  0.00    -0.085 HD
BRANCH  19  22
ATOM     22  C   UNL     1      -0.745   3.444   1.261  0.00  0.00    -0.043 C 
BRANCH  22  26
ATOM     23  C   UNL     1      -2.764   4.715   4.811  0.00  0.00    +0.124 A 
ATOM     24  C   UNL     1      -3.435   4.696   3.596  0.00  0.00    +0.046 A 
ATOM     25  C   UNL     1      -2.780   4.285   2.451  0.00  0.00    +0.009 A 
ATOM     26  C   UNL     1      -1.456   3.892   2.512  0.00  0.00    -0.022 A 
ATOM     27  C   UNL     1      -0.783   3.904   3.725  0.00  0.00    +0.125 A 
ATOM     28  C   UNL     1      -1.437   4.321   4.875  0.00  0.00    +0.091 A 
BRANCH  23  30
ATOM     29  C   UNL     1      -4.776   5.510   5.797  0.00  0.00    +0.277 C 
ATOM     30  O   UNL     1      -3.409   5.118   5.937  0.00  0.00    -0.495 OA
ENDBRANCH  23  30
BRANCH  27  31
ATOM     31  O   UNL     1       0.516   3.513   3.786  0.00  0.00    -0.495 OA
ATOM     32  C   UNL     1       1.146   3.550   5.068  0.00  0.00    +0.277 C 
ENDBRANCH  27  31
ENDBRANCH  22  26
ENDBRANCH  19  22
ENDBRANCH  18  19
ENDBRANCH   1  18
TORSDOF 6
