REMARK  Name = ZINC64202853
REMARK  5 active torsions:
REMARK  status: ('A' for Active; 'I' for Inactive)
REMARK    1  A    between atoms: C_1  and  C_2
REMARK    2  A    between atoms: C_5  and  C_19
REMARK    3  A    between atoms: C_7  and  C_13
REMARK    4  A    between atoms: N_10  and  C_12
REMARK    5  A    between atoms: C_24  and  C_27
REMARK                            x       y       z     vdW  Elec       q    Type
REMARK                         _______ _______ _______ _____ _____    ______ ____
ROOT
ATOM      1  C   UNL     1      -3.059   2.459   0.519  0.00  0.00    +0.031 C 
ATOM      2  C   UNL     1      -1.952   1.480   0.915  0.00  0.00    +0.104 C 
ATOM      3  C   UNL     1      -2.293   0.084   0.454  0.00  0.00    +0.024 A 
ATOM      4  C   UNL     1      -2.514  -0.477  -0.799  0.00  0.00    +0.047 A 
ATOM      5  C   UNL     1      -2.817  -1.841  -0.867  0.00  0.00    +0.042 A 
ATOM      6  C   UNL     1      -2.884  -2.570   0.316  0.00  0.00    +0.074 A 
ATOM      7  N   UNL     1      -2.666  -1.994   1.489  0.00  0.00    -0.230 NA
ATOM      8  C   UNL     1      -2.375  -0.703   1.598  0.00  0.00    +0.141 A 
ATOM      9  N   UNL     1      -2.117   0.077   2.717  0.00  0.00    -0.253 N 
ATOM     10  N   UNL     1      -1.858   1.374   2.383  0.00  0.00    -0.232 NA
ATOM     11  C   UNL     1      -2.121  -0.431   4.091  0.00  0.00    +0.151 C 
ATOM     12  H   UNL     1      -2.509   2.001   2.833  0.00  0.00    +0.145 HD
ENDROOT
BRANCH   4  13
ATOM     13  C   UNL     1      -2.431   0.347  -2.028  0.00  0.00    +0.247 C 
ATOM     14  O   UNL     1      -1.432   1.001  -2.255  0.00  0.00    -0.270 OA
ATOM     15  N   UNL     1      -3.463   0.372  -2.894  0.00  0.00    -0.293 N 
ATOM     16  C   UNL     1      -4.736  -0.301  -2.587  0.00  0.00    +0.113 C 
ATOM     17  C   UNL     1      -5.832   0.765  -2.518  0.00  0.00    +0.054 C 
ATOM     18  C   UNL     1      -5.721   1.704  -3.683  0.00  0.00    -0.043 C 
ATOM     19  C   UNL     1      -4.627   1.851  -4.420  0.00  0.00    -0.004 C 
ATOM     20  C   UNL     1      -3.365   1.078  -4.180  0.00  0.00    +0.135 C 
BRANCH  18  21
ATOM     21  C   UNL     1      -6.851   2.480  -4.015  0.00  0.00    -0.016 C 
ATOM     22  C   UNL     1      -8.046   2.567  -3.312  0.00  0.00    +0.003 A 
ATOM     23  C   UNL     1      -8.499   1.956  -2.120  0.00  0.00    +0.010 A 
ATOM     24  C   UNL     1      -9.743   2.232  -1.655  0.00  0.00    +0.001 A 
ATOM     25  C   UNL     1     -10.599   3.111  -2.326  0.00  0.00    +0.002 A 
ATOM     26  C   UNL     1     -10.232   3.732  -3.473  0.00  0.00    +0.026 A 
ATOM     27  C   UNL     1      -8.944   3.494  -4.024  0.00  0.00    +0.043 A 
ATOM     28  N   UNL     1      -8.359   3.964  -5.104  0.00  0.00    -0.380 N 
ATOM     29  C   UNL     1      -7.011   3.396  -5.208  0.00  0.00    +0.149 C 
ATOM     30  H   UNL     1      -8.755   4.590  -5.730  0.00  0.00    +0.160 HD
ENDBRANCH  18  21
ENDBRANCH   4  13
BRANCH   6  31
ATOM     31  C   UNL     1      -3.205  -4.018   0.263  0.00  0.00    +0.000 A 
ATOM     32  C   UNL     1      -3.432  -4.639  -0.964  0.00  0.00    +0.010 A 
ATOM     33  C   UNL     1      -3.730  -5.986  -1.008  0.00  0.00    +0.001 A 
ATOM     34  C   UNL     1      -3.805  -6.718   0.163  0.00  0.00    +0.000 A 
ATOM     35  C   UNL     1      -3.581  -6.107   1.384  0.00  0.00    +0.001 A 
ATOM     36  C   UNL     1      -3.276  -4.762   1.439  0.00  0.00    +0.010 A 
ENDBRANCH   6  31
TORSDOF 3
