REMARK  Name = ZINC33170602
REMARK  11 active torsions:
REMARK  status: ('A' for Active; 'I' for Inactive)
REMARK    1  A    between atoms: C_1  and  C_2
REMARK    2  A    between atoms: C_5  and  C_19
REMARK    3  A    between atoms: C_7  and  S_8
REMARK    4  A    between atoms: S_8  and  N_11
REMARK    5  A    between atoms: N_11  and  C_12
REMARK    6  A    between atoms: C_12  and  C_13
REMARK    7  A    between atoms: C_16  and  C_18
REMARK    8  A    between atoms: C_20  and  C_21
REMARK    9  A    between atoms: C_22  and  N_27
REMARK   10  A    between atoms: C_23  and  C_26
REMARK   11  A    between atoms: C_28  and  C_30
REMARK                            x       y       z     vdW  Elec       q    Type
REMARK                         _______ _______ _______ _____ _____    ______ ____
ROOT
ATOM      1  C   UNL     1       0.097   4.749  -1.624  0.00  0.00    +0.046 C 
ATOM      2  C   UNL     1       0.422   5.939  -0.758  0.00  0.00    -0.024 A 
ATOM      3  C   UNL     1      -0.591   6.786  -0.344  0.00  0.00    +0.006 A 
ATOM      4  C   UNL     1      -0.302   7.877   0.448  0.00  0.00    +0.008 A 
ATOM      5  C   UNL     1       1.019   8.126   0.834  0.00  0.00    -0.023 A 
ATOM      6  C   UNL     1       2.036   7.262   0.417  0.00  0.00    +0.036 A 
ATOM      7  C   UNL     1       1.732   6.178  -0.380  0.00  0.00    +0.109 A 
ENDROOT
BRANCH   7   8
ATOM      8  S   UNL     1       3.012   5.092  -0.913  0.00  0.00    +0.059 S 
ATOM      9  O   UNL     1       2.587   3.774  -0.593  0.00  0.00    -0.153 OA
ATOM     10  O   UNL     1       4.233   5.636  -0.432  0.00  0.00    -0.153 OA
BRANCH   8  11
ATOM     11  N   UNL     1       3.074   5.181  -2.566  0.00  0.00    -0.183 NA
ATOM     12  H   UNL     1       2.705   4.334  -3.164  0.00  0.00    +0.148 HD
BRANCH  11  13
ATOM     13  C   UNL     1       3.407   6.449  -3.219  0.00  0.00    +0.180 C 
BRANCH  13  14
ATOM     14  C   UNL     1       3.768   6.192  -4.660  0.00  0.00    +0.121 A 
ATOM     15  C   UNL     1       2.911   6.186  -5.696  0.00  0.00    +0.046 A 
ATOM     16  C   UNL     1       3.671   5.904  -6.855  0.00  0.00    +0.044 A 
ATOM     17  C   UNL     1       4.947   5.755  -6.457  0.00  0.00    +0.102 A 
ATOM     18  O   UNL     1       5.000   5.930  -5.126  0.00  0.00    -0.464 OA
ATOM     19  C   UNL     1       6.118   5.442  -7.352  0.00  0.00    +0.086 C 
ENDBRANCH  13  14
ENDBRANCH  11  13
ENDBRANCH   8  11
ENDBRANCH   7   8
BRANCH   5  20
ATOM     20  C   UNL     1       1.336   9.288   1.679  0.00  0.00    +0.012 C 
ATOM     21  C   UNL     1       0.861  10.507   1.356  0.00  0.00    +0.051 C 
BRANCH  21  22
ATOM     22  C   UNL     1       0.222  10.722   0.057  0.00  0.00    +0.182 A 
ATOM     23  C   UNL     1      -0.423  11.872  -0.380  0.00  0.00    +0.103 A 
ATOM     24  C   UNL     1      -0.848  11.538  -1.687  0.00  0.00    +0.102 A 
ATOM     25  N   UNL     1      -0.454  10.316  -1.906  0.00  0.00    -0.081 NA
ATOM     26  O   UNL     1       0.141   9.846  -0.966  0.00  0.00    -0.353 OA
ATOM     27  C   UNL     1      -1.607  12.424  -2.641  0.00  0.00    +0.071 C 
BRANCH  23  28
ATOM     28  N   UNL     1      -0.609  13.078   0.310  0.00  0.00    -0.281 N 
ATOM     29  C   UNL     1      -0.534  14.251  -0.350  0.00  0.00    +0.214 C 
ATOM     30  O   UNL     1      -0.360  14.261  -1.550  0.00  0.00    -0.276 OA
ATOM     31  C   UNL     1      -0.667  15.549   0.404  0.00  0.00    +0.109 C 
ATOM     32  H   UNL     1      -0.816  13.067   1.391  0.00  0.00    +0.155 HD
ENDBRANCH  23  28
ENDBRANCH  21  22
ENDBRANCH   5  20
TORSDOF 7
