REMARK  Name = ZINC21893128
REMARK  6 active torsions:
REMARK  status: ('A' for Active; 'I' for Inactive)
REMARK    1  A    between atoms: C_1  and  C_2
REMARK    2  A    between atoms: C_2  and  C_3
REMARK    3  A    between atoms: C_6  and  C_9
REMARK    4  A    between atoms: N_26  and  C_27
REMARK    5  A    between atoms: C_27  and  C_28
REMARK    6  A    between atoms: C_31  and  C_34
REMARK                            x       y       z     vdW  Elec       q    Type
REMARK                         _______ _______ _______ _____ _____    ______ ____
ROOT
ATOM      1  C   UNL     1       1.241   7.281   3.228  0.00  0.00    +0.155 C 
ATOM      2  C   UNL     1       2.250   7.544   4.312  0.00  0.00    +0.049 A 
ATOM      3  C   UNL     1       3.409   8.214   4.221  0.00  0.00    +0.025 A 
ATOM      4  C   UNL     1       4.011   8.189   5.498  0.00  0.00    +0.020 A 
ATOM      5  C   UNL     1       3.189   7.501   6.322  0.00  0.00    +0.091 A 
ATOM      6  N   UNL     1       2.109   7.104   5.601  0.00  0.00    -0.318 N 
ATOM      7  C   UNL     1       0.989   6.367   6.016  0.00  0.00    +0.051 A 
ATOM      8  C   UNL     1       0.279   6.722   7.150  0.00  0.00    +0.026 A 
ATOM      9  C   UNL     1      -0.891   6.056   7.462  0.00  0.00    +0.002 A 
ATOM     10  C   UNL     1      -1.347   5.038   6.644  0.00  0.00    +0.000 A 
ATOM     11  C   UNL     1      -0.625   4.665   5.525  0.00  0.00    +0.007 A 
ATOM     12  C   UNL     1       0.553   5.315   5.218  0.00  0.00    -0.006 A 
ATOM     13  C   UNL     1       1.381   4.894   4.036  0.00  0.00    +0.147 C 
ATOM     14  N   UNL     1       1.248   5.839   2.912  0.00  0.00    -0.269 N 
ATOM     15  C   UNL     1       1.141   5.402   1.641  0.00  0.00    +0.304 C 
ATOM     16  O   UNL     1       1.065   4.210   1.412  0.00  0.00    -0.253 OA
ATOM     17  N   UNL     1       1.118   6.286   0.624  0.00  0.00    -0.295 N 
ATOM     18  H   UNL     1       1.101   7.366   0.834  0.00  0.00    +0.151 HD
ENDROOT
BRANCH   1  22
ATOM     19  C   UNL     1      -2.640   8.434   4.589  0.00  0.00    -0.048 A 
ATOM     20  C   UNL     1      -1.520   9.102   5.047  0.00  0.00    +0.004 A 
ATOM     21  C   UNL     1      -0.264   8.729   4.607  0.00  0.00    +0.006 A 
ATOM     22  C   UNL     1      -0.128   7.688   3.708  0.00  0.00    -0.021 A 
ATOM     23  C   UNL     1      -1.248   7.023   3.246  0.00  0.00    +0.006 A 
ATOM     24  C   UNL     1      -2.504   7.392   3.690  0.00  0.00    +0.004 A 
BRANCH  19  26
ATOM     25  C   UNL     1      -4.581   9.909   4.136  0.00  0.00    +0.009 C 
ATOM     26  C   UNL     1      -4.010   8.840   5.070  0.00  0.00    +0.032 C 
ENDBRANCH  19  26
ENDBRANCH   1  22
BRANCH  17  27
ATOM     27  C   UNL     1       1.116   5.809  -0.761  0.00  0.00    +0.141 C 
BRANCH  27  28
ATOM     28  C   UNL     1       1.089   6.989  -1.698  0.00  0.00    -0.030 A 
ATOM     29  C   UNL     1       2.273   7.550  -2.137  0.00  0.00    +0.005 A 
ATOM     30  C   UNL     1       2.249   8.632  -2.998  0.00  0.00    +0.003 A 
ATOM     31  C   UNL     1       1.039   9.153  -3.419  0.00  0.00    -0.050 A 
ATOM     32  C   UNL     1      -0.145   8.591  -2.981  0.00  0.00    +0.003 A 
ATOM     33  C   UNL     1      -0.121   7.510  -2.120  0.00  0.00    +0.005 A 
ATOM     34  C   UNL     1       1.012  10.332  -4.357  0.00  0.00    +0.044 C 
ENDBRANCH  27  28
ENDBRANCH  17  27
TORSDOF 4
