REMARK  Name = ZINC45631918
REMARK  10 active torsions:
REMARK  status: ('A' for Active; 'I' for Inactive)
REMARK    1  A    between atoms: C_1  and  C_2
REMARK    2  A    between atoms: C_2  and  C_3
REMARK    3  A    between atoms: C_3  and  C_30
REMARK    4  A    between atoms: N_6  and  C_10
REMARK    5  A    between atoms: C_10  and  C_11
REMARK    6  A    between atoms: C_12  and  C_25
REMARK    7  A    between atoms: C_13  and  C_19
REMARK    8  A    between atoms: C_25  and  O_27
REMARK    9  A    between atoms: O_27  and  C_28
REMARK   10  A    between atoms: C_28  and  C_29
REMARK                            x       y       z     vdW  Elec       q    Type
REMARK                         _______ _______ _______ _____ _____    ______ ____
ROOT
ATOM      1  C   UNL     1      -5.401   0.487  -1.896  0.00  0.00    +0.042 C 
ATOM      2  C   UNL     1      -6.564   0.692  -1.242  0.00  0.00    +0.080 C 
ATOM      3  C   UNL     1      -7.665  -0.333  -1.424  0.00  0.00    +0.144 C 
ATOM      4  N   UNL     1      -7.374  -1.477  -2.305  0.00  0.00    -0.288 N 
ATOM      5  C   UNL     1      -6.161  -1.543  -2.889  0.00  0.00    +0.304 C 
ATOM      6  O   UNL     1      -5.911  -2.483  -3.618  0.00  0.00    -0.252 OA
ATOM      7  N   UNL     1      -5.226  -0.605  -2.698  0.00  0.00    -0.271 N 
ATOM      8  H   UNL     1      -8.038  -2.166  -2.460  0.00  0.00    +0.151 HD
ATOM      9  H   UNL     1      -4.374  -0.708  -3.151  0.00  0.00    +0.156 HD
ENDROOT
BRANCH   3  10
ATOM     10  C   UNL     1      -8.025  -0.875  -0.064  0.00  0.00    -0.022 A 
ATOM     11  C   UNL     1      -7.234  -1.844   0.525  0.00  0.00    +0.006 A 
ATOM     12  C   UNL     1      -7.564  -2.341   1.772  0.00  0.00    +0.000 A 
ATOM     13  C   UNL     1      -8.684  -1.869   2.430  0.00  0.00    +0.000 A 
ATOM     14  C   UNL     1      -9.474  -0.899   1.841  0.00  0.00    +0.000 A 
ATOM     15  C   UNL     1      -9.142  -0.399   0.596  0.00  0.00    +0.006 A 
ENDBRANCH   3  10
BRANCH   2  16
ATOM     16  C   UNL     1      -6.749   1.824  -0.415  0.00  0.00    +0.339 C 
ATOM     17  O   UNL     1      -6.640   1.721   0.792  0.00  0.00    -0.245 OA
BRANCH  16  18
ATOM     18  O   UNL     1      -7.046   3.020  -0.965  0.00  0.00    -0.462 OA
BRANCH  18  19
ATOM     19  C   UNL     1      -7.219   4.121  -0.071  0.00  0.00    +0.229 C 
ATOM     20  C   UNL     1      -7.548   5.382  -0.872  0.00  0.00    +0.048 C 
ENDBRANCH  18  19
ENDBRANCH  16  18
ENDBRANCH   2  16
BRANCH   1  21
ATOM     21  C   UNL     1      -4.279   1.482  -1.743  0.00  0.00    +0.169 C 
BRANCH  21  25
ATOM     22  C   UNL     1      -1.201  -0.303  -0.678  0.00  0.00    +0.138 C 
ATOM     23  C   UNL     1      -2.148   0.202  -1.749  0.00  0.00    +0.251 C 
ATOM     24  O   UNL     1      -2.037   0.065  -2.948  0.00  0.00    -0.272 OA
ATOM     25  N   UNL     1      -3.138   0.835  -1.090  0.00  0.00    -0.218 N 
ATOM     26  C   UNL     1      -2.951   0.801   0.235  0.00  0.00    +0.310 C 
ATOM     27  O   UNL     1      -3.712   1.304   1.038  0.00  0.00    -0.252 OA
ATOM     28  N   UNL     1      -1.826   0.147   0.578  0.00  0.00    -0.281 N 
ATOM     29  H   UNL     1      -1.493  -0.001   1.476  0.00  0.00    +0.152 HD
BRANCH  22  30
ATOM     30  C   UNL     1      -1.106  -1.806  -0.715  0.00  0.00    -0.015 A 
ATOM     31  C   UNL     1      -0.109  -2.418  -1.451  0.00  0.00    +0.009 A 
ATOM     32  C   UNL     1      -0.021  -3.797  -1.486  0.00  0.00    +0.039 A 
ATOM     33  C   UNL     1      -0.933  -4.566  -0.782  0.00  0.00    +0.123 A 
ATOM     34  C   UNL     1      -1.932  -3.952  -0.045  0.00  0.00    +0.039 A 
ATOM     35  C   UNL     1      -2.014  -2.573  -0.008  0.00  0.00    +0.009 A 
ATOM     36  F   UNL     1      -0.849  -5.913  -0.816  0.00  0.00    -0.205 F 
ENDBRANCH  22  30
BRANCH  22  38
ATOM     37  C   UNL     1       0.070   1.848  -0.732  0.00  0.00    +0.007 C 
ATOM     38  C   UNL     1       0.184   0.326  -0.844  0.00  0.00    +0.037 C 
ENDBRANCH  22  38
ENDBRANCH  21  25
ENDBRANCH   1  21
TORSDOF 8
