REMARK  Name = ZINC35730767
REMARK  8 active torsions:
REMARK  status: ('A' for Active; 'I' for Inactive)
REMARK    1  A    between atoms: C_1  and  O_2
REMARK    2  A    between atoms: O_2  and  C_3
REMARK    3  A    between atoms: C_3  and  C_4
REMARK    4  A    between atoms: C_4  and  N_5
REMARK    5  A    between atoms: C_6  and  N_16
REMARK    6  A    between atoms: N_16  and  C_17
REMARK    7  A    between atoms: C_20  and  C_23
REMARK    8  A    between atoms: C_28  and  N_31
REMARK                            x       y       z     vdW  Elec       q    Type
REMARK                         _______ _______ _______ _____ _____    ______ ____
ROOT
ATOM      1  C   UNL     1      -1.533  -3.371  -1.563  0.00  0.00    +0.029 A 
ATOM      2  C   UNL     1      -1.857  -2.025  -1.417  0.00  0.00    +0.024 A 
ATOM      3  C   UNL     1      -3.176  -1.632  -1.394  0.00  0.00    +0.015 A 
ATOM      4  C   UNL     1      -4.190  -2.586  -1.517  0.00  0.00    +0.037 A 
ATOM      5  C   UNL     1      -3.861  -3.937  -1.664  0.00  0.00    +0.015 A 
ATOM      6  C   UNL     1      -2.541  -4.323  -1.692  0.00  0.00    +0.024 A 
ENDROOT
BRANCH   4   7
ATOM      7  C   UNL     1      -5.605  -2.168  -1.492  0.00  0.00    +0.247 C 
ATOM      8  O   UNL     1      -5.968  -1.212  -2.150  0.00  0.00    -0.270 OA
ATOM      9  N   UNL     1      -6.495  -2.847  -0.741  0.00  0.00    -0.297 N 
ATOM     10  C   UNL     1      -7.889  -2.394  -0.641  0.00  0.00    +0.110 C 
ATOM     11  C   UNL     1      -8.254  -2.247   0.840  0.00  0.00    +0.044 C 
ATOM     12  C   UNL     1      -7.967  -3.563   1.565  0.00  0.00    +0.095 C 
ATOM     13  C   UNL     1      -6.474  -3.888   1.466  0.00  0.00    +0.044 C 
ATOM     14  C   UNL     1      -6.090  -4.056  -0.012  0.00  0.00    +0.110 C 
BRANCH  12  15
ATOM     15  N   UNL     1      -8.346  -3.437   2.974  0.00  0.00    -0.289 N 
ATOM     16  C   UNL     1      -9.290  -4.217   3.638  0.00  0.00    +0.070 A 
ATOM     17  C   UNL     1     -10.106  -5.265   3.241  0.00  0.00    +0.028 A 
ATOM     18  C   UNL     1     -10.962  -5.852   4.152  0.00  0.00    +0.002 A 
ATOM     19  C   UNL     1     -11.008  -5.399   5.460  0.00  0.00    +0.002 A 
ATOM     20  C   UNL     1     -10.199  -4.356   5.864  0.00  0.00    +0.028 A 
ATOM     21  C   UNL     1      -9.336  -3.760   4.957  0.00  0.00    +0.067 A 
ATOM     22  N   UNL     1      -8.418  -2.716   5.053  0.00  0.00    -0.306 N 
ATOM     23  H   UNL     1      -8.228  -2.200   5.852  0.00  0.00    +0.170 HD
ATOM     24  C   UNL     1      -7.837  -2.550   3.851  0.00  0.00    +0.328 A 
ATOM     25  O   UNL     1      -6.983  -1.722   3.594  0.00  0.00    -0.247 OA
ENDBRANCH  12  15
ENDBRANCH   4   7
BRANCH   1  26
ATOM     26  N   UNL     1      -0.200  -3.765  -1.586  0.00  0.00    -0.322 N 
ATOM     27  H   UNL     1       0.030  -4.688  -1.776  0.00  0.00    +0.148 HD
BRANCH  26  29
ATOM     28  N   UNL     1       1.399  -2.977   0.026  0.00  0.00    -0.273 N 
ATOM     29  C   UNL     1       0.858  -2.785  -1.324  0.00  0.00    +0.193 C 
ATOM     30  C   UNL     1       2.010  -2.998  -2.275  0.00  0.00    +0.003 A 
ATOM     31  C   UNL     1       2.121  -2.953  -3.645  0.00  0.00    +0.008 A 
ATOM     32  C   UNL     1       3.343  -3.199  -4.248  0.00  0.00    +0.000 A 
ATOM     33  C   UNL     1       4.454  -3.491  -3.475  0.00  0.00    +0.001 A 
ATOM     34  C   UNL     1       4.353  -3.538  -2.100  0.00  0.00    +0.013 A 
ATOM     35  C   UNL     1       3.124  -3.291  -1.485  0.00  0.00    +0.043 A 
ATOM     36  C   UNL     1       2.709  -3.264  -0.070  0.00  0.00    +0.249 C 
ATOM     37  O   UNL     1       3.446  -3.474   0.874  0.00  0.00    -0.270 OA
BRANCH  28  38
ATOM     38  C   UNL     1       0.639  -2.868   1.274  0.00  0.00    +0.138 C 
BRANCH  38  39
ATOM     39  C   UNL     1       0.688  -1.424   1.776  0.00  0.00    +0.178 C 
BRANCH  39  41
ATOM     40  C   UNL     1       0.001   0.805   1.223  0.00  0.00    +0.194 C 
ATOM     41  O   UNL     1       0.013  -0.573   0.847  0.00  0.00    -0.381 OA
ENDBRANCH  39  41
ENDBRANCH  38  39
ENDBRANCH  28  38
ENDBRANCH  26  29
ENDBRANCH   1  26
TORSDOF 7
