REMARK  Name = ZINC66396721
REMARK  10 active torsions:
REMARK  status: ('A' for Active; 'I' for Inactive)
REMARK    1  A    between atoms: C_1  and  C_2
REMARK    2  A    between atoms: C_2  and  C_3
REMARK    3  A    between atoms: C_2  and  C_4
REMARK    4  A    between atoms: C_2  and  C_5
REMARK    5  A    between atoms: C_8  and  C_11
REMARK    6  A    between atoms: C_11  and  C_13
REMARK    7  A    between atoms: C_11  and  N_15
REMARK    8  A    between atoms: C_16  and  C_18
REMARK    9  A    between atoms: C_20  and  S_23
REMARK   10  A    between atoms: S_23  and  N_26
REMARK                            x       y       z     vdW  Elec       q    Type
REMARK                         _______ _______ _______ _____ _____    ______ ____
ROOT
ATOM      1  N   UNL     1       3.548  -0.795  -5.289  0.00  0.00    -0.292 N 
ATOM      2  C   UNL     1       3.868  -0.781  -6.598  0.00  0.00    +0.246 C 
ATOM      3  O   UNL     1       3.459  -1.659  -7.334  0.00  0.00    -0.270 OA
ATOM      4  H   UNL     1       3.874  -0.095  -4.702  0.00  0.00    +0.151 HD
ENDROOT
BRANCH   2   5
ATOM      5  C   UNL     1       4.713   0.297  -7.137  0.00  0.00    +0.046 A 
ATOM      6  C   UNL     1       5.072   0.349  -8.534  0.00  0.00    +0.049 A 
ATOM      7  C   UNL     1       5.849   1.387  -8.900  0.00  0.00    +0.143 A 
ATOM      8  S   UNL     1       6.085   2.273  -7.375  0.00  0.00    -0.076 S 
ATOM      9  C   UNL     1       5.192   1.307  -6.334  0.00  0.00    +0.060 A 
BRANCH   7  10
ATOM     10  S   UNL     1       6.478   1.773 -10.501  0.00  0.00    +0.062 S 
ATOM     11  O   UNL     1       7.637   2.571 -10.300  0.00  0.00    -0.153 OA
ATOM     12  O   UNL     1       6.509   0.554 -11.230  0.00  0.00    -0.153 OA
BRANCH  10  13
ATOM     13  N   UNL     1       5.361   2.742 -11.245  0.00  0.00    -0.203 NA
ATOM     14  H   UNL     1       5.647   3.401 -11.897  0.00  0.00    +0.144 HD
ATOM     15  H   UNL     1       4.419   2.651 -11.030  0.00  0.00    +0.144 HD
ENDBRANCH  10  13
ENDBRANCH   7  10
ENDBRANCH   2   5
BRANCH   1  16
ATOM     16  C   UNL     1       2.707  -1.868  -4.752  0.00  0.00    +0.207 C 
BRANCH  16  20
ATOM     17  C   UNL     1       0.707  -0.490  -1.238  0.00  0.00    -0.042 A 
ATOM     18  C   UNL     1       0.036  -1.284  -2.148  0.00  0.00    +0.004 A 
ATOM     19  C   UNL     1       0.683  -1.730  -3.286  0.00  0.00    +0.007 A 
ATOM     20  C   UNL     1       2.001  -1.381  -3.513  0.00  0.00    -0.013 A 
ATOM     21  C   UNL     1       2.672  -0.586  -2.603  0.00  0.00    +0.007 A 
ATOM     22  C   UNL     1       2.024  -0.137  -1.467  0.00  0.00    +0.004 A 
BRANCH  17  24
ATOM     23  C   UNL     1      -0.019   1.526   0.010  0.00  0.00    +0.015 C 
ATOM     24  C   UNL     1       0.002  -0.004   0.002  0.00  0.00    -0.013 C 
ATOM     25  C   UNL     1       0.742  -0.511   1.242  0.00  0.00    +0.015 C 
ATOM     26  C   UNL     1      -1.433  -0.534   0.013  0.00  0.00    +0.015 C 
ENDBRANCH  17  24
ENDBRANCH  16  20
BRANCH  16  27
ATOM     27  C   UNL     1       3.548  -3.028  -4.414  0.00  0.00    +0.090 C 
ATOM     28  N   UNL     1       4.197  -3.923  -4.154  0.00  0.00    -0.194 NA
ENDBRANCH  16  27
ENDBRANCH   1  16
TORSDOF 7
