REMARK  Name = ZINC16854840
REMARK  11 active torsions:
REMARK  status: ('A' for Active; 'I' for Inactive)
REMARK    1  A    between atoms: C_1  and  C_2
REMARK    2  A    between atoms: C_5  and  C_9
REMARK    3  A    between atoms: C_6  and  C_8
REMARK    4  A    between atoms: C_9  and  C_10
REMARK    5  A    between atoms: C_11  and  C_30
REMARK    6  A    between atoms: C_13  and  S_18
REMARK    7  A    between atoms: S_18  and  C_19
REMARK    8  A    between atoms: C_19  and  C_20
REMARK    9  A    between atoms: C_20  and  S_21
REMARK   10  A    between atoms: S_21  and  C_22
REMARK   11  A    between atoms: C_22  and  C_23
REMARK                            x       y       z     vdW  Elec       q    Type
REMARK                         _______ _______ _______ _____ _____    ______ ____
ROOT
ATOM      1  C   UNL     1      -5.924  -2.474  -0.029  0.00  0.00    +0.042 A 
ATOM      2  C   UNL     1      -5.626  -1.144  -0.090  0.00  0.00    +0.050 A 
ATOM      3  N   UNL     1      -4.357  -0.745  -0.129  0.00  0.00    -0.228 NA
ATOM      4  C   UNL     1      -3.364  -1.613  -0.110  0.00  0.00    +0.169 A 
ATOM      5  N   UNL     1      -3.602  -2.953  -0.056  0.00  0.00    -0.302 N 
ATOM      6  H   UNL     1      -2.861  -3.579  -0.047  0.00  0.00    +0.171 HD
ATOM      7  C   UNL     1      -4.872  -3.407  -0.009  0.00  0.00    +0.256 A 
ATOM      8  O   UNL     1      -5.104  -4.604   0.045  0.00  0.00    -0.267 OA
ATOM      9  C   UNL     1      -6.736  -0.124  -0.112  0.00  0.00    +0.066 C 
ENDROOT
BRANCH   1  10
ATOM     10  C   UNL     1      -7.358  -2.936   0.015  0.00  0.00    +0.077 C 
BRANCH  10  15
ATOM     11  C   UNL     1      -9.167  -4.119  -5.344  0.00  0.00    +0.044 C 
ATOM     12  C   UNL     1      -8.695  -3.811  -3.947  0.00  0.00    -0.050 A 
ATOM     13  C   UNL     1      -7.372  -3.480  -3.721  0.00  0.00    +0.003 A 
ATOM     14  C   UNL     1      -6.939  -3.197  -2.439  0.00  0.00    +0.004 A 
ATOM     15  C   UNL     1      -7.830  -3.244  -1.383  0.00  0.00    -0.040 A 
ATOM     16  C   UNL     1      -9.152  -3.580  -1.608  0.00  0.00    -0.047 A 
ATOM     17  C   UNL     1      -9.586  -3.857  -2.891  0.00  0.00    +0.007 A 
ATOM     18  C   UNL     1     -10.121  -3.637  -0.455  0.00  0.00    +0.044 C 
ENDBRANCH  10  15
ENDBRANCH   1  10
BRANCH   4  19
ATOM     19  S   UNL     1      -1.702  -1.030  -0.165  0.00  0.00    -0.087 S 
BRANCH  19  20
ATOM     20  C   UNL     1      -1.998   0.755  -0.234  0.00  0.00    +0.088 C 
BRANCH  20  21
ATOM     21  C   UNL     1      -0.658   1.492  -0.289  0.00  0.00    +0.080 C 
BRANCH  21  22
ATOM     22  S   UNL     1      -0.954   3.280  -0.359  0.00  0.00    -0.155 S 
BRANCH  22  23
ATOM     23  C   UNL     1       0.710   3.998  -0.419  0.00  0.00    +0.104 C 
BRANCH  23  24
ATOM     24  C   UNL     1       0.607   5.501  -0.480  0.00  0.00    -0.037 A 
ATOM     25  C   UNL     1       0.544   6.140  -1.704  0.00  0.00    +0.006 A 
ATOM     26  C   UNL     1       0.444   7.517  -1.761  0.00  0.00    +0.020 A 
ATOM     27  C   UNL     1       0.418   8.257  -0.592  0.00  0.00    +0.041 A 
ATOM     28  C   UNL     1       0.486   7.617   0.633  0.00  0.00    +0.020 A 
ATOM     29  C   UNL     1       0.581   6.240   0.688  0.00  0.00    +0.006 A 
ATOM     30 CL   UNL     1       0.298   9.988  -0.663  0.00  0.00    -0.084 Cl
ENDBRANCH  23  24
ENDBRANCH  22  23
ENDBRANCH  21  22
ENDBRANCH  20  21
ENDBRANCH  19  20
ENDBRANCH   4  19
TORSDOF 8
