REMARK  Name = ZINC39467059
REMARK  5 active torsions:
REMARK  status: ('A' for Active; 'I' for Inactive)
REMARK    1  A    between atoms: C_4  and  C_7
REMARK    2  A    between atoms: C_7  and  C_8
REMARK    3  A    between atoms: P_17  and  C_27
REMARK    4  A    between atoms: C_25  and  O_26
REMARK    5  A    between atoms: C_32  and  O_33
REMARK                            x       y       z     vdW  Elec       q    Type
REMARK                         _______ _______ _______ _____ _____    ______ ____
ROOT
ATOM      1  C   UNL     1       4.164  -0.959   1.377  0.00  0.00    -0.006 C 
ATOM      2  C   UNL     1       3.893  -2.118   1.967  0.00  0.00    -0.016 C 
ATOM      3  C   UNL     1       4.361  -2.365   3.382  0.00  0.00    +0.016 C 
ATOM      4  C   UNL     1       3.376  -1.705   4.348  0.00  0.00    -0.003 C 
ATOM      5  C   UNL     1       3.881  -1.820   5.792  0.00  0.00    -0.020 C 
ATOM      6  C   UNL     1       2.840  -1.137   6.689  0.00  0.00    +0.157 C 
ATOM      7  O   UNL     1       3.238  -1.261   8.066  0.00  0.00    -0.316 OA
ATOM      8  P   UNL     1       4.759  -0.833   8.454  0.00  0.00    +0.291 P 
ATOM      9  O   UNL     1       5.175  -1.497   9.710  0.00  0.00    -0.269 OA
ATOM     10  N   UNL     1       5.690  -1.354   7.196  0.00  0.00    -0.288 NA
ATOM     11  N   UNL     1       5.194  -1.184   5.920  0.00  0.00    +0.398 N 
ATOM     12  C   UNL     1       6.165  -1.830   5.023  0.00  0.00    -0.046 C 
ATOM     13  C   UNL     1       5.743  -1.732   3.562  0.00  0.00    +0.008 C 
ATOM     14  C   UNL     1       5.692  -0.286   3.145  0.00  0.00    +0.021 C 
ATOM     15  C   UNL     1       4.917   0.078   2.110  0.00  0.00    +0.116 C 
ATOM     16  H   UNL     1       6.556  -1.764   7.349  0.00  0.00    +0.111 HD
ATOM     17  H   UNL     1       5.118  -0.200   5.708  0.00  0.00    -0.055 HD
ENDROOT
BRANCH   8  18
ATOM     18  C   UNL     1       4.881   0.969   8.627  0.00  0.00    +0.091 A 
ATOM     19  C   UNL     1       5.192   1.750   7.530  0.00  0.00    +0.018 A 
ATOM     20  C   UNL     1       5.285   3.123   7.662  0.00  0.00    +0.001 A 
ATOM     21  C   UNL     1       5.067   3.718   8.890  0.00  0.00    +0.004 A 
ATOM     22  C   UNL     1       4.755   2.943   9.990  0.00  0.00    +0.046 A 
ATOM     23  C   UNL     1       4.656   1.565   9.860  0.00  0.00    +0.131 A 
BRANCH  23  24
ATOM     24  O   UNL     1       4.344   0.800  10.939  0.00  0.00    -0.506 OA
ATOM     25  H   UNL     1       5.112   0.502  11.445  0.00  0.00    +0.292 HD
ENDBRANCH  23  24
ENDBRANCH   8  18
BRANCH  15  26
ATOM     26  O   UNL     1       4.841   1.379   1.727  0.00  0.00    -0.507 OA
ATOM     27  H   UNL     1       5.370   1.980   2.269  0.00  0.00    +0.292 HD
ENDBRANCH  15  26
BRANCH   1  28
ATOM     28  C   UNL     1       3.711  -0.707  -0.038  0.00  0.00    +0.073 C 
BRANCH  28  32
ATOM     29  C   UNL     1      -0.017   1.378   0.010  0.00  0.00    +0.000 A 
ATOM     30  C   UNL     1       1.171   2.086   0.002  0.00  0.00    +0.000 A 
ATOM     31  C   UNL     1       2.377   1.411  -0.013  0.00  0.00    +0.004 A 
ATOM     32  C   UNL     1       2.396   0.029  -0.020  0.00  0.00    -0.043 A 
ATOM     33  C   UNL     1       1.208  -0.679  -0.012  0.00  0.00    +0.004 A 
ATOM     34  C   UNL     1       0.002  -0.004   0.002  0.00  0.00    +0.000 A 
ENDBRANCH  28  32
ENDBRANCH   1  28
TORSDOF 5
