REMARK  Name = ZINC02256969
REMARK  9 active torsions:
REMARK  status: ('A' for Active; 'I' for Inactive)
REMARK    1  A    between atoms: C_1  and  C_2
REMARK    2  A    between atoms: C_2  and  C_3
REMARK    3  A    between atoms: C_2  and  C_4
REMARK    4  A    between atoms: C_4  and  C_5
REMARK    5  A    between atoms: C_9  and  N_23
REMARK    6  A    between atoms: C_10  and  C_14
REMARK    7  A    between atoms: C_14  and  C_16
REMARK    8  A    between atoms: C_25  and  C_28
REMARK    9  A    between atoms: C_25  and  C_29
REMARK                            x       y       z     vdW  Elec       q    Type
REMARK                         _______ _______ _______ _____ _____    ______ ____
ROOT
ATOM      1  C   UNL     1      -0.068   1.332   0.093  0.00  0.00    +0.051 A 
ATOM      2  C   UNL     1      -1.230   2.093   0.102  0.00  0.00    +0.004 A 
ATOM      3  C   UNL     1      -1.131   3.466   0.112  0.00  0.00    -0.023 A 
ATOM      4  C   UNL     1       0.145   4.038   0.096  0.00  0.00    +0.065 A 
ATOM      5  C   UNL     1       0.650   5.415   0.092  0.00  0.00    +0.084 A 
ATOM      6  C   UNL     1       2.029   5.305   0.071  0.00  0.00    +0.199 A 
ATOM      7  O   UNL     1       2.371   3.996   0.062  0.00  0.00    -0.432 OA
ATOM      8  C   UNL     1       1.279   3.207   0.078  0.00  0.00    +0.230 A 
ATOM      9  N   UNL     1       1.124   1.889   0.078  0.00  0.00    -0.217 NA
ATOM     10  C   UNL     1      -2.351   4.346   0.137  0.00  0.00    +0.070 C 
ATOM     11  C   UNL     1      -3.582   3.530  -0.266  0.00  0.00    +0.068 C 
ATOM     12  O   UNL     1      -3.594   2.318   0.496  0.00  0.00    -0.369 OA
ATOM     13  C   UNL     1      -2.567   1.403   0.114  0.00  0.00    +0.197 C 
ATOM     14  C   UNL     1      -3.514   3.199  -1.758  0.00  0.00    +0.041 C 
ATOM     15  C   UNL     1      -4.850   4.337   0.025  0.00  0.00    +0.041 C 
ENDROOT
BRANCH   5  16
ATOM     16  N   UNL     1      -0.097   6.579   0.106  0.00  0.00    -0.354 N 
ATOM     17  H   UNL     1      -1.065   6.534   0.120  0.00  0.00    +0.142 HD
ATOM     18  H   UNL     1       0.349   7.441   0.102  0.00  0.00    +0.142 HD
ENDBRANCH   5  16
BRANCH   6  19
ATOM     19  C   UNL     1       2.936   6.388   0.061  0.00  0.00    +0.230 C 
ATOM     20  O   UNL     1       2.520   7.530  -0.028  0.00  0.00    -0.283 OA
BRANCH  19  21
ATOM     21  C   UNL     1       4.390   6.136   0.159  0.00  0.00    +0.026 A 
ATOM     22  C   UNL     1       4.878   4.828   0.138  0.00  0.00    +0.013 A 
ATOM     23  C   UNL     1       6.235   4.599   0.224  0.00  0.00    +0.021 A 
ATOM     24  C   UNL     1       7.113   5.664   0.344  0.00  0.00    +0.041 A 
ATOM     25  C   UNL     1       6.635   6.964   0.371  0.00  0.00    +0.021 A 
ATOM     26  C   UNL     1       5.280   7.205   0.280  0.00  0.00    +0.013 A 
ATOM     27 CL   UNL     1       8.820   5.368   0.459  0.00  0.00    -0.084 Cl
ENDBRANCH  19  21
ENDBRANCH   6  19
BRANCH   1  28
ATOM     28  C   UNL     1      -0.175  -0.172   0.094  0.00  0.00    +0.059 C 
BRANCH  28  30
ATOM     29  C   UNL     1       0.903  -0.369  -2.151  0.00  0.00    +0.007 C 
ATOM     30  C   UNL     1      -0.359  -0.670  -1.341  0.00  0.00    -0.011 C 
ATOM     31  C   UNL     1      -0.609  -2.180  -1.328  0.00  0.00    +0.007 C 
ENDBRANCH  28  30
ENDBRANCH   1  28
TORSDOF 5
