REMARK  Name = ZINC23752408
REMARK  6 active torsions:
REMARK  status: ('A' for Active; 'I' for Inactive)
REMARK    1  A    between atoms: C_1  and  C_2
REMARK    2  A    between atoms: C_2  and  C_23
REMARK    3  A    between atoms: N_5  and  N_9
REMARK    4  A    between atoms: C_10  and  C_12
REMARK    5  A    between atoms: C_23  and  C_24
REMARK    6  A    between atoms: C_24  and  C_25
REMARK                            x       y       z     vdW  Elec       q    Type
REMARK                         _______ _______ _______ _____ _____    ______ ____
ROOT
ATOM      1  C   UNL     1      -5.422   4.033  -0.683  0.00  0.00    +0.041 C 
ATOM      2  C   UNL     1      -4.346   4.872  -1.375  0.00  0.00    +0.112 C 
ATOM      3  C   UNL     1      -4.772   5.235  -2.784  0.00  0.00    +0.263 C 
ATOM      4  O   UNL     1      -5.009   4.472  -3.696  0.00  0.00    -0.271 OA
ATOM      5  N   UNL     1      -4.831   6.581  -2.812  0.00  0.00    -0.137 N 
ATOM      6  C   UNL     1      -4.505   7.114  -1.629  0.00  0.00    +0.326 C 
ATOM      7  O   UNL     1      -4.486   8.309  -1.408  0.00  0.00    -0.251 OA
ATOM      8  N   UNL     1      -4.201   6.179  -0.710  0.00  0.00    -0.284 N 
ATOM      9  H   UNL     1      -3.895   6.228   0.345  0.00  0.00    +0.151 HD
ENDROOT
BRANCH   5  10
ATOM     10  N   UNL     1      -5.188   7.330  -3.941  0.00  0.00    -0.219 N 
ATOM     11  C   UNL     1      -4.242   7.986  -4.642  0.00  0.00    +0.267 C 
ATOM     12  O   UNL     1      -3.078   7.927  -4.294  0.00  0.00    -0.268 OA
ATOM     13  H   UNL     1      -6.241   7.383  -4.255  0.00  0.00    +0.174 HD
BRANCH  11  14
ATOM     14  C   UNL     1      -4.616   8.769  -5.823  0.00  0.00    +0.076 A 
ATOM     15  C   UNL     1      -3.817   9.509  -6.666  0.00  0.00    +0.024 A 
ATOM     16  C   UNL     1      -4.418  10.160  -7.746  0.00  0.00    -0.036 A 
ATOM     17  C   UNL     1      -5.759  10.071  -7.847  0.00  0.00    -0.006 A 
ATOM     18  S   UNL     1      -6.226   9.022  -6.543  0.00  0.00    -0.088 S 
ATOM     19  C   UNL     1      -6.762  10.726  -8.759  0.00  0.00    +0.043 C 
ATOM     20  C   UNL     1      -6.105  11.689  -9.749  0.00  0.00    +0.005 C 
ATOM     21  C   UNL     1      -5.494  10.930 -10.915  0.00  0.00    +0.000 C 
ATOM     22  C   UNL     1      -4.859   9.620 -10.494  0.00  0.00    +0.000 C 
ATOM     23  C   UNL     1      -3.440   9.943 -10.014  0.00  0.00    +0.005 C 
ATOM     24  C   UNL     1      -3.528  10.838  -8.779  0.00  0.00    +0.036 C 
ENDBRANCH  11  14
ENDBRANCH   5  10
BRANCH   2  25
ATOM     25  C   UNL     1      -3.011   4.125  -1.391  0.00  0.00    +0.040 C 
BRANCH  25  26
ATOM     26  C   UNL     1      -2.553   3.869   0.045  0.00  0.00    +0.038 C 
BRANCH  26  27
ATOM     27  C   UNL     1      -1.238   3.133   0.029  0.00  0.00    -0.047 A 
ATOM     28  C   UNL     1      -1.219   1.751   0.017  0.00  0.00    +0.003 A 
ATOM     29  C   UNL     1      -0.013   1.076   0.008  0.00  0.00    +0.000 A 
ATOM     30  C   UNL     1       1.175   1.783   0.000  0.00  0.00    +0.000 A 
ATOM     31  C   UNL     1       1.156   3.165   0.008  0.00  0.00    +0.000 A 
ATOM     32  C   UNL     1      -0.050   3.840   0.022  0.00  0.00    +0.003 A 
ENDBRANCH  26  27
ENDBRANCH  25  26
ENDBRANCH   2  25
TORSDOF 5
