REMARK  Name = ZINC11905281
REMARK  8 active torsions:
REMARK  status: ('A' for Active; 'I' for Inactive)
REMARK    1  A    between atoms: C_1  and  O_2
REMARK    2  A    between atoms: O_2  and  C_3
REMARK    3  A    between atoms: C_6  and  C_9
REMARK    4  A    between atoms: C_11  and  C_14
REMARK    5  A    between atoms: N_16  and  C_17
REMARK    6  A    between atoms: C_17  and  C_18
REMARK    7  A    between atoms: C_18  and  C_20
REMARK    8  A    between atoms: C_18  and  N_57
REMARK                            x       y       z     vdW  Elec       q    Type
REMARK                         _______ _______ _______ _____ _____    ______ ____
ROOT
ATOM      1  C   UNL     1       5.954   0.957   1.321  0.00  0.00    +0.266 C 
ATOM      2  O   UNL     1       5.439   1.650   0.467  0.00  0.00    -0.268 OA
ATOM      3  N   UNL     1       6.077  -0.371   1.129  0.00  0.00    -0.311 N 
ATOM      4  H   UNL     1       6.488  -0.924   1.812  0.00  0.00    +0.149 HD
ENDROOT
BRANCH   1   7
ATOM      5  C   UNL     1       6.974   2.990   4.167  0.00  0.00    +0.168 A 
ATOM      6  C   UNL     1       6.395   2.947   2.929  0.00  0.00    +0.086 A 
ATOM      7  C   UNL     1       6.449   1.574   2.577  0.00  0.00    +0.168 A 
ATOM      8  N   UNL     1       7.024   0.959   3.582  0.00  0.00    -0.073 NA
ATOM      9  O   UNL     1       7.320   1.726   4.467  0.00  0.00    -0.354 OA
BRANCH   5  13
ATOM     10  C   UNL     1       7.551   6.431   6.591  0.00  0.00    +0.120 A 
ATOM     11  C   UNL     1       7.966   5.186   7.046  0.00  0.00    +0.046 A 
ATOM     12  C   UNL     1       7.781   4.068   6.262  0.00  0.00    +0.015 A 
ATOM     13  C   UNL     1       7.175   4.187   5.010  0.00  0.00    +0.020 A 
ATOM     14  C   UNL     1       6.764   5.441   4.554  0.00  0.00    +0.015 A 
ATOM     15  C   UNL     1       6.948   6.554   5.345  0.00  0.00    +0.046 A 
BRANCH  10  17
ATOM     16  C   UNL     1       7.285   8.781   6.837  0.00  0.00    +0.277 C 
ATOM     17  O   UNL     1       7.735   7.532   7.366  0.00  0.00    -0.495 OA
ENDBRANCH  10  17
ENDBRANCH   5  13
ENDBRANCH   1   7
BRANCH   3  18
ATOM     18  C   UNL     1       5.588  -0.980  -0.110  0.00  0.00    +0.094 C 
BRANCH  18  19
ATOM     19  C   UNL     1       5.966  -2.462  -0.134  0.00  0.00    -0.013 C 
BRANCH  19  26
ATOM     20  C   UNL     1       3.955  -2.785  -1.460  0.00  0.00    -0.078 C 
ATOM     21  C   UNL     1       3.269  -3.620  -2.506  0.00  0.00    -0.019 C 
ATOM     22  C   UNL     1       2.658  -4.860  -1.820  0.00  0.00    -0.002 C 
ATOM     23  C   UNL     1       3.657  -5.885  -1.542  0.00  0.00    -0.002 C 
ATOM     24  C   UNL     1       4.760  -5.380  -0.588  0.00  0.00    -0.019 C 
ATOM     25  C   UNL     1       5.724  -4.537  -1.377  0.00  0.00    -0.078 C 
ATOM     26  N   UNL     1       5.428  -3.063  -1.365  0.00  0.00    +0.386 N 
ATOM     27  H   UNL     1       5.892  -2.633  -2.174  0.00  0.00    -0.081 HD
ENDBRANCH  19  26
BRANCH  19  28
ATOM     28  C   UNL     1       7.467  -2.597  -0.160  0.00  0.00    -0.022 A 
ATOM     29  C   UNL     1       8.318  -2.863   0.861  0.00  0.00    +0.009 A 
ATOM     30  C   UNL     1       9.673  -2.945   0.600  0.00  0.00    +0.008 A 
ATOM     31  C   UNL     1      10.111  -2.748  -0.667  0.00  0.00    +0.045 A 
ATOM     32  S   UNL     1       8.585  -2.442  -1.542  0.00  0.00    -0.103 S 
ENDBRANCH  19  28
ENDBRANCH  18  19
ENDBRANCH   3  18
TORSDOF 7
