REMARK  Name = ZINC41016654
REMARK  6 active torsions:
REMARK  status: ('A' for Active; 'I' for Inactive)
REMARK    1  A    between atoms: C_1  and  C_2
REMARK    2  A    between atoms: C_3  and  C_11
REMARK    3  A    between atoms: C_7  and  N_8
REMARK    4  A    between atoms: N_13  and  C_14
REMARK    5  A    between atoms: C_15  and  C_27
REMARK    6  A    between atoms: C_22  and  C_26
REMARK                            x       y       z     vdW  Elec       q    Type
REMARK                         _______ _______ _______ _____ _____    ______ ____
ROOT
ATOM      1  C   UNL     1      -0.769  -0.167  -2.476  0.00  0.00    +0.249 C 
ATOM      2  O   UNL     1      -0.933   1.036  -2.532  0.00  0.00    -0.270 OA
ATOM      3  N   UNL     1      -0.960  -0.925  -3.574  0.00  0.00    -0.275 N 
ATOM      4  H   UNL     1      -0.829  -1.885  -3.530  0.00  0.00    +0.156 HD
ENDROOT
BRANCH   3   5
ATOM      5  C   UNL     1      -1.340  -0.337  -4.758  0.00  0.00    +0.091 A 
ATOM      6  C   UNL     1      -1.557  -1.064  -5.922  0.00  0.00    +0.083 A 
ATOM      7  C   UNL     1      -1.948  -0.564  -7.181  0.00  0.00    -0.023 A 
ATOM      8  C   UNL     1      -2.210   0.723  -7.492  0.00  0.00    -0.022 A 
ATOM      9  C   UNL     1      -2.084   1.786  -6.553  0.00  0.00    +0.061 A 
ATOM     10  S   UNL     1      -2.400   3.414  -6.978  0.00  0.00    -0.044 S 
ATOM     11  S   UNL     1      -1.586   1.319  -4.912  0.00  0.00    -0.065 S 
ATOM     12  C   UNL     1      -2.678   1.171  -8.858  0.00  0.00    +0.040 C 
ATOM     13  C   UNL     1      -2.382   0.121  -9.921  0.00  0.00    -0.009 C 
ATOM     14  C   UNL     1      -2.920  -1.221  -9.407  0.00  0.00    +0.008 C 
ATOM     15  C   UNL     1      -2.049  -1.656  -8.238  0.00  0.00    +0.037 C 
ATOM     16  C   UNL     1      -3.082   0.495 -11.230  0.00  0.00    +0.008 C 
BRANCH   6  17
ATOM     17  C   UNL     1      -1.362  -2.480  -5.833  0.00  0.00    +0.102 C 
ATOM     18  N   UNL     1      -1.208  -3.603  -5.762  0.00  0.00    -0.191 NA
ENDBRANCH   6  17
ENDBRANCH   3   5
BRANCH   1  21
ATOM     19  C   UNL     1      -0.619   1.431  -0.068  0.00  0.00    +0.047 C 
ATOM     20  C   UNL     1      -0.285  -0.038  -0.036  0.00  0.00    -0.008 A 
ATOM     21  C   UNL     1      -0.361  -0.799  -1.204  0.00  0.00    +0.042 A 
ATOM     22  C   UNL     1      -0.050  -2.159  -1.165  0.00  0.00    +0.013 A 
ATOM     23  C   UNL     1       0.331  -2.743   0.026  0.00  0.00    +0.003 A 
ATOM     24  C   UNL     1       0.403  -1.983   1.180  0.00  0.00    +0.033 A 
ATOM     25  C   UNL     1       0.101  -0.633   1.147  0.00  0.00    +0.130 A 
BRANCH  25  26
ATOM     26  N   UNL     1       0.188   0.173   2.385  0.00  0.00    +0.057 N 
ATOM     27  O   UNL     1       0.394  -0.368   3.446  0.00  0.00    -0.126 OA
ATOM     28  O   UNL     1       0.051   1.373   2.336  0.00  0.00    -0.126 OA
ENDBRANCH  25  26
ENDBRANCH   1  21
TORSDOF 4
