REMARK  Name = ZINC01120063
REMARK  8 active torsions:
REMARK  status: ('A' for Active; 'I' for Inactive)
REMARK    1  A    between atoms: C_1  and  C_2
REMARK    2  A    between atoms: C_7  and  N_8
REMARK    3  A    between atoms: C_9  and  C_11
REMARK    4  A    between atoms: C_11  and  N_12
REMARK    5  A    between atoms: N_19  and  C_22
REMARK    6  A    between atoms: C_22  and  C_23
REMARK    7  A    between atoms: N_25  and  C_26
REMARK    8  A    between atoms: C_31  and  C_32
REMARK                            x       y       z     vdW  Elec       q    Type
REMARK                         _______ _______ _______ _____ _____    ______ ____
ROOT
ATOM      1  N   UNL     1      -2.186   4.124   0.145  0.00  0.00    -0.283 N 
ATOM      2  C   UNL     1      -1.185   3.155   0.113  0.00  0.00    +0.070 A 
ATOM      3  C   UNL     1      -1.202   1.769   0.122  0.00  0.00    +0.028 A 
ATOM      4  C   UNL     1      -0.013   1.066   0.085  0.00  0.00    +0.002 A 
ATOM      5  C   UNL     1       1.194   1.740   0.029  0.00  0.00    +0.002 A 
ATOM      6  C   UNL     1       1.221   3.121   0.014  0.00  0.00    +0.028 A 
ATOM      7  C   UNL     1       0.033   3.835   0.056  0.00  0.00    +0.070 A 
ATOM      8  N   UNL     1      -0.265   5.196   0.055  0.00  0.00    -0.283 N 
ATOM      9  C   UNL     1      -1.603   5.337   0.109  0.00  0.00    +0.331 A 
ATOM     10  O   UNL     1      -2.195   6.400   0.123  0.00  0.00    -0.246 OA
ENDROOT
BRANCH   1  11
ATOM     11  C   UNL     1      -3.626   3.866   0.207  0.00  0.00    +0.222 C 
BRANCH  11  13
ATOM     12  N   UNL     1      -5.492   3.529  -1.382  0.00  0.00    -0.284 N 
ATOM     13  C   UNL     1      -4.179   3.764  -1.192  0.00  0.00    +0.237 C 
ATOM     14  O   UNL     1      -3.442   3.894  -2.146  0.00  0.00    -0.274 OA
ATOM     15  H   UNL     1      -6.067   3.345  -0.622  0.00  0.00    +0.155 HD
BRANCH  12  22
ATOM     16  C   UNL     1      -7.873   2.051  -1.876  0.00  0.00    +0.045 C 
ATOM     17  C   UNL     1      -7.187   2.843  -2.959  0.00  0.00    -0.029 A 
ATOM     18  C   UNL     1      -7.713   2.866  -4.237  0.00  0.00    +0.005 A 
ATOM     19  C   UNL     1      -7.084   3.592  -5.231  0.00  0.00    +0.000 A 
ATOM     20  C   UNL     1      -5.928   4.298  -4.951  0.00  0.00    +0.002 A 
ATOM     21  C   UNL     1      -5.401   4.284  -3.675  0.00  0.00    +0.023 A 
ATOM     22  C   UNL     1      -6.027   3.550  -2.675  0.00  0.00    +0.036 A 
ENDBRANCH  12  22
ENDBRANCH  11  13
ENDBRANCH   1  11
BRANCH   8  23
ATOM     23  C   UNL     1       0.711   6.287   0.005  0.00  0.00    +0.222 C 
BRANCH  23  24
ATOM     24  C   UNL     1       0.988   6.648  -1.432  0.00  0.00    +0.237 C 
ATOM     25  O   UNL     1       0.426   6.051  -2.326  0.00  0.00    -0.274 OA
ATOM     26  N   UNL     1       1.861   7.632  -1.724  0.00  0.00    -0.284 N 
ATOM     27  H   UNL     1       2.362   8.062  -1.013  0.00  0.00    +0.155 HD
BRANCH  26  28
ATOM     28  C   UNL     1       2.044   8.035  -3.051  0.00  0.00    +0.036 A 
ATOM     29  C   UNL     1       1.972   7.101  -4.077  0.00  0.00    +0.023 A 
ATOM     30  C   UNL     1       2.148   7.503  -5.387  0.00  0.00    +0.002 A 
ATOM     31  C   UNL     1       2.406   8.830  -5.676  0.00  0.00    +0.000 A 
ATOM     32  C   UNL     1       2.483   9.761  -4.657  0.00  0.00    +0.005 A 
ATOM     33  C   UNL     1       2.303   9.367  -3.345  0.00  0.00    -0.029 A 
ATOM     34  C   UNL     1       2.388  10.382  -2.234  0.00  0.00    +0.045 C 
ENDBRANCH  26  28
ENDBRANCH  23  24
ENDBRANCH   8  23
TORSDOF 6
