REMARK  Name = ZINC40938077
REMARK  8 active torsions:
REMARK  status: ('A' for Active; 'I' for Inactive)
REMARK    1  A    between atoms: C_1  and  O_2
REMARK    2  A    between atoms: O_2  and  C_3
REMARK    3  A    between atoms: N_5  and  C_6
REMARK    4  A    between atoms: C_6  and  C_7
REMARK    5  A    between atoms: N_10  and  C_14
REMARK    6  A    between atoms: C_17  and  C_21
REMARK    7  A    between atoms: C_24  and  C_27
REMARK    8  A    between atoms: C_27  and  C_35
REMARK                            x       y       z     vdW  Elec       q    Type
REMARK                         _______ _______ _______ _____ _____    ______ ____
ROOT
ATOM      1  C   UNL     1       3.140  -7.117  -3.140  0.00  0.00    +0.042 A 
ATOM      2  C   UNL     1       3.097  -7.254  -4.523  0.00  0.00    +0.024 A 
ATOM      3  C   UNL     1       3.641  -8.369  -5.124  0.00  0.00    +0.013 A 
ATOM      4  C   UNL     1       4.235  -9.361  -4.345  0.00  0.00    +0.019 A 
ATOM      5  C   UNL     1       4.277  -9.222  -2.956  0.00  0.00    +0.133 A 
ATOM      6  C   UNL     1       3.736  -8.100  -2.360  0.00  0.00    +0.062 A 
ATOM      7  F   UNL     1       4.852 -10.181  -2.197  0.00  0.00    -0.205 F 
ENDROOT
BRANCH   1  10
ATOM      8  C   UNL     1       1.204  -4.139  -2.064  0.00  0.00    +0.213 C 
ATOM      9  C   UNL     1       1.924  -4.862  -3.227  0.00  0.00    +0.163 C 
ATOM     10  N   UNL     1       2.587  -5.985  -2.534  0.00  0.00    -0.234 N 
ATOM     11  C   UNL     1       2.563  -5.723  -1.213  0.00  0.00    +0.408 C 
ATOM     12  O   UNL     1       3.010  -6.475  -0.371  0.00  0.00    -0.226 OA
ATOM     13  O   UNL     1       1.992  -4.540  -0.926  0.00  0.00    -0.444 OA
BRANCH   8  14
ATOM     14  C   UNL     1       1.250  -2.621  -2.253  0.00  0.00    +0.153 C 
BRANCH  14  17
ATOM     15  C   UNL     1       0.549  -0.622  -1.049  0.00  0.00    +0.400 C 
ATOM     16  O   UNL     1       1.002   0.047  -1.956  0.00  0.00    -0.226 OA
ATOM     17  N   UNL     1       0.624  -1.967  -1.102  0.00  0.00    -0.278 N 
ATOM     18  H   UNL     1       0.262  -2.501  -0.377  0.00  0.00    +0.152 HD
BRANCH  15  20
ATOM     19  C   UNL     1      -0.071   1.408  -0.002  0.00  0.00    +0.282 C 
ATOM     20  O   UNL     1      -0.027  -0.021   0.009  0.00  0.00    -0.454 OA
ENDBRANCH  15  20
ENDBRANCH  14  17
ENDBRANCH   8  14
ENDBRANCH   1  10
BRANCH   4  21
ATOM     21  C   UNL     1       4.820 -10.562  -4.989  0.00  0.00    +0.003 A 
ATOM     22  C   UNL     1       6.114 -10.981  -4.668  0.00  0.00    +0.012 A 
ATOM     23  C   UNL     1       6.615 -12.108  -5.297  0.00  0.00    +0.025 A 
ATOM     24  C   UNL     1       5.826 -12.776  -6.215  0.00  0.00    +0.062 A 
ATOM     25  N   UNL     1       4.608 -12.357  -6.499  0.00  0.00    -0.258 NA
ATOM     26  C   UNL     1       4.087 -11.293  -5.921  0.00  0.00    +0.119 A 
BRANCH  24  27
ATOM     27  C   UNL     1       6.366 -14.003  -6.903  0.00  0.00    +0.102 C 
ATOM     28  C   UNL     1       5.397 -15.164  -7.140  0.00  0.00    +0.001 C 
ATOM     29  C   UNL     1       6.500 -15.278  -6.068  0.00  0.00    +0.001 C 
ATOM     30  C   UNL     1       5.747 -15.350  -4.723  0.00  0.00    -0.077 C 
ATOM     31  N   UNL     1       4.398 -15.862  -5.076  0.00  0.00    +0.379 N 
ATOM     32  C   UNL     1       4.054 -15.156  -6.379  0.00  0.00    -0.077 C 
ATOM     33  H   UNL     1       4.424 -16.861  -5.209  0.00  0.00    -0.086 HD
ATOM     34  H   UNL     1       3.729 -15.617  -4.361  0.00  0.00    -0.086 HD
BRANCH  27  35
ATOM     35  C   UNL     1       7.390 -13.755  -7.932  0.00  0.00    +0.076 C 
ATOM     36  N   UNL     1       8.180 -13.563  -8.725  0.00  0.00    -0.196 NA
ENDBRANCH  27  35
ENDBRANCH  24  27
ENDBRANCH   4  21
TORSDOF 7
