REMARK  Name = ZINC35999629
REMARK  1 active torsions:
REMARK  status: ('A' for Active; 'I' for Inactive)
REMARK    1  A    between atoms: C_14  and  C_16
REMARK                            x       y       z     vdW  Elec       q    Type
REMARK                         _______ _______ _______ _____ _____    ______ ____
ROOT
ATOM      1  C   UNL     1       0.076   1.486  -0.042  0.00  0.00    +0.000 A 
ATOM      2  C   UNL     1       1.274   2.180  -0.026  0.00  0.00    +0.001 A 
ATOM      3  C   UNL     1       2.469   1.491  -0.024  0.00  0.00    +0.010 A 
ATOM      4  C   UNL     1       2.462   0.093  -0.038  0.00  0.00    -0.002 A 
ATOM      5  C   UNL     1       1.253  -0.606  -0.060  0.00  0.00    -0.039 A 
ATOM      6  C   UNL     1       0.065   0.103  -0.058  0.00  0.00    +0.004 A 
ATOM      7  C   UNL     1       1.206  -2.109  -0.095  0.00  0.00    +0.036 C 
ATOM      8  C   UNL     1       2.502  -2.721   0.432  0.00  0.00    +0.016 C 
ATOM      9  C   UNL     1       3.690  -2.117  -0.321  0.00  0.00    +0.063 C 
ATOM     10  C   UNL     1       3.740  -0.648  -0.027  0.00  0.00    +0.031 C 
ATOM     11  N   UNL     1       4.844  -0.013   0.232  0.00  0.00    -0.338 N 
ATOM     12  C   UNL     1       6.022  -0.646   0.326  0.00  0.00    +0.152 C 
ATOM     13  N   UNL     1       6.103  -2.004   0.257  0.00  0.00    -0.358 N 
ATOM     14  C   UNL     1       4.968  -2.860  -0.025  0.00  0.00    +0.122 C 
ATOM     15  S   UNL     1       7.409   0.243   0.532  0.00  0.00    -0.013 SA
ATOM     16  H   UNL     1       4.815   0.948   0.359  0.00  0.00    +0.167 HD
ATOM     17  H   UNL     1       6.967  -2.420   0.405  0.00  0.00    +0.162 HD
ENDROOT
BRANCH  14  18
ATOM     18  C   UNL     1       5.305  -3.724  -1.213  0.00  0.00    -0.006 A 
ATOM     19  C   UNL     1       5.133  -5.094  -1.141  0.00  0.00    +0.007 A 
ATOM     20  C   UNL     1       5.442  -5.887  -2.230  0.00  0.00    +0.000 A 
ATOM     21  C   UNL     1       5.923  -5.311  -3.392  0.00  0.00    +0.001 A 
ATOM     22  C   UNL     1       6.095  -3.942  -3.464  0.00  0.00    +0.020 A 
ATOM     23  C   UNL     1       5.781  -3.147  -2.376  0.00  0.00    +0.046 A 
ATOM     24 CL   UNL     1       5.990  -1.426  -2.469  0.00  0.00    -0.083 Cl
ENDBRANCH  14  18
TORSDOF 1
