REMARK  Name = ZINC39635877
REMARK  7 active torsions:
REMARK  status: ('A' for Active; 'I' for Inactive)
REMARK    1  A    between atoms: C_1  and  C_2
REMARK    2  A    between atoms: C_8  and  N_10
REMARK    3  A    between atoms: C_11  and  C_13
REMARK    4  A    between atoms: C_24  and  C_26
REMARK    5  A    between atoms: C_26  and  C_28
REMARK    6  A    between atoms: C_26  and  O_29
REMARK    7  A    between atoms: O_29  and  C_30
REMARK                            x       y       z     vdW  Elec       q    Type
REMARK                         _______ _______ _______ _____ _____    ______ ____
ROOT
ATOM      1  C   UNL     1       4.177   0.521   2.374  0.00  0.00    +0.100 C 
ATOM      2  C   UNL     1       5.162  -0.439   1.669  0.00  0.00    +0.121 C 
ATOM      3  N   UNL     1       6.407  -0.349   2.467  0.00  0.00    -0.297 N 
ATOM      4  C   UNL     1       5.941  -0.280   3.872  0.00  0.00    +0.115 C 
ATOM      5  C   UNL     1       4.691   0.622   3.820  0.00  0.00    -0.004 C 
ATOM      6  C   UNL     1       3.632   0.112   4.794  0.00  0.00    -0.010 C 
ATOM      7  C   UNL     1       4.143   0.277   6.228  0.00  0.00    -0.082 C 
ATOM      8  N   UNL     1       4.434   1.692   6.486  0.00  0.00    +0.379 N 
ATOM      9  C   UNL     1       5.518   2.149   5.609  0.00  0.00    -0.082 C 
ATOM     10  C   UNL     1       5.066   2.064   4.148  0.00  0.00    -0.010 C 
ATOM     11  C   UNL     1       7.678  -0.335   2.017  0.00  0.00    +0.256 C 
ATOM     12  O   UNL     1       7.898  -0.310   0.825  0.00  0.00    -0.272 OA
ATOM     13  H   UNL     1       3.606   2.242   6.310  0.00  0.00    -0.086 HD
ATOM     14  H   UNL     1       4.712   1.807   7.449  0.00  0.00    -0.086 HD
ENDROOT
BRANCH   1  16
ATOM     15  N   UNL     1       1.718   0.769   2.463  0.00  0.00    -0.312 N 
ATOM     16  C   UNL     1       2.782  -0.050   2.351  0.00  0.00    +0.218 C 
ATOM     17  O   UNL     1       2.618  -1.245   2.232  0.00  0.00    -0.275 OA
ATOM     18  H   UNL     1       1.849   1.726   2.558  0.00  0.00    +0.149 HD
BRANCH  15  25
ATOM     19  C   UNL     1      -0.127   1.323   4.626  0.00  0.00    +0.009 C 
ATOM     20  C   UNL     1      -0.589   1.162   3.176  0.00  0.00    +0.006 C 
ATOM     21  C   UNL     1      -2.005   0.583   3.153  0.00  0.00    +0.005 C 
ATOM     22  C   UNL     1      -2.466   0.421   1.703  0.00  0.00    +0.000 C 
ATOM     23  C   UNL     1      -1.516  -0.526   0.968  0.00  0.00    +0.002 C 
ATOM     24  C   UNL     1      -0.100   0.053   0.991  0.00  0.00    +0.022 C 
ATOM     25  C   UNL     1       0.362   0.215   2.441  0.00  0.00    +0.076 C 
ENDBRANCH  15  25
ENDBRANCH   1  16
BRANCH  11  26
ATOM     26  C   UNL     1       8.824  -0.348   2.995  0.00  0.00    +0.256 C 
ATOM     27  C   UNL     1       8.844  -1.686   3.738  0.00  0.00    +0.062 C 
BRANCH  26  28
ATOM     28  O   UNL     1      10.055  -0.177   2.289  0.00  0.00    -0.480 OA
BRANCH  28  29
ATOM     29  C   UNL     1      11.098   0.344   2.987  0.00  0.00    +0.122 A 
ATOM     30  C   UNL     1      12.285   0.650   2.336  0.00  0.00    +0.045 A 
ATOM     31  C   UNL     1      13.344   1.180   3.047  0.00  0.00    +0.004 A 
ATOM     32  C   UNL     1      13.223   1.404   4.406  0.00  0.00    +0.000 A 
ATOM     33  C   UNL     1      12.042   1.099   5.057  0.00  0.00    +0.004 A 
ATOM     34  C   UNL     1      10.977   0.575   4.349  0.00  0.00    +0.045 A 
ENDBRANCH  28  29
ENDBRANCH  26  28
ENDBRANCH  11  26
TORSDOF 5
