REMARK  Name = ZINC40012610
REMARK  9 active torsions:
REMARK  status: ('A' for Active; 'I' for Inactive)
REMARK    1  A    between atoms: C_1  and  C_2
REMARK    2  A    between atoms: C_2  and  N_32
REMARK    3  A    between atoms: C_3  and  C_4
REMARK    4  A    between atoms: C_3  and  C_6
REMARK    5  A    between atoms: C_6  and  C_8
REMARK    6  A    between atoms: C_8  and  S_9
REMARK    7  A    between atoms: S_9  and  C_10
REMARK    8  A    between atoms: C_14  and  C_23
REMARK    9  A    between atoms: N_15  and  C_16
REMARK                            x       y       z     vdW  Elec       q    Type
REMARK                         _______ _______ _______ _____ _____    ______ ____
ROOT
ATOM      1  C   UNL     1       6.209  -0.645  -0.544  0.00  0.00    +0.241 C 
ATOM      2  N   UNL     1       6.496  -1.705   0.436  0.00  0.00    -0.237 N 
ATOM      3  N   UNL     1       6.915  -2.821  -0.297  0.00  0.00    -0.169 NA
ATOM      4  C   UNL     1       6.918  -2.573  -1.580  0.00  0.00    +0.151 C 
ATOM      5  N   UNL     1       6.503  -1.263  -1.848  0.00  0.00    -0.254 N 
ATOM      6  H   UNL     1       6.411  -1.642   1.400  0.00  0.00    +0.171 HD
ENDROOT
BRANCH   4   7
ATOM      7  C   UNL     1       7.292  -3.501  -2.565  0.00  0.00    +0.022 C 
ATOM      8  C   UNL     1       7.809  -4.781  -2.365  0.00  0.00    +0.006 A 
ATOM      9  C   UNL     1       8.107  -5.517  -1.198  0.00  0.00    +0.010 A 
ATOM     10  C   UNL     1       8.614  -6.772  -1.305  0.00  0.00    +0.001 A 
ATOM     11  C   UNL     1       8.850  -7.362  -2.549  0.00  0.00    +0.002 A 
ATOM     12  C   UNL     1       8.587  -6.713  -3.710  0.00  0.00    +0.026 A 
ATOM     13  C   UNL     1       8.056  -5.398  -3.678  0.00  0.00    +0.043 A 
ATOM     14  N   UNL     1       7.719  -4.569  -4.648  0.00  0.00    -0.380 N 
ATOM     15  C   UNL     1       7.211  -3.324  -4.065  0.00  0.00    +0.152 C 
ATOM     16  H   UNL     1       7.793  -4.756  -5.597  0.00  0.00    +0.160 HD
ENDBRANCH   4   7
BRANCH   5  17
ATOM     17  C   UNL     1       6.388  -0.659  -3.103  0.00  0.00    +0.038 A 
ATOM     18  C   UNL     1       5.225  -0.815  -3.846  0.00  0.00    +0.025 A 
ATOM     19  C   UNL     1       5.114  -0.217  -5.087  0.00  0.00    +0.022 A 
ATOM     20  C   UNL     1       6.162   0.535  -5.589  0.00  0.00    +0.041 A 
ATOM     21  C   UNL     1       7.322   0.692  -4.851  0.00  0.00    +0.022 A 
ATOM     22  C   UNL     1       7.435   0.102  -3.607  0.00  0.00    +0.025 A 
ATOM     23 CL   UNL     1       6.019   1.284  -7.149  0.00  0.00    -0.084 Cl
ENDBRANCH   5  17
BRANCH   1  24
ATOM     24  S   UNL     1       4.466  -0.152  -0.454  0.00  0.00    -0.110 S 
BRANCH  24  25
ATOM     25  C   UNL     1       3.558  -1.697  -0.734  0.00  0.00    +0.153 C 
BRANCH  25  26
ATOM     26  C   UNL     1       2.076  -1.425  -0.684  0.00  0.00    +0.185 C 
ATOM     27  O   UNL     1       1.672  -0.298  -0.480  0.00  0.00    -0.290 OA
BRANCH  26  30
ATOM     28  C   UNL     1       0.501  -1.442  -3.057  0.00  0.00    +0.061 C 
ATOM     29  C   UNL     1       0.334  -2.492  -1.989  0.00  0.00    +0.019 C 
ATOM     30  C   UNL     1       1.155  -2.483  -0.876  0.00  0.00    +0.111 C 
BRANCH  29  31
ATOM     31  N   UNL     1      -0.618  -3.440  -2.118  0.00  0.00    -0.360 N 
ATOM     32  H   UNL     1      -1.194  -3.446  -2.898  0.00  0.00    +0.142 HD
ATOM     33  H   UNL     1      -0.726  -4.115  -1.430  0.00  0.00    +0.142 HD
ENDBRANCH  29  31
BRANCH  30  34
ATOM     34  C   UNL     1       1.075  -3.545   0.082  0.00  0.00    +0.104 C 
ATOM     35  N   UNL     1       1.011  -4.387   0.841  0.00  0.00    -0.191 NA
ENDBRANCH  30  34
ENDBRANCH  26  30
ENDBRANCH  25  26
ENDBRANCH  24  25
ENDBRANCH   1  24
TORSDOF 8
