REMARK  Name = ZINC54710983
REMARK  7 active torsions:
REMARK  status: ('A' for Active; 'I' for Inactive)
REMARK    1  A    between atoms: C_1  and  C_2
REMARK    2  A    between atoms: C_2  and  C_3
REMARK    3  A    between atoms: C_2  and  N_4
REMARK    4  A    between atoms: C_5  and  C_7
REMARK    5  A    between atoms: C_7  and  C_8
REMARK    6  A    between atoms: C_8  and  S_9
REMARK    7  A    between atoms: S_9  and  C_10
REMARK                            x       y       z     vdW  Elec       q    Type
REMARK                         _______ _______ _______ _____ _____    ______ ____
ROOT
ATOM      1  C   UNL     1      -0.551  -1.830   7.481  0.00  0.00    +0.191 A 
ATOM      2  N   UNL     1      -0.228  -2.225   8.707  0.00  0.00    -0.207 NA
ATOM      3  C   UNL     1      -1.113  -2.265   9.688  0.00  0.00    +0.129 A 
ATOM      4  C   UNL     1      -2.456  -1.874   9.431  0.00  0.00    +0.047 A 
ATOM      5  C   UNL     1      -3.598  -1.830  10.329  0.00  0.00    +0.021 A 
ATOM      6  C   UNL     1      -4.785  -1.421   9.860  0.00  0.00    +0.048 A 
ATOM      7  S   UNL     1      -4.453  -1.058   8.147  0.00  0.00    -0.077 S 
ATOM      8  C   UNL     1      -2.728  -1.466   8.107  0.00  0.00    +0.114 A 
ATOM      9  N   UNL     1      -1.786  -1.449   7.184  0.00  0.00    -0.215 NA
ATOM     10  N   UNL     1      -0.736  -2.683  10.951  0.00  0.00    -0.343 N 
ATOM     11  H   UNL     1       0.181  -2.949  11.121  0.00  0.00    +0.144 HD
ATOM     12  H   UNL     1      -1.390  -2.710  11.668  0.00  0.00    +0.144 HD
ENDROOT
BRANCH   1  13
ATOM     13  S   UNL     1       0.686  -1.805   6.226  0.00  0.00    -0.085 S 
BRANCH  13  14
ATOM     14  C   UNL     1      -0.191  -1.204   4.756  0.00  0.00    +0.086 C 
BRANCH  14  15
ATOM     15  C   UNL     1       0.780  -1.133   3.576  0.00  0.00    +0.107 C 
BRANCH  15  17
ATOM     16  N   UNL     1       0.711  -0.489   1.189  0.00  0.00    -0.313 N 
ATOM     17  C   UNL     1       0.051  -0.633   2.355  0.00  0.00    +0.214 C 
ATOM     18  O   UNL     1      -1.129  -0.361   2.423  0.00  0.00    -0.276 OA
ATOM     19  H   UNL     1       1.654  -0.707   1.135  0.00  0.00    +0.149 HD
BRANCH  16  21
ATOM     20  C   UNL     1      -0.019   1.526   0.010  0.00  0.00    +0.027 C 
ATOM     21  C   UNL     1       0.002  -0.004   0.002  0.00  0.00    +0.067 C 
ATOM     22  C   UNL     1       0.718  -0.497  -1.257  0.00  0.00    +0.027 C 
ENDBRANCH  16  21
ENDBRANCH  15  17
ENDBRANCH  14  15
ENDBRANCH  13  14
ENDBRANCH   1  13
TORSDOF 5
