REMARK  Name = ZINC05048242
REMARK  11 active torsions:
REMARK  status: ('A' for Active; 'I' for Inactive)
REMARK    1  A    between atoms: C_1  and  O_2
REMARK    2  A    between atoms: O_2  and  C_3
REMARK    3  A    between atoms: C_5  and  O_27
REMARK    4  A    between atoms: C_6  and  C_11
REMARK    5  A    between atoms: C_7  and  O_9
REMARK    6  A    between atoms: O_9  and  C_10
REMARK    7  A    between atoms: N_12  and  N_13
REMARK    8  A    between atoms: N_13  and  C_14
REMARK    9  A    between atoms: C_14  and  N_16
REMARK   10  A    between atoms: N_16  and  C_17
REMARK   11  A    between atoms: O_27  and  C_28
REMARK                            x       y       z     vdW  Elec       q    Type
REMARK                         _______ _______ _______ _____ _____    ______ ____
ROOT
ATOM      1  N   UNL     1       3.725  -1.072   5.686  0.00  0.00    -0.218 N 
ATOM      2  H   UNL     1       3.627  -0.770   4.769  0.00  0.00    +0.176 HD
ENDROOT
BRANCH   1   4
ATOM      3  C   UNL     1       1.699  -0.074   6.291  0.00  0.00    +0.145 C 
ATOM      4  N   UNL     1       2.768  -0.719   6.646  0.00  0.00    -0.188 NA
BRANCH   3   8
ATOM      5  C   UNL     1       0.905   0.622   2.173  0.00  0.00    +0.127 A 
ATOM      6  C   UNL     1       1.094  -0.675   2.630  0.00  0.00    +0.092 A 
ATOM      7  C   UNL     1       1.359  -0.909   3.968  0.00  0.00    +0.136 A 
ATOM      8  C   UNL     1       1.424   0.167   4.865  0.00  0.00    +0.078 A 
ATOM      9  C   UNL     1       1.226   1.474   4.396  0.00  0.00    +0.136 A 
ATOM     10  C   UNL     1       0.969   1.692   3.055  0.00  0.00    +0.092 A 
BRANCH   5  12
ATOM     11  C   UNL     1       0.600  -0.301   0.004  0.00  0.00    +0.277 C 
ATOM     12  O   UNL     1       0.652   0.844   0.857  0.00  0.00    -0.495 OA
ENDBRANCH   5  12
BRANCH   9  13
ATOM     13  O   UNL     1       1.288   2.522   5.258  0.00  0.00    -0.494 OA
ATOM     14  C   UNL     1       1.077   3.825   4.710  0.00  0.00    +0.277 C 
ENDBRANCH   9  13
BRANCH   7  15
ATOM     15  O   UNL     1       1.550  -2.178   4.413  0.00  0.00    -0.494 OA
ATOM     16  C   UNL     1       1.573  -3.213   3.428  0.00  0.00    +0.277 C 
ENDBRANCH   7  15
ENDBRANCH   3   8
ENDBRANCH   1   4
BRANCH   1  17
ATOM     17  C   UNL     1       4.782  -1.831   6.035  0.00  0.00    +0.150 C 
ATOM     18  S   UNL     1       5.882  -2.370   4.838  0.00  0.00    -0.017 S 
BRANCH  17  19
ATOM     19  N   UNL     1       4.974  -2.167   7.326  0.00  0.00    -0.320 N 
ATOM     20  H   UNL     1       4.311  -1.928   7.993  0.00  0.00    +0.148 HD
BRANCH  19  21
ATOM     21  C   UNL     1       6.184  -2.892   7.723  0.00  0.00    +0.034 C 
ATOM     22  C   UNL     1       6.186  -3.088   9.240  0.00  0.00    +0.029 C 
ATOM     23  C   UNL     1       7.449  -3.845   9.655  0.00  0.00    -0.008 C 
ATOM     24  C   UNL     1       8.684  -3.042   9.242  0.00  0.00    +0.007 C 
ATOM     25  C   UNL     1       8.681  -2.846   7.725  0.00  0.00    -0.008 C 
ATOM     26  C   UNL     1       7.418  -2.088   7.311  0.00  0.00    +0.029 C 
ATOM     27  C   UNL     1       8.707  -4.211   7.034  0.00  0.00    +0.007 C 
ATOM     28  C   UNL     1       7.473  -5.014   7.447  0.00  0.00    -0.008 C 
ATOM     29  C   UNL     1       7.475  -5.210   8.964  0.00  0.00    +0.007 C 
ATOM     30  C   UNL     1       6.209  -4.257   7.032  0.00  0.00    +0.029 C 
ENDBRANCH  19  21
ENDBRANCH  17  19
ENDBRANCH   1  17
TORSDOF 8
