REMARK  Name = ZINC04651937
REMARK  7 active torsions:
REMARK  status: ('A' for Active; 'I' for Inactive)
REMARK    1  A    between atoms: C_1  and  C_2
REMARK    2  A    between atoms: C_3  and  C_23
REMARK    3  A    between atoms: C_8  and  C_10
REMARK    4  A    between atoms: C_19  and  C_21
REMARK    5  A    between atoms: C_26  and  C_29
REMARK    6  A    between atoms: C_29  and  C_30
REMARK    7  A    between atoms: C_29  and  C_31
REMARK                            x       y       z     vdW  Elec       q    Type
REMARK                         _______ _______ _______ _____ _____    ______ ____
ROOT
ATOM      1  C   UNL     1      -2.387   1.229   5.656  0.00  0.00    +0.054 C 
ATOM      2  C   UNL     1      -2.917   2.631   5.494  0.00  0.00    +0.016 A 
ATOM      3  C   UNL     1      -2.832   3.478   4.425  0.00  0.00    +0.083 A 
ATOM      4  N   UNL     1      -3.374   4.684   4.506  0.00  0.00    -0.224 NA
ATOM      5  C   UNL     1      -4.004   5.080   5.596  0.00  0.00    +0.165 A 
ATOM      6  S   UNL     1      -3.831   3.645   6.648  0.00  0.00    -0.057 S 
ATOM      7  N   UNL     1      -4.630   6.292   5.858  0.00  0.00    -0.264 N 
ATOM      8  C   UNL     1      -5.218   6.503   7.052  0.00  0.00    +0.223 C 
ATOM      9  O   UNL     1      -5.281   5.604   7.864  0.00  0.00    -0.275 OA
ATOM     10  H   UNL     1      -4.644   6.987   5.181  0.00  0.00    +0.157 HD
ENDROOT
BRANCH   8  11
ATOM     11  C   UNL     1      -5.798   7.855   7.379  0.00  0.00    +0.093 C 
ATOM     12  C   UNL     1      -4.931   8.571   8.459  0.00  0.00    +0.002 C 
ATOM     13  C   UNL     1      -4.726   7.497   9.571  0.00  0.00    +0.004 C 
ATOM     14  C   UNL     1      -6.123   7.353  10.244  0.00  0.00    +0.004 C 
ATOM     15  C   UNL     1      -7.032   8.338   9.448  0.00  0.00    +0.004 C 
ATOM     16  C   UNL     1      -6.010   9.488   9.136  0.00  0.00    +0.008 C 
ATOM     17  C   UNL     1      -7.191   7.701   8.031  0.00  0.00    +0.117 C 
BRANCH  17  18
ATOM     18  C   UNL     1      -7.558   6.244   8.148  0.00  0.00    +0.360 C 
ATOM     19  O   UNL     1      -7.940   5.800   9.205  0.00  0.00    -0.246 OA
ATOM     20  O   UNL     1      -7.461   5.439   7.078  0.00  0.00    -0.246 OA
ENDBRANCH  17  18
ENDBRANCH   8  11
BRANCH   3  21
ATOM     21  C   UNL     1      -2.134   3.053   3.187  0.00  0.00    +0.001 A 
ATOM     22  C   UNL     1      -2.599   3.473   1.942  0.00  0.00    +0.010 A 
ATOM     23  C   UNL     1      -1.945   3.075   0.794  0.00  0.00    +0.004 A 
ATOM     24  C   UNL     1      -0.829   2.261   0.877  0.00  0.00    -0.045 A 
ATOM     25  C   UNL     1      -0.367   1.836   2.109  0.00  0.00    +0.004 A 
ATOM     26  C   UNL     1      -1.010   2.232   3.265  0.00  0.00    +0.010 A 
BRANCH  24  27
ATOM     27  C   UNL     1      -0.119   1.830  -0.381  0.00  0.00    +0.013 C 
ATOM     28  C   UNL     1      -0.136   0.303  -0.478  0.00  0.00    +0.012 C 
ATOM     29  C   UNL     1       1.329   2.323  -0.343  0.00  0.00    +0.012 C 
ENDBRANCH  24  27
ENDBRANCH   3  21
TORSDOF 4
