REMARK  Name = ZINC63187664
REMARK  8 active torsions:
REMARK  status: ('A' for Active; 'I' for Inactive)
REMARK    1  A    between atoms: C_1  and  C_2
REMARK    2  A    between atoms: C_5  and  C_16
REMARK    3  A    between atoms: C_6  and  C_15
REMARK    4  A    between atoms: N_7  and  C_8
REMARK    5  A    between atoms: C_16  and  C_18
REMARK    6  A    between atoms: C_18  and  N_19
REMARK    7  A    between atoms: C_22  and  C_27
REMARK    8  A    between atoms: C_27  and  C_28
REMARK                            x       y       z     vdW  Elec       q    Type
REMARK                         _______ _______ _______ _____ _____    ______ ____
ROOT
ATOM      1  N   UNL     1      -4.673  -3.282   1.386  0.00  0.00    -0.217 N 
ATOM      2  C   UNL     1      -4.814  -4.503   0.833  0.00  0.00    +0.244 C 
ATOM      3  O   UNL     1      -4.238  -4.935  -0.143  0.00  0.00    -0.273 OA
ATOM      4  C   UNL     1      -5.840  -5.223   1.684  0.00  0.00    +0.165 C 
ATOM      5  N   UNL     1      -6.193  -4.231   2.715  0.00  0.00    -0.287 N 
ATOM      6  C   UNL     1      -5.457  -3.133   2.460  0.00  0.00    +0.310 C 
ATOM      7  O   UNL     1      -5.502  -2.120   3.129  0.00  0.00    -0.252 OA
ATOM      8  H   UNL     1      -6.829  -4.347   3.438  0.00  0.00    +0.151 HD
ENDROOT
BRANCH   1   9
ATOM      9  C   UNL     1      -3.770  -2.247   0.877  0.00  0.00    +0.197 C 
BRANCH   9  10
ATOM     10  C   UNL     1      -2.420  -2.393   1.531  0.00  0.00    +0.178 C 
ATOM     11  O   UNL     1      -2.231  -3.276   2.344  0.00  0.00    -0.291 OA
BRANCH  10  15
ATOM     12  C   UNL     1      -0.170   1.699   0.564  0.00  0.00    +0.029 C 
ATOM     13  C   UNL     1      -0.043   0.217   0.204  0.00  0.00    +0.080 C 
ATOM     14  C   UNL     1      -1.434  -0.441   0.131  0.00  0.00    +0.062 C 
ATOM     15  C   UNL     1      -1.382  -1.509   1.202  0.00  0.00    +0.015 C 
ATOM     16  C   UNL     1      -0.167  -1.466   1.786  0.00  0.00    +0.015 C 
ATOM     17  N   UNL     1       0.652  -0.513   1.273  0.00  0.00    -0.300 N 
ATOM     18  C   UNL     1       0.244  -2.392   2.902  0.00  0.00    +0.061 C 
BRANCH  17  19
ATOM     19  C   UNL     1       1.959  -0.261   1.698  0.00  0.00    +0.035 A 
ATOM     20  C   UNL     1       2.191   0.258   2.965  0.00  0.00    +0.023 A 
ATOM     21  C   UNL     1       3.484   0.505   3.383  0.00  0.00    +0.003 A 
ATOM     22  C   UNL     1       4.548   0.237   2.541  0.00  0.00    +0.020 A 
ATOM     23  C   UNL     1       4.321  -0.281   1.277  0.00  0.00    +0.043 A 
ATOM     24  C   UNL     1       3.029  -0.535   0.856  0.00  0.00    +0.043 A 
ATOM     25 CL   UNL     1       5.659  -0.616   0.224  0.00  0.00    -0.083 Cl
ENDBRANCH  17  19
ENDBRANCH  10  15
ENDBRANCH   9  10
ENDBRANCH   1   9
BRANCH   4  26
ATOM     26  C   UNL     1      -7.067  -5.594   0.848  0.00  0.00    +0.065 C 
BRANCH  26  27
ATOM     27  C   UNL     1      -8.015  -6.414   1.685  0.00  0.00    -0.039 C 
ATOM     28  C   UNL     1      -9.083  -5.962   2.383  0.00  0.00    -0.001 A 
ATOM     29  C   UNL     1      -9.657  -4.624   2.565  0.00  0.00    +0.010 A 
ATOM     30  C   UNL     1     -10.756  -4.482   3.341  0.00  0.00    +0.001 A 
ATOM     31  C   UNL     1     -11.357  -5.578   3.974  0.00  0.00    +0.002 A 
ATOM     32  C   UNL     1     -10.887  -6.838   3.855  0.00  0.00    +0.026 A 
ATOM     33  C   UNL     1      -9.737  -7.103   3.062  0.00  0.00    +0.043 A 
ATOM     34  N   UNL     1      -9.099  -8.217   2.795  0.00  0.00    -0.380 N 
ATOM     35  C   UNL     1      -7.970  -7.909   1.910  0.00  0.00    +0.144 C 
ATOM     36  H   UNL     1      -9.336  -9.098   3.124  0.00  0.00    +0.160 HD
ENDBRANCH  26  27
ENDBRANCH   4  26
TORSDOF 6
