REMARK  Name = ZINC59021353
REMARK  12 active torsions:
REMARK  status: ('A' for Active; 'I' for Inactive)
REMARK    1  A    between atoms: C_1  and  C_2
REMARK    2  A    between atoms: C_2  and  O_3
REMARK    3  A    between atoms: O_3  and  C_4
REMARK    4  A    between atoms: C_4  and  C_6
REMARK    5  A    between atoms: C_10  and  N_11
REMARK    6  A    between atoms: C_12  and  C_14
REMARK    7  A    between atoms: C_14  and  S_15
REMARK    8  A    between atoms: S_15  and  C_16
REMARK    9  A    between atoms: N_21  and  N_22
REMARK   10  A    between atoms: C_23  and  C_24
REMARK   11  A    between atoms: C_23  and  C_25
REMARK   12  A    between atoms: C_28  and  C_31
REMARK                            x       y       z     vdW  Elec       q    Type
REMARK                         _______ _______ _______ _____ _____    ______ ____
ROOT
ATOM      1  C   UNL     1      -2.418   1.159  -8.167  0.00  0.00    +0.173 C 
ENDROOT
BRANCH   1   3
ATOM      2  N   UNL     1      -0.395   2.442  -7.553  0.00  0.00    -0.279 N 
ATOM      3  C   UNL     1      -0.957   1.490  -8.323  0.00  0.00    +0.228 C 
ATOM      4  O   UNL     1      -0.286   0.899  -9.143  0.00  0.00    -0.275 OA
ATOM      5  H   UNL     1      -0.931   2.915  -6.897  0.00  0.00    +0.155 HD
BRANCH   2  10
ATOM      6  C   UNL     1       1.691   3.687  -6.998  0.00  0.00    +0.091 A 
ATOM      7  C   UNL     1       3.099   3.809  -7.337  0.00  0.00    -0.021 A 
ATOM      8  C   UNL     1       3.505   2.973  -8.316  0.00  0.00    -0.004 A 
ATOM      9  S   UNL     1       2.055   2.062  -8.760  0.00  0.00    -0.077 S 
ATOM     10  C   UNL     1       0.950   2.746  -7.697  0.00  0.00    +0.086 A 
ATOM     11  C   UNL     1       4.885   2.859  -8.886  0.00  0.00    +0.043 C 
ATOM     12  C   UNL     1       5.688   4.095  -8.457  0.00  0.00    +0.005 C 
ATOM     13  C   UNL     1       5.496   4.313  -6.953  0.00  0.00    +0.005 C 
ATOM     14  C   UNL     1       4.065   4.778  -6.673  0.00  0.00    +0.037 C 
BRANCH   6  15
ATOM     15  C   UNL     1       1.082   4.519  -5.958  0.00  0.00    +0.342 C 
ATOM     16  O   UNL     1       1.070   4.137  -4.803  0.00  0.00    -0.245 OA
BRANCH  15  17
ATOM     17  O   UNL     1       0.534   5.709  -6.280  0.00  0.00    -0.461 OA
BRANCH  17  19
ATOM     18  C   UNL     1      -0.609   7.776  -5.770  0.00  0.00    +0.048 C 
ATOM     19  C   UNL     1      -0.042   6.468  -5.215  0.00  0.00    +0.229 C 
ENDBRANCH  17  19
ENDBRANCH  15  17
ENDBRANCH   6  15
ENDBRANCH   2  10
ENDBRANCH   1   3
BRANCH   1  20
ATOM     20  S   UNL     1      -2.870  -0.153  -9.335  0.00  0.00    -0.075 S 
BRANCH  20  21
ATOM     21  C   UNL     1      -4.585  -0.422  -9.032  0.00  0.00    +0.211 A 
ATOM     22  N   UNL     1      -5.355  -1.314  -9.664  0.00  0.00    -0.186 NA
ATOM     23  C   UNL     1      -6.583  -1.252  -9.193  0.00  0.00    +0.232 A 
ATOM     24  N   UNL     1      -6.614  -0.301  -8.235  0.00  0.00    -0.245 N 
ATOM     25  N   UNL     1      -5.311   0.216  -8.146  0.00  0.00    -0.144 NA
ATOM     26  N   UNL     1      -7.653  -2.025  -9.607  0.00  0.00    -0.205 N 
ATOM     27  H   UNL     1      -8.524  -1.905  -9.197  0.00  0.00    +0.177 HD
ATOM     28  H   UNL     1      -7.383  -0.031  -7.710  0.00  0.00    +0.192 HD
BRANCH  26  29
ATOM     29  N   UNL     1      -7.478  -2.980 -10.616  0.00  0.00    -0.184 NA
ATOM     30  C   UNL     1      -8.503  -3.624 -11.085  0.00  0.00    +0.063 C 
ATOM     31  C   UNL     1      -8.299  -4.779 -12.032  0.00  0.00    +0.068 C 
BRANCH  30  32
ATOM     32  C   UNL     1      -9.867  -3.225 -10.691  0.00  0.00    -0.003 A 
ATOM     33  C   UNL     1     -10.180  -1.876 -10.514  0.00  0.00    +0.010 A 
ATOM     34  C   UNL     1     -11.458  -1.510 -10.146  0.00  0.00    +0.004 A 
ATOM     35  C   UNL     1     -12.429  -2.477  -9.953  0.00  0.00    -0.050 A 
ATOM     36  C   UNL     1     -12.126  -3.816 -10.128  0.00  0.00    +0.004 A 
ATOM     37  C   UNL     1     -10.854  -4.196 -10.501  0.00  0.00    +0.010 A 
ATOM     38  C   UNL     1     -13.823  -2.070  -9.551  0.00  0.00    +0.044 C 
ENDBRANCH  30  32
ENDBRANCH  26  29
ENDBRANCH  20  21
ENDBRANCH   1  20
TORSDOF 9
