REMARK  Name = ZINC03025054
REMARK  10 active torsions:
REMARK  status: ('A' for Active; 'I' for Inactive)
REMARK    1  A    between atoms: C_1  and  N_2
REMARK    2  A    between atoms: N_2  and  C_3
REMARK    3  A    between atoms: N_2  and  C_4
REMARK    4  A    between atoms: C_7  and  C_10
REMARK    5  A    between atoms: C_11  and  C_12
REMARK    6  A    between atoms: C_11  and  N_25
REMARK    7  A    between atoms: N_14  and  N_15
REMARK    8  A    between atoms: C_16  and  C_17
REMARK    9  A    between atoms: C_20  and  N_22
REMARK   10  A    between atoms: C_26  and  C_28
REMARK                            x       y       z     vdW  Elec       q    Type
REMARK                         _______ _______ _______ _____ _____    ______ ____
ROOT
ATOM      1  C   UNL     1      -2.687   7.850  -0.231  0.00  0.00    +0.036 C 
ATOM      2  C   UNL     1      -2.974   6.504  -0.165  0.00  0.00    +0.098 C 
ENDROOT
BRANCH   1   6
ATOM      3  C   UNL     1      -5.803  10.649  -0.796  0.00  0.00    +0.029 A 
ATOM      4  C   UNL     1      -4.602  11.054  -0.211  0.00  0.00    +0.023 A 
ATOM      5  C   UNL     1      -3.593  10.155  -0.026  0.00  0.00    +0.010 A 
ATOM      6  C   UNL     1      -3.765   8.818  -0.426  0.00  0.00    -0.023 A 
ATOM      7  C   UNL     1      -4.974   8.417  -1.019  0.00  0.00    +0.010 A 
ATOM      8  C   UNL     1      -5.979   9.323  -1.194  0.00  0.00    +0.023 A 
BRANCH   3  10
ATOM      9  C   UNL     1      -6.601  12.984  -0.680  0.00  0.00    +0.129 C 
ATOM     10  N   UNL     1      -6.825  11.568  -0.982  0.00  0.00    -0.336 N 
ATOM     11  C   UNL     1      -8.129  11.122  -1.479  0.00  0.00    +0.129 C 
ENDBRANCH   3  10
ENDBRANCH   1   6
BRANCH   2  12
ATOM     12  C   UNL     1      -1.886   5.526  -0.118  0.00  0.00    +0.277 C 
ATOM     13  O   UNL     1      -0.728   5.901  -0.141  0.00  0.00    -0.267 OA
ATOM     14  N   UNL     1      -2.166   4.209  -0.049  0.00  0.00    -0.202 N 
ATOM     15  H   UNL     1      -3.086   3.913   0.036  0.00  0.00    +0.178 HD
BRANCH  14  16
ATOM     16  N   UNL     1      -1.211   3.343  -0.097  0.00  0.00    -0.187 NA
ATOM     17  C   UNL     1      -1.489   2.038  -0.029  0.00  0.00    +0.145 C 
BRANCH  17  18
ATOM     18  C   UNL     1      -0.465   1.109  -0.080  0.00  0.00    +0.034 A 
ATOM     19  C   UNL     1      -0.539  -0.365  -0.023  0.00  0.00    +0.019 A 
ATOM     20  C   UNL     1       0.630  -1.008  -0.102  0.00  0.00    +0.041 A 
ATOM     21  C   UNL     1       1.815  -0.276  -0.229  0.00  0.00    +0.164 A 
ATOM     22  S   UNL     1       1.292   1.377  -0.241  0.00  0.00    -0.064 S 
BRANCH  21  23
ATOM     23  N   UNL     1       3.200  -0.794  -0.331  0.00  0.00    +0.063 N 
ATOM     24  O   UNL     1       3.421  -2.092  -0.304  0.00  0.00    -0.126 OA
ATOM     25  O   UNL     1       4.209   0.044  -0.447  0.00  0.00    -0.126 OA
ENDBRANCH  21  23
ENDBRANCH  17  18
ENDBRANCH  14  16
ENDBRANCH   2  12
BRANCH   2  26
ATOM     26  N   UNL     1      -4.297   6.075  -0.144  0.00  0.00    -0.277 N 
ATOM     27  C   UNL     1      -4.749   5.237  -1.097  0.00  0.00    +0.248 C 
ATOM     28  O   UNL     1      -3.979   4.780  -1.920  0.00  0.00    -0.270 OA
ATOM     29  H   UNL     1      -4.894   6.379   0.558  0.00  0.00    +0.155 HD
BRANCH  27  30
ATOM     30  C   UNL     1      -6.181   4.872  -1.143  0.00  0.00    +0.037 A 
ATOM     31  C   UNL     1      -7.066   5.390  -0.196  0.00  0.00    +0.013 A 
ATOM     32  C   UNL     1      -8.402   5.051  -0.247  0.00  0.00    +0.001 A 
ATOM     33  C   UNL     1      -8.863   4.190  -1.228  0.00  0.00    +0.000 A 
ATOM     34  C   UNL     1      -7.990   3.669  -2.166  0.00  0.00    +0.001 A 
ATOM     35  C   UNL     1      -6.652   4.004  -2.129  0.00  0.00    +0.013 A 
ENDBRANCH  27  30
ENDBRANCH   2  26
TORSDOF 8
