REMARK  Name = ZINC66801206
REMARK  11 active torsions:
REMARK  status: ('A' for Active; 'I' for Inactive)
REMARK    1  A    between atoms: C_1  and  C_2
REMARK    2  A    between atoms: C_5  and  O_8
REMARK    3  A    between atoms: O_8  and  C_9
REMARK    4  A    between atoms: C_9  and  C_11
REMARK    5  A    between atoms: C_9  and  C_12
REMARK    6  A    between atoms: N_14  and  C_15
REMARK    7  A    between atoms: C_20  and  S_21
REMARK    8  A    between atoms: S_21  and  C_22
REMARK    9  A    between atoms: C_22  and  C_24
REMARK   10  A    between atoms: C_22  and  C_25
REMARK   11  A    between atoms: C_25  and  C_26
REMARK                            x       y       z     vdW  Elec       q    Type
REMARK                         _______ _______ _______ _____ _____    ______ ____
ROOT
ATOM      1  C   UNL     1       0.746  -6.147   1.178  0.00  0.00    +0.258 C 
ATOM      2  O   UNL     1       1.250  -6.181   0.075  0.00  0.00    -0.271 OA
ATOM      3  N   UNL     1       1.194  -6.966   2.150  0.00  0.00    -0.282 N 
ATOM      4  H   UNL     1       0.750  -6.984   3.012  0.00  0.00    +0.155 HD
ENDROOT
BRANCH   3   5
ATOM      5  C   UNL     1       2.303  -7.791   1.915  0.00  0.00    +0.047 A 
ATOM      6  C   UNL     1       2.511  -8.334   0.656  0.00  0.00    +0.024 A 
ATOM      7  C   UNL     1       3.605  -9.147   0.426  0.00  0.00    +0.002 A 
ATOM      8  C   UNL     1       4.494  -9.422   1.449  0.00  0.00    +0.001 A 
ATOM      9  C   UNL     1       4.295  -8.886   2.707  0.00  0.00    +0.016 A 
ATOM     10  C   UNL     1       3.203  -8.063   2.945  0.00  0.00    +0.029 A 
BRANCH  10  11
ATOM     11  S   UNL     1       2.950  -7.372   4.546  0.00  0.00    -0.119 S 
BRANCH  11  12
ATOM     12  C   UNL     1       4.259  -8.116   5.558  0.00  0.00    +0.062 C 
ATOM     13  C   UNL     1       3.942  -9.594   5.795  0.00  0.00    +0.020 C 
BRANCH  12  14
ATOM     14  C   UNL     1       4.340  -7.389   6.901  0.00  0.00    +0.132 C 
BRANCH  14  15
ATOM     15  C   UNL     1       4.762  -5.996   6.681  0.00  0.00    +0.064 C 
ATOM     16  N   UNL     1       5.088  -4.921   6.511  0.00  0.00    -0.197 NA
ENDBRANCH  14  15
ENDBRANCH  12  14
ENDBRANCH  11  12
ENDBRANCH  10  11
ENDBRANCH   3   5
BRANCH   1  17
ATOM     17  C   UNL     1      -0.382  -5.188   1.461  0.00  0.00    +0.256 C 
ATOM     18  C   UNL     1      -1.624  -5.973   1.885  0.00  0.00    +0.062 C 
BRANCH  17  19
ATOM     19  O   UNL     1      -0.673  -4.434   0.283  0.00  0.00    -0.480 OA
BRANCH  19  24
ATOM     20  C   UNL     1      -2.364   0.889   1.006  0.00  0.00    +0.044 C 
ATOM     21  C   UNL     1      -1.912  -0.535   0.812  0.00  0.00    -0.050 A 
ATOM     22  C   UNL     1      -1.738  -1.359   1.909  0.00  0.00    +0.007 A 
ATOM     23  C   UNL     1      -1.323  -2.665   1.734  0.00  0.00    +0.046 A 
ATOM     24  C   UNL     1      -1.082  -3.150   0.457  0.00  0.00    +0.122 A 
ATOM     25  C   UNL     1      -1.258  -2.321  -0.642  0.00  0.00    +0.046 A 
ATOM     26  C   UNL     1      -1.678  -1.018  -0.462  0.00  0.00    +0.007 A 
ENDBRANCH  19  24
ENDBRANCH  17  19
ENDBRANCH   1  17
TORSDOF 8
