REMARK  Name = ZINC65214408
REMARK  6 active torsions:
REMARK  status: ('A' for Active; 'I' for Inactive)
REMARK    1  A    between atoms: C_1  and  C_2
REMARK    2  A    between atoms: C_6  and  C_7
REMARK    3  A    between atoms: C_10  and  C_12
REMARK    4  A    between atoms: C_12  and  C_13
REMARK    5  A    between atoms: N_15  and  C_16
REMARK    6  A    between atoms: C_21  and  C_22
REMARK                            x       y       z     vdW  Elec       q    Type
REMARK                         _______ _______ _______ _____ _____    ______ ____
ROOT
ATOM      1  C   UNL     1       0.076  -0.455   6.189  0.00  0.00    +0.193 C 
ENDROOT
BRANCH   1   5
ATOM      2  C   UNL     1       0.036  -0.202   2.573  0.00  0.00    +0.255 A 
ATOM      3  N   UNL     1       0.006   1.058   2.950  0.00  0.00    -0.107 NA
ATOM      4  N   UNL     1       0.017   1.116   4.236  0.00  0.00    -0.112 NA
ATOM      5  C   UNL     1       0.053  -0.091   4.727  0.00  0.00    +0.226 A 
ATOM      6  O   UNL     1       0.060  -0.952   3.694  0.00  0.00    -0.419 OA
BRANCH   2  12
ATOM      7  C   UNL     1      -0.020   1.523   0.016  0.00  0.00    +0.045 C 
ATOM      8  C   UNL     1       0.012   0.017   0.006  0.00  0.00    -0.031 A 
ATOM      9  C   UNL     1       0.024  -0.680  -1.180  0.00  0.00    +0.012 A 
ATOM     10  C   UNL     1       0.053  -2.038  -1.153  0.00  0.00    +0.046 A 
ATOM     11  S   UNL     1       0.065  -2.383   0.598  0.00  0.00    -0.092 S 
ATOM     12  C   UNL     1       0.036  -0.699   1.189  0.00  0.00    +0.079 A 
ENDBRANCH   2  12
ENDBRANCH   1   5
BRANCH   1  13
ATOM     13  C   UNL     1      -1.336  -0.614   6.690  0.00  0.00    +0.226 C 
ATOM     14  O   UNL     1      -2.270  -0.448   5.934  0.00  0.00    -0.275 OA
ATOM     15  N   UNL     1      -1.561  -0.941   7.978  0.00  0.00    -0.285 N 
ATOM     16  H   UNL     1      -0.816  -1.152   8.562  0.00  0.00    +0.155 HD
BRANCH  15  17
ATOM     17  C   UNL     1      -2.871  -0.976   8.473  0.00  0.00    +0.036 A 
ATOM     18  C   UNL     1      -3.863  -0.216   7.867  0.00  0.00    +0.026 A 
ATOM     19  C   UNL     1      -5.154  -0.252   8.356  0.00  0.00    +0.040 A 
ATOM     20  C   UNL     1      -5.459  -1.044   9.451  0.00  0.00    +0.124 A 
ATOM     21  C   UNL     1      -4.471  -1.802  10.056  0.00  0.00    +0.043 A 
ATOM     22  C   UNL     1      -3.180  -1.774   9.566  0.00  0.00    -0.027 A 
ATOM     23  C   UNL     1      -2.106  -2.603  10.221  0.00  0.00    +0.046 C 
ATOM     24  F   UNL     1      -6.722  -1.076   9.929  0.00  0.00    -0.205 F 
ENDBRANCH  15  17
ENDBRANCH   1  13
TORSDOF 4
