REMARK  Name = ZINC13174366
REMARK  9 active torsions:
REMARK  status: ('A' for Active; 'I' for Inactive)
REMARK    1  A    between atoms: C_1  and  C_2
REMARK    2  A    between atoms: C_5  and  N_9
REMARK    3  A    between atoms: C_7  and  C_8
REMARK    4  A    between atoms: C_10  and  C_12
REMARK    5  A    between atoms: C_12  and  S_13
REMARK    6  A    between atoms: S_13  and  C_14
REMARK    7  A    between atoms: C_15  and  C_32
REMARK    8  A    between atoms: C_16  and  C_26
REMARK    9  A    between atoms: C_29  and  C_31
REMARK                            x       y       z     vdW  Elec       q    Type
REMARK                         _______ _______ _______ _____ _____    ______ ____
ROOT
ATOM      1  C   UNL     1      -0.356  -8.692  -2.728  0.00  0.00    +0.080 C 
ATOM      2  C   UNL     1      -0.454  -9.475  -3.835  0.00  0.00    +0.072 C 
ATOM      3  C   UNL     1      -0.533 -10.969  -3.722  0.00  0.00    +0.132 C 
ATOM      4  C   UNL     1      -0.921 -11.389  -2.327  0.00  0.00    +0.027 C 
ATOM      5  C   UNL     1      -0.801 -10.537  -1.286  0.00  0.00    +0.016 C 
ATOM      6  N   UNL     1      -0.330  -9.265  -1.478  0.00  0.00    -0.311 N 
ATOM      7  C   UNL     1      -1.171 -10.963   0.113  0.00  0.00    +0.051 C 
ATOM      8  C   UNL     1      -2.302 -11.991   0.055  0.00  0.00    +0.014 C 
ATOM      9  C   UNL     1      -1.832 -13.184  -0.783  0.00  0.00    +0.080 C 
ATOM     10  C   UNL     1      -1.414 -12.693  -2.142  0.00  0.00    +0.162 C 
ATOM     11  O   UNL     1      -1.503 -13.437  -3.098  0.00  0.00    -0.292 OA
ATOM     12  H   UNL     1       0.021  -8.762  -0.726  0.00  0.00    +0.152 HD
ENDROOT
BRANCH   3  13
ATOM     13  C   UNL     1      -1.560 -11.485  -4.696  0.00  0.00    +0.118 A 
ATOM     14  C   UNL     1      -1.330 -12.354  -5.696  0.00  0.00    +0.046 A 
ATOM     15  C   UNL     1      -2.564 -12.559  -6.354  0.00  0.00    +0.044 A 
ATOM     16  C   UNL     1      -3.476 -11.803  -5.716  0.00  0.00    +0.102 A 
ATOM     17  O   UNL     1      -2.863 -11.159  -4.709  0.00  0.00    -0.464 OA
ATOM     18  C   UNL     1      -4.938 -11.700  -6.068  0.00  0.00    +0.086 C 
ENDBRANCH   3  13
BRANCH   2  19
ATOM     19  C   UNL     1      -0.481  -8.865  -5.130  0.00  0.00    +0.098 C 
ATOM     20  N   UNL     1      -0.504  -8.380  -6.157  0.00  0.00    -0.191 NA
ENDBRANCH   2  19
BRANCH   1  21
ATOM     21  S   UNL     1      -0.255  -6.941  -2.895  0.00  0.00    -0.100 S 
BRANCH  21  22
ATOM     22  C   UNL     1      -0.134  -6.343  -1.187  0.00  0.00    +0.171 C 
BRANCH  22  24
ATOM     23  N   UNL     1       0.059  -4.170  -0.021  0.00  0.00    -0.285 N 
ATOM     24  C   UNL     1      -0.040  -4.839  -1.187  0.00  0.00    +0.227 C 
ATOM     25  O   UNL     1      -0.054  -4.230  -2.236  0.00  0.00    -0.275 OA
ATOM     26  H   UNL     1       0.147  -4.658   0.812  0.00  0.00    +0.155 HD
BRANCH  23  31
ATOM     27  C   UNL     1      -0.041   1.502   0.014  0.00  0.00    +0.044 C 
ATOM     28  C   UNL     1      -0.015  -0.004   0.004  0.00  0.00    -0.047 A 
ATOM     29  C   UNL     1      -0.752  -0.702  -0.935  0.00  0.00    +0.005 A 
ATOM     30  C   UNL     1      -0.730  -2.082  -0.946  0.00  0.00    +0.023 A 
ATOM     31  C   UNL     1       0.034  -2.771  -0.013  0.00  0.00    +0.034 A 
ATOM     32  C   UNL     1       0.773  -2.068   0.929  0.00  0.00    +0.027 A 
ATOM     33  C   UNL     1       0.751  -0.686   0.932  0.00  0.00    -0.046 A 
ATOM     34  C   UNL     1       1.557   0.078   1.950  0.00  0.00    +0.044 C 
ENDBRANCH  23  31
ENDBRANCH  22  24
ENDBRANCH  21  22
ENDBRANCH   1  21
TORSDOF 6
