REMARK  Name = ZINC39668462
REMARK  7 active torsions:
REMARK  status: ('A' for Active; 'I' for Inactive)
REMARK    1  A    between atoms: C_1  and  C_2
REMARK    2  A    between atoms: C_2  and  C_4
REMARK    3  A    between atoms: C_2  and  O_35
REMARK    4  A    between atoms: C_4  and  N_5
REMARK    5  A    between atoms: C_6  and  C_8
REMARK    6  A    between atoms: C_19  and  C_21
REMARK    7  A    between atoms: O_35  and  C_36
REMARK                            x       y       z     vdW  Elec       q    Type
REMARK                         _______ _______ _______ _____ _____    ______ ____
ROOT
ATOM      1  C   UNL     1       1.486  -4.338  -1.527  0.00  0.00    +0.100 C 
ATOM      2  C   UNL     1       0.082  -4.647  -2.094  0.00  0.00    +0.121 C 
ATOM      3  N   UNL     1       0.203  -4.400  -3.550  0.00  0.00    -0.296 N 
ATOM      4  C   UNL     1       1.543  -4.927  -3.903  0.00  0.00    +0.115 C 
ATOM      5  C   UNL     1       2.442  -4.526  -2.716  0.00  0.00    -0.004 C 
ATOM      6  C   UNL     1       3.168  -3.220  -3.023  0.00  0.00    -0.010 C 
ATOM      7  C   UNL     1       4.154  -3.447  -4.172  0.00  0.00    -0.082 C 
ATOM      8  N   UNL     1       5.117  -4.487  -3.794  0.00  0.00    +0.379 N 
ATOM      9  C   UNL     1       4.422  -5.764  -3.590  0.00  0.00    -0.082 C 
ATOM     10  C   UNL     1       3.447  -5.635  -2.417  0.00  0.00    -0.010 C 
ATOM     11  C   UNL     1      -0.700  -3.825  -4.368  0.00  0.00    +0.247 C 
ATOM     12  O   UNL     1      -0.492  -3.777  -5.565  0.00  0.00    -0.270 OA
ATOM     13  H   UNL     1       5.803  -4.592  -4.527  0.00  0.00    -0.086 HD
ATOM     14  H   UNL     1       5.582  -4.219  -2.939  0.00  0.00    -0.086 HD
ENDROOT
BRANCH  11  15
ATOM     15  C   UNL     1      -1.943  -3.253  -3.811  0.00  0.00    +0.045 A 
ATOM     16  C   UNL     1      -2.734  -4.008  -2.937  0.00  0.00    +0.014 A 
ATOM     17  C   UNL     1      -3.893  -3.478  -2.415  0.00  0.00    +0.001 A 
ATOM     18  C   UNL     1      -4.290  -2.192  -2.749  0.00  0.00    +0.012 A 
ATOM     19  C   UNL     1      -3.520  -1.426  -3.616  0.00  0.00    +0.031 A 
ATOM     20  C   UNL     1      -2.333  -1.951  -4.150  0.00  0.00    +0.006 A 
ATOM     21  C   UNL     1      -1.712  -0.929  -5.029  0.00  0.00    -0.006 A 
ATOM     22  C   UNL     1      -0.550  -0.942  -5.789  0.00  0.00    +0.009 A 
ATOM     23  C   UNL     1      -0.196   0.172  -6.534  0.00  0.00    +0.001 A 
ATOM     24  C   UNL     1      -0.991   1.301  -6.526  0.00  0.00    +0.001 A 
ATOM     25  C   UNL     1      -2.154   1.331  -5.772  0.00  0.00    +0.012 A 
ATOM     26  C   UNL     1      -2.521   0.220  -5.022  0.00  0.00    +0.030 A 
ATOM     27  C   UNL     1      -3.686  -0.051  -4.146  0.00  0.00    +0.194 C 
ATOM     28  O   UNL     1      -4.597   0.713  -3.898  0.00  0.00    -0.287 OA
ENDBRANCH  11  15
BRANCH   1  30
ATOM     29  N   UNL     1       2.467  -2.571  -0.100  0.00  0.00    -0.312 N 
ATOM     30  C   UNL     1       1.548  -2.919  -1.023  0.00  0.00    +0.218 C 
ATOM     31  O   UNL     1       0.771  -2.091  -1.448  0.00  0.00    -0.275 OA
ATOM     32  H   UNL     1       3.088  -3.234   0.240  0.00  0.00    +0.149 HD
BRANCH  29  33
ATOM     33  C   UNL     1       2.527  -1.192   0.390  0.00  0.00    +0.148 C 
BRANCH  33  35
ATOM     34  C   UNL     1       3.632   0.341   2.024  0.00  0.00    +0.053 C 
ATOM     35  C   UNL     1       3.649  -1.066   1.422  0.00  0.00    +0.187 C 
BRANCH  35  36
ATOM     36  O   UNL     1       4.908  -1.297   0.787  0.00  0.00    -0.486 OA
BRANCH  36  37
ATOM     37  C   UNL     1       5.934  -1.705   1.581  0.00  0.00    +0.139 A 
ATOM     38  C   UNL     1       5.726  -1.941   2.936  0.00  0.00    +0.049 A 
ATOM     39  C   UNL     1       6.802  -2.355   3.705  0.00  0.00    +0.023 A 
ATOM     40  C   UNL     1       8.037  -2.518   3.105  0.00  0.00    +0.111 A 
ATOM     41  N   UNL     1       8.200  -2.286   1.817  0.00  0.00    -0.260 NA
ATOM     42  C   UNL     1       7.201  -1.896   1.050  0.00  0.00    +0.156 A 
ENDBRANCH  36  37
ENDBRANCH  35  36
ENDBRANCH  33  35
ENDBRANCH  29  33
ENDBRANCH   1  30
TORSDOF 6
