REMARK  Name = ZINC66588582
REMARK  7 active torsions:
REMARK  status: ('A' for Active; 'I' for Inactive)
REMARK    1  A    between atoms: C_3  and  S_10
REMARK    2  A    between atoms: C_6  and  N_7
REMARK    3  A    between atoms: S_10  and  N_13
REMARK    4  A    between atoms: N_13  and  N_14
REMARK    5  A    between atoms: C_15  and  C_17
REMARK    6  A    between atoms: C_17  and  C_18
REMARK    7  A    between atoms: C_18  and  C_19
REMARK                            x       y       z     vdW  Elec       q    Type
REMARK                         _______ _______ _______ _____ _____    ______ ____
ROOT
ATOM      1  N   UNL     1       4.327   2.556   1.555  0.00  0.00    -0.108 NA
ATOM      2  H   UNL     1       4.426   3.458   1.897  0.00  0.00    +0.172 HD
ENDROOT
BRANCH   1   3
ATOM      3  N   UNL     1       4.553   1.458   2.396  0.00  0.00    -0.232 N 
ATOM      4  C   UNL     1       5.725   1.342   3.052  0.00  0.00    +0.228 C 
ATOM      5  O   UNL     1       6.584   2.187   2.914  0.00  0.00    -0.274 OA
ATOM      6  H   UNL     1       3.867   0.782   2.507  0.00  0.00    +0.171 HD
BRANCH   4   7
ATOM      7  C   UNL     1       5.968   0.162   3.957  0.00  0.00    +0.097 C 
BRANCH   7   8
ATOM      8  C   UNL     1       7.365   0.271   4.573  0.00  0.00    +0.013 C 
BRANCH   8   9
ATOM      9  C   UNL     1       7.612  -0.927   5.492  0.00  0.00    -0.011 C 
ATOM     10  C   UNL     1       6.642  -0.872   6.674  0.00  0.00    +0.003 C 
ATOM     11  C   UNL     1       6.889  -2.071   7.593  0.00  0.00    +0.000 C 
ATOM     12  C   UNL     1       8.328  -2.028   8.111  0.00  0.00    +0.000 C 
ATOM     13  C   UNL     1       9.297  -2.083   6.929  0.00  0.00    +0.000 C 
ATOM     14  C   UNL     1       9.050  -0.885   6.010  0.00  0.00    +0.003 C 
ENDBRANCH   8   9
ENDBRANCH   7   8
ENDBRANCH   4   7
ENDBRANCH   1   3
BRANCH   1  15
ATOM     15  S   UNL     1       3.891   2.312  -0.024  0.00  0.00    +0.074 S 
ATOM     16  O   UNL     1       4.872   1.453  -0.588  0.00  0.00    -0.152 OA
ATOM     17  O   UNL     1       3.597   3.593  -0.566  0.00  0.00    -0.152 OA
BRANCH  15  20
ATOM     18  C   UNL     1      -0.017   1.378   0.010  0.00  0.00    +0.034 A 
ATOM     19  C   UNL     1       1.171   2.086   0.002  0.00  0.00    +0.031 A 
ATOM     20  C   UNL     1       2.377   1.411  -0.013  0.00  0.00    +0.107 A 
ATOM     21  C   UNL     1       2.396   0.029  -0.020  0.00  0.00    +0.031 A 
ATOM     22  C   UNL     1       1.208  -0.679  -0.012  0.00  0.00    +0.034 A 
ATOM     23  C   UNL     1       0.002  -0.004   0.002  0.00  0.00    +0.126 A 
BRANCH  23  24
ATOM     24  N   UNL     1      -1.270  -0.761   0.011  0.00  0.00    +0.056 N 
ATOM     25  O   UNL     1      -2.325  -0.171   0.024  0.00  0.00    -0.126 OA
ATOM     26  O   UNL     1      -1.253  -1.970   0.004  0.00  0.00    -0.126 OA
ENDBRANCH  23  24
ENDBRANCH  15  20
ENDBRANCH   1  15
TORSDOF 7
