REMARK  Name = ZINC41584454
REMARK  15 active torsions:
REMARK  status: ('A' for Active; 'I' for Inactive)
REMARK    1  A    between atoms: C_1  and  C_2
REMARK    2  A    between atoms: C_2  and  C_3
REMARK    3  A    between atoms: C_3  and  N_4
REMARK    4  A    between atoms: N_4  and  C_5
REMARK    5  A    between atoms: N_4  and  C_8
REMARK    6  A    between atoms: C_5  and  C_6
REMARK    7  A    between atoms: C_6  and  C_7
REMARK    8  A    between atoms: C_8  and  C_9
REMARK    9  A    between atoms: C_10  and  O_31
REMARK   10  A    between atoms: C_12  and  C_30
REMARK   11  A    between atoms: C_17  and  C_18
REMARK   12  A    between atoms: C_22  and  O_26
REMARK   13  A    between atoms: C_23  and  O_24
REMARK   14  A    between atoms: O_24  and  C_25
REMARK   15  A    between atoms: O_26  and  C_27
REMARK                            x       y       z     vdW  Elec       q    Type
REMARK                         _______ _______ _______ _____ _____    ______ ____
ROOT
ATOM      1  C   UNL     1       0.086  -2.441   4.111  0.00  0.00    +0.020 A 
ATOM      2  C   UNL     1       0.463  -1.355   4.883  0.00  0.00    +0.122 A 
ATOM      3  C   UNL     1      -0.328  -0.935   5.949  0.00  0.00    +0.050 A 
ATOM      4  C   UNL     1      -1.489  -1.593   6.242  0.00  0.00    -0.033 A 
ATOM      5  C   UNL     1      -1.881  -2.688   5.473  0.00  0.00    +0.071 A 
ATOM      6  C   UNL     1      -1.094  -3.118   4.392  0.00  0.00    +0.145 A 
ATOM      7  O   UNL     1      -1.677  -4.182   3.799  0.00  0.00    -0.451 OA
ATOM      8  C   UNL     1      -2.840  -4.521   4.404  0.00  0.00    +0.176 C 
ATOM      9  C   UNL     1      -3.661  -5.542   4.048  0.00  0.00    +0.062 C 
ATOM     10  C   UNL     1      -3.045  -3.592   5.525  0.00  0.00    +0.232 C 
ATOM     11  O   UNL     1      -3.975  -3.566   6.312  0.00  0.00    -0.283 OA
ATOM     12  C   UNL     1      -2.344  -1.136   7.396  0.00  0.00    +0.045 C 
ENDROOT
BRANCH   9  13
ATOM     13  C   UNL     1      -4.969  -5.692   4.697  0.00  0.00    +0.024 A 
ATOM     14  C   UNL     1      -5.762  -4.566   4.953  0.00  0.00    +0.012 A 
ATOM     15  C   UNL     1      -6.988  -4.712   5.562  0.00  0.00    +0.004 A 
ATOM     16  C   UNL     1      -7.445  -5.969   5.924  0.00  0.00    +0.049 A 
ATOM     17  C   UNL     1      -6.673  -7.093   5.678  0.00  0.00    +0.162 A 
ATOM     18  C   UNL     1      -5.435  -6.965   5.059  0.00  0.00    +0.169 A 
BRANCH  18  19
ATOM     19  O   UNL     1      -4.678  -8.065   4.812  0.00  0.00    -0.491 OA
ATOM     20  C   UNL     1      -3.765  -8.468   5.834  0.00  0.00    +0.277 C 
ENDBRANCH  18  19
BRANCH  17  21
ATOM     21  O   UNL     1      -7.129  -8.323   6.038  0.00  0.00    -0.491 OA
ATOM     22  C   UNL     1      -8.412  -8.381   6.665  0.00  0.00    +0.277 C 
ENDBRANCH  17  21
ENDBRANCH   9  13
BRANCH   2  23
ATOM     23  O   UNL     1       1.615  -0.695   4.600  0.00  0.00    -0.506 OA
ATOM     24  H   UNL     1       1.506   0.036   3.976  0.00  0.00    +0.292 HD
ENDBRANCH   2  23
BRANCH   1  25
ATOM     25  C   UNL     1       0.953  -2.885   2.960  0.00  0.00    -0.036 C 
BRANCH  25  26
ATOM     26  N   UNL     1       0.545  -2.179   1.739  0.00  0.00    +0.383 N 
ATOM     27  H   UNL     1      -0.441  -2.325   1.579  0.00  0.00    -0.081 HD
BRANCH  26  28
ATOM     28  C   UNL     1       0.809  -0.742   1.892  0.00  0.00    -0.079 C 
BRANCH  28  30
ATOM     29  C   UNL     1       0.438   1.513   0.882  0.00  0.00    +0.002 C 
ATOM     30  C   UNL     1       0.287   0.007   0.664  0.00  0.00    -0.022 C 
ENDBRANCH  28  30
ENDBRANCH  26  28
BRANCH  26  31
ATOM     31  C   UNL     1       1.308  -2.697   0.595  0.00  0.00    -0.079 C 
BRANCH  31  32
ATOM     32  C   UNL     1       0.924  -4.157   0.346  0.00  0.00    -0.022 C 
ATOM     33  C   UNL     1       1.615  -4.657  -0.924  0.00  0.00    +0.002 C 
ENDBRANCH  31  32
ENDBRANCH  26  31
ENDBRANCH  25  26
ENDBRANCH   1  25
TORSDOF 10
