REMARK  Name = ZINC02734416
REMARK  5 active torsions:
REMARK  status: ('A' for Active; 'I' for Inactive)
REMARK    1  A    between atoms: C_1  and  C_2
REMARK    2  A    between atoms: C_9  and  N_14
REMARK    3  A    between atoms: C_10  and  C_11
REMARK    4  A    between atoms: C_15  and  C_17
REMARK    5  A    between atoms: C_17  and  C_18
REMARK                            x       y       z     vdW  Elec       q    Type
REMARK                         _______ _______ _______ _____ _____    ______ ____
ROOT
ATOM      1  C   UNL     1      -0.734   1.582   1.262  0.00  0.00    +0.008 C 
ATOM      2  C   UNL     1      -0.013   1.086   0.008  0.00  0.00    -0.009 C 
ATOM      3  C   UNL     1      -0.738   1.596  -1.241  0.00  0.00    +0.008 C 
ATOM      4  C   UNL     1      -0.177   0.907  -2.486  0.00  0.00    +0.037 C 
ATOM      5  C   UNL     1       1.339   1.061  -2.490  0.00  0.00    -0.023 A 
ATOM      6  C   UNL     1       2.009   1.379  -1.361  0.00  0.00    -0.004 A 
ATOM      7  S   UNL     1       3.710   1.446  -1.849  0.00  0.00    -0.077 S 
ATOM      8  C   UNL     1       3.535   1.056  -3.528  0.00  0.00    +0.084 A 
ATOM      9  C   UNL     1       2.166   0.884  -3.672  0.00  0.00    +0.068 A 
ATOM     10  C   UNL     1       1.427   1.620  -0.003  0.00  0.00    +0.046 C 
ENDROOT
BRANCH   9  11
ATOM     11  C   UNL     1       1.576   0.536  -4.968  0.00  0.00    +0.244 C 
ATOM     12  O   UNL     1       1.436  -0.633  -5.279  0.00  0.00    -0.270 OA
ATOM     13  N   UNL     1       1.187   1.509  -5.815  0.00  0.00    -0.325 N 
ATOM     14  H   UNL     1       1.299   2.441  -5.567  0.00  0.00    +0.145 HD
ATOM     15  H   UNL     1       0.797   1.279  -6.672  0.00  0.00    +0.145 HD
ENDBRANCH   9  11
BRANCH   8  16
ATOM     16  N   UNL     1       4.524   0.944  -4.494  0.00  0.00    -0.279 N 
ATOM     17  C   UNL     1       5.815   1.149  -4.164  0.00  0.00    +0.222 C 
ATOM     18  O   UNL     1       6.111   1.432  -3.022  0.00  0.00    -0.275 OA
ATOM     19  H   UNL     1       4.287   0.718  -5.407  0.00  0.00    +0.155 HD
BRANCH  17  20
ATOM     20  C   UNL     1       6.889   1.027  -5.213  0.00  0.00    +0.131 C 
BRANCH  20  21
ATOM     21  C   UNL     1       8.233   1.303  -4.590  0.00  0.00    -0.039 A 
ATOM     22  C   UNL     1       8.733   2.591  -4.567  0.00  0.00    +0.005 A 
ATOM     23  C   UNL     1       9.964   2.845  -3.990  0.00  0.00    +0.020 A 
ATOM     24  C   UNL     1      10.700   1.808  -3.447  0.00  0.00    +0.041 A 
ATOM     25  C   UNL     1      10.202   0.517  -3.476  0.00  0.00    +0.020 A 
ATOM     26  C   UNL     1       8.969   0.266  -4.047  0.00  0.00    +0.005 A 
ATOM     27 CL   UNL     1      12.248   2.125  -2.729  0.00  0.00    -0.084 Cl
ENDBRANCH  20  21
ENDBRANCH  17  20
ENDBRANCH   8  16
TORSDOF 4
