REMARK  Name = ZINC04537125
REMARK  5 active torsions:
REMARK  status: ('A' for Active; 'I' for Inactive)
REMARK    1  A    between atoms: C_3  and  C_6
REMARK    2  A    between atoms: C_9  and  S_12
REMARK    3  A    between atoms: N_10  and  N_11
REMARK    4  A    between atoms: S_12  and  C_13
REMARK    5  A    between atoms: C_13  and  C_14
REMARK                            x       y       z     vdW  Elec       q    Type
REMARK                         _______ _______ _______ _____ _____    ______ ____
ROOT
ATOM      1  C   UNL     1       0.914   5.126   0.021  0.00  0.00    +0.188 A 
ATOM      2  N   UNL     1       0.212   6.201   0.307  0.00  0.00    -0.126 NA
ATOM      3  N   UNL     1       0.953   7.246   0.210  0.00  0.00    -0.121 NA
ATOM      4  C   UNL     1       2.172   6.907  -0.142  0.00  0.00    +0.209 A 
ATOM      5  N   UNL     1       2.193   5.545  -0.271  0.00  0.00    -0.223 N 
ENDROOT
BRANCH   1   8
ATOM      6  C   UNL     1      -1.081   1.915   0.017  0.00  0.00    +0.008 A 
ATOM      7  C   UNL     1      -0.866   3.275   0.028  0.00  0.00    +0.019 A 
ATOM      8  C   UNL     1       0.426   3.737   0.018  0.00  0.00    +0.058 A 
ATOM      9  S   UNL     1       1.361   2.216   0.001  0.00  0.00    -0.093 S 
ATOM     10  C   UNL     1      -0.013   1.076   0.008  0.00  0.00    +0.046 A 
ENDBRANCH   1   8
BRANCH   5  11
ATOM     11  N   UNL     1       3.259   4.765  -0.618  0.00  0.00    -0.295 N 
ATOM     12  H   UNL     1       3.307   4.643  -1.619  0.00  0.00    +0.163 HD
ATOM     13  H   UNL     1       4.120   5.149  -0.259  0.00  0.00    +0.163 HD
ENDBRANCH   5  11
BRANCH   4  14
ATOM     14  S   UNL     1       3.530   8.001  -0.397  0.00  0.00    -0.080 S 
BRANCH  14  15
ATOM     15  C   UNL     1       2.729   9.584  -0.036  0.00  0.00    +0.112 C 
BRANCH  15  16
ATOM     16  C   UNL     1       3.730  10.700  -0.194  0.00  0.00    -0.036 A 
ATOM     17  C   UNL     1       4.488  11.106   0.888  0.00  0.00    +0.006 A 
ATOM     18  C   UNL     1       5.410  12.126   0.743  0.00  0.00    +0.022 A 
ATOM     19  C   UNL     1       5.566  12.748  -0.483  0.00  0.00    +0.059 A 
ATOM     20  C   UNL     1       4.802  12.345  -1.565  0.00  0.00    +0.060 A 
ATOM     21  C   UNL     1       3.884  11.320  -1.419  0.00  0.00    +0.026 A 
ATOM     22 CL   UNL     1       4.997  13.124  -3.104  0.00  0.00    -0.082 Cl
ATOM     23 CL   UNL     1       6.719  14.033  -0.664  0.00  0.00    -0.082 Cl
ENDBRANCH  15  16
ENDBRANCH  14  15
ENDBRANCH   4  14
TORSDOF 5
