REMARK  Name = ZINC28822547
REMARK  12 active torsions:
REMARK  status: ('A' for Active; 'I' for Inactive)
REMARK    1  A    between atoms: C_1  and  C_2
REMARK    2  A    between atoms: C_3  and  C_24
REMARK    3  A    between atoms: N_7  and  C_23
REMARK    4  A    between atoms: C_9  and  C_12
REMARK    5  A    between atoms: N_14  and  C_15
REMARK    6  A    between atoms: C_15  and  C_16
REMARK    7  A    between atoms: C_24  and  N_25
REMARK    8  A    between atoms: N_25  and  C_26
REMARK    9  A    between atoms: N_25  and  C_27
REMARK   10  A    between atoms: C_27  and  C_28
REMARK   11  A    between atoms: C_28  and  C_30
REMARK   12  A    between atoms: C_28  and  O_36
REMARK                            x       y       z     vdW  Elec       q    Type
REMARK                         _______ _______ _______ _____ _____    ______ ____
ROOT
ATOM      1  C   UNL     1       2.030  -5.932   0.867  0.00  0.00    +0.047 C 
ATOM      2  C   UNL     1       0.958  -4.991   0.380  0.00  0.00    -0.015 A 
ATOM      3  C   UNL     1      -0.289  -5.458   0.145  0.00  0.00    +0.009 A 
ATOM      4  S   UNL     1      -1.154  -3.994  -0.398  0.00  0.00    -0.086 S 
ATOM      5  C   UNL     1       0.198  -2.850  -0.279  0.00  0.00    +0.084 A 
ATOM      6  C   UNL     1       1.258  -3.641   0.173  0.00  0.00    +0.063 A 
ATOM      7  N   UNL     1       2.487  -3.009   0.367  0.00  0.00    -0.348 N 
ATOM      8  C   UNL     1       2.683  -1.707   0.143  0.00  0.00    +0.102 A 
ATOM      9  C   UNL     1       1.674  -0.880  -0.303  0.00  0.00    +0.100 A 
ATOM     10  C   UNL     1       0.344  -1.479  -0.526  0.00  0.00    +0.208 A 
ATOM     11  O   UNL     1      -0.595  -0.803  -0.915  0.00  0.00    -0.286 OA
ATOM     12  C   UNL     1       3.617  -3.812   0.841  0.00  0.00    +0.149 C 
ENDROOT
BRANCH   9  13
ATOM     13  C   UNL     1       1.913   0.552  -0.543  0.00  0.00    +0.249 C 
ATOM     14  O   UNL     1       1.009   1.261  -0.942  0.00  0.00    -0.270 OA
ATOM     15  N   UNL     1       3.136   1.076  -0.327  0.00  0.00    -0.307 N 
ATOM     16  H   UNL     1       3.954   0.433   0.029  0.00  0.00    +0.149 HD
BRANCH  15  17
ATOM     17  C   UNL     1       3.374   2.502  -0.566  0.00  0.00    +0.139 C 
BRANCH  17  18
ATOM     18  C   UNL     1       4.811   2.830  -0.251  0.00  0.00    -0.030 A 
ATOM     19  C   UNL     1       5.165   3.228   1.025  0.00  0.00    +0.006 A 
ATOM     20  C   UNL     1       6.483   3.524   1.316  0.00  0.00    +0.020 A 
ATOM     21  C   UNL     1       7.446   3.434   0.328  0.00  0.00    +0.041 A 
ATOM     22  C   UNL     1       7.091   3.042  -0.951  0.00  0.00    +0.020 A 
ATOM     23  C   UNL     1       5.773   2.740  -1.239  0.00  0.00    +0.006 A 
ATOM     24 CL   UNL     1       9.101   3.812   0.691  0.00  0.00    -0.084 Cl
ENDBRANCH  17  18
ENDBRANCH  15  17
ENDBRANCH   9  13
BRANCH   3  25
ATOM     25  C   UNL     1      -0.816  -6.861   0.302  0.00  0.00    +0.127 C 
BRANCH  25  26
ATOM     26  N   UNL     1      -1.339  -7.038   1.663  0.00  0.00    -0.298 NA
ATOM     27  C   UNL     1      -0.259  -6.957   2.656  0.00  0.00    +0.105 C 
BRANCH  26  28
ATOM     28  C   UNL     1      -2.072  -8.305   1.785  0.00  0.00    +0.123 C 
BRANCH  28  29
ATOM     29  C   UNL     1      -3.446  -8.165   1.127  0.00  0.00    +0.194 C 
BRANCH  29  30
ATOM     30  C   UNL     1      -4.163  -9.489   1.173  0.00  0.00    +0.137 A 
ATOM     31  N   UNL     1      -5.389  -9.703   1.698  0.00  0.00    -0.346 N 
ATOM     32  H   UNL     1      -5.950  -8.867   2.141  0.00  0.00    +0.167 HD
ATOM     33  C   UNL     1      -5.671 -11.033   1.540  0.00  0.00    +0.104 A 
ATOM     34  C   UNL     1      -4.609 -11.586   0.924  0.00  0.00    +0.130 A 
ATOM     35  N   UNL     1      -3.705 -10.619   0.708  0.00  0.00    -0.238 NA
ENDBRANCH  29  30
BRANCH  29  36
ATOM     36  O   UNL     1      -4.212  -7.183   1.828  0.00  0.00    -0.383 OA
ATOM     37  H   UNL     1      -5.234  -6.944   1.498  0.00  0.00    +0.210 HD
ENDBRANCH  29  36
ENDBRANCH  28  29
ENDBRANCH  26  28
ENDBRANCH  25  26
ENDBRANCH   3  25
TORSDOF 9
