REMARK  Name = ZINC58973143
REMARK  11 active torsions:
REMARK  status: ('A' for Active; 'I' for Inactive)
REMARK    1  A    between atoms: C_1  and  C_2
REMARK    2  A    between atoms: C_5  and  S_8
REMARK    3  A    between atoms: S_8  and  N_11
REMARK    4  A    between atoms: N_11  and  C_12
REMARK    5  A    between atoms: C_12  and  C_14
REMARK    6  A    between atoms: C_12  and  C_18
REMARK    7  A    between atoms: C_14  and  C_15
REMARK    8  A    between atoms: C_15  and  C_16
REMARK    9  A    between atoms: C_15  and  C_17
REMARK   10  A    between atoms: N_20  and  C_21
REMARK   11  A    between atoms: C_25  and  N_27
REMARK                            x       y       z     vdW  Elec       q    Type
REMARK                         _______ _______ _______ _____ _____    ______ ____
ROOT
ATOM      1  C   UNL     1       2.218  -4.696   1.105  0.00  0.00    +0.163 C 
ENDROOT
BRANCH   1   2
ATOM      2  C   UNL     1       3.497  -4.030   0.667  0.00  0.00    +0.236 C 
ATOM      3  O   UNL     1       3.765  -3.947  -0.513  0.00  0.00    -0.274 OA
ATOM      4  N   UNL     1       4.344  -3.527   1.587  0.00  0.00    -0.284 N 
ATOM      5  H   UNL     1       4.165  -3.655   2.532  0.00  0.00    +0.155 HD
BRANCH   4   6
ATOM      6  C   UNL     1       5.480  -2.819   1.179  0.00  0.00    +0.035 A 
ATOM      7  C   UNL     1       5.438  -2.036   0.033  0.00  0.00    +0.023 A 
ATOM      8  C   UNL     1       6.559  -1.338  -0.371  0.00  0.00    +0.004 A 
ATOM      9  C   UNL     1       7.726  -1.414   0.365  0.00  0.00    +0.024 A 
ATOM     10  C   UNL     1       7.775  -2.195   1.513  0.00  0.00    +0.040 A 
ATOM     11  C   UNL     1       6.649  -2.894   1.923  0.00  0.00    +0.047 A 
BRANCH  10  12
ATOM     12  N   UNL     1       8.957  -2.273   2.257  0.00  0.00    -0.254 N 
ATOM     13  C   UNL     1      10.175  -1.486   2.007  0.00  0.00    +0.134 C 
ATOM     14  C   UNL     1      11.151  -1.960   3.102  0.00  0.00    +0.125 C 
ATOM     15  N   UNL     1      10.380  -2.962   3.852  0.00  0.00    -0.297 N 
ATOM     16  C   UNL     1       9.158  -3.071   3.314  0.00  0.00    +0.307 C 
ATOM     17  O   UNL     1       8.309  -3.828   3.744  0.00  0.00    -0.252 OA
ATOM     18  H   UNL     1      10.704  -3.462   4.618  0.00  0.00    +0.150 HD
ENDBRANCH  10  12
ENDBRANCH   4   6
ENDBRANCH   1   2
BRANCH   1  19
ATOM     19  N   UNL     1       1.281  -4.740  -0.020  0.00  0.00    -0.178 NA
ATOM     20  H   UNL     1       1.610  -4.893  -0.920  0.00  0.00    +0.149 HD
BRANCH  19  21
ATOM     21  S   UNL     1      -0.340  -4.528   0.244  0.00  0.00    +0.059 S 
ATOM     22  O   UNL     1      -0.701  -5.421   1.289  0.00  0.00    -0.153 OA
ATOM     23  O   UNL     1      -0.967  -4.554  -1.031  0.00  0.00    -0.153 OA
BRANCH  21  28
ATOM     24  C   UNL     1      -1.082   1.053   2.413  0.00  0.00    +0.044 C 
ATOM     25  C   UNL     1      -0.896  -0.341   1.872  0.00  0.00    -0.050 A 
ATOM     26  C   UNL     1      -0.938  -0.563   0.508  0.00  0.00    +0.005 A 
ATOM     27  C   UNL     1      -0.768  -1.842   0.011  0.00  0.00    +0.029 A 
ATOM     28  C   UNL     1      -0.556  -2.898   0.878  0.00  0.00    +0.105 A 
ATOM     29  C   UNL     1      -0.513  -2.675   2.241  0.00  0.00    +0.029 A 
ATOM     30  C   UNL     1      -0.679  -1.396   2.738  0.00  0.00    +0.005 A 
ENDBRANCH  21  28
ENDBRANCH  19  21
ENDBRANCH   1  19
BRANCH   1  31
ATOM     31  C   UNL     1       2.520  -6.122   1.573  0.00  0.00    +0.032 C 
BRANCH  31  32
ATOM     32  C   UNL     1       3.396  -6.072   2.826  0.00  0.00    -0.015 C 
ATOM     33  C   UNL     1       2.597  -5.470   3.983  0.00  0.00    +0.007 C 
ATOM     34  C   UNL     1       3.838  -7.490   3.195  0.00  0.00    +0.007 C 
ENDBRANCH  31  32
ENDBRANCH   1  31
TORSDOF 8
