REMARK  Name = ZINC29509721
REMARK  5 active torsions:
REMARK  status: ('A' for Active; 'I' for Inactive)
REMARK    1  A    between atoms: C_4  and  C_7
REMARK    2  A    between atoms: C_8  and  C_17
REMARK    3  A    between atoms: C_10  and  C_12
REMARK    4  A    between atoms: N_19  and  N_20
REMARK    5  A    between atoms: C_21  and  C_23
REMARK                            x       y       z     vdW  Elec       q    Type
REMARK                         _______ _______ _______ _____ _____    ______ ____
ROOT
ATOM      1  C   UNL     1       1.176  -0.662  -0.034  0.00  0.00    +0.269 C 
ATOM      2  O   UNL     1       2.199  -0.039  -0.256  0.00  0.00    -0.268 OA
ATOM      3  N   UNL     1       0.025  -0.004   0.208  0.00  0.00    -0.230 N 
ATOM      4  H   UNL     1      -0.898  -0.567   0.409  0.00  0.00    +0.173 HD
ENDROOT
BRANCH   1   6
ATOM      5  C   UNL     1       2.283  -3.003  -0.136  0.00  0.00    +0.091 A 
ATOM      6  C   UNL     1       1.197  -2.124  -0.031  0.00  0.00    +0.103 A 
ATOM      7  S   UNL     1      -0.156  -3.285   0.100  0.00  0.00    -0.059 S 
ATOM      8  C   UNL     1       0.821  -4.779   0.013  0.00  0.00    +0.145 A 
ATOM      9  N   UNL     1       2.053  -4.294  -0.104  0.00  0.00    -0.235 NA
BRANCH   5  13
ATOM     10  C   UNL     1       6.245  -1.517  -0.536  0.00  0.00    +0.000 A 
ATOM     11  C   UNL     1       5.394  -0.967   0.406  0.00  0.00    +0.001 A 
ATOM     12  C   UNL     1       4.107  -1.445   0.541  0.00  0.00    +0.010 A 
ATOM     13  C   UNL     1       3.664  -2.485  -0.275  0.00  0.00    +0.002 A 
ATOM     14  C   UNL     1       4.527  -3.040  -1.219  0.00  0.00    +0.010 A 
ATOM     15  C   UNL     1       5.811  -2.549  -1.348  0.00  0.00    +0.001 A 
ENDBRANCH   5  13
BRANCH   8  16
ATOM     16  C   UNL     1       0.377  -6.179   0.060  0.00  0.00    +0.160 A 
ATOM     17  C   UNL     1      -0.912  -6.608   0.183  0.00  0.00    +0.052 A 
ATOM     18  C   UNL     1      -0.872  -8.014   0.183  0.00  0.00    +0.042 A 
ATOM     19  C   UNL     1       0.423  -8.374   0.061  0.00  0.00    +0.196 A 
ATOM     20  O   UNL     1       1.173  -7.265  -0.018  0.00  0.00    -0.461 OA
ENDBRANCH   8  16
ENDBRANCH   1   6
BRANCH   3  21
ATOM     21  N   UNL     1       0.005   1.397   0.205  0.00  0.00    -0.231 N 
ATOM     22  C   UNL     1      -1.147   2.055   0.442  0.00  0.00    +0.273 C 
ATOM     23  O   UNL     1      -2.167   1.434   0.658  0.00  0.00    -0.270 OA
ATOM     24  H   UNL     1       0.929   1.960   0.009  0.00  0.00    +0.173 HD
BRANCH  22  25
ATOM     25  C   UNL     1      -1.169   3.562   0.439  0.00  0.00    +0.297 C 
ATOM     26  C   UNL     1      -0.876   4.080  -0.976  0.00  0.00    +0.283 C 
ATOM     27  O   UNL     1      -0.917   5.511  -0.946  0.00  0.00    -0.484 OA
ATOM     28  C   UNL     1      -1.970   6.079  -0.297  0.00  0.00    +0.162 A 
ATOM     29  C   UNL     1      -2.272   7.413  -0.527  0.00  0.00    +0.049 A 
ATOM     30  C   UNL     1      -3.336   8.005   0.127  0.00  0.00    +0.004 A 
ATOM     31  C   UNL     1      -4.103   7.269   1.011  0.00  0.00    +0.004 A 
ATOM     32  C   UNL     1      -3.808   5.939   1.244  0.00  0.00    +0.049 A 
ATOM     33  C   UNL     1      -2.742   5.338   0.590  0.00  0.00    +0.163 A 
ATOM     34  O   UNL     1      -2.466   4.027   0.827  0.00  0.00    -0.472 OA
ENDBRANCH  22  25
ENDBRANCH   3  21
TORSDOF 5
