REMARK  Name = ZINC13248978
REMARK  8 active torsions:
REMARK  status: ('A' for Active; 'I' for Inactive)
REMARK    1  A    between atoms: C_1  and  C_2
REMARK    2  A    between atoms: C_5  and  N_9
REMARK    3  A    between atoms: C_6  and  C_8
REMARK    4  A    between atoms: N_9  and  S_10
REMARK    5  A    between atoms: S_10  and  C_13
REMARK    6  A    between atoms: C_15  and  N_20
REMARK    7  A    between atoms: C_21  and  C_23
REMARK    8  A    between atoms: C_29  and  C_31
REMARK                            x       y       z     vdW  Elec       q    Type
REMARK                         _______ _______ _______ _____ _____    ______ ____
ROOT
ATOM      1  C   UNL     1       2.161   7.326  -1.690  0.00  0.00    +0.128 A 
ATOM      2  C   UNL     1       1.600   6.075  -1.520  0.00  0.00    +0.053 A 
ATOM      3  C   UNL     1       0.221   5.941  -1.436  0.00  0.00    +0.035 A 
ATOM      4  C   UNL     1      -0.591   7.064  -1.527  0.00  0.00    +0.025 A 
ATOM      5  C   UNL     1      -0.025   8.312  -1.693  0.00  0.00    +0.024 A 
ATOM      6  C   UNL     1       1.350   8.444  -1.776  0.00  0.00    +0.068 A 
ATOM      7 CL   UNL     1       2.059  10.014  -1.991  0.00  0.00    -0.082 Cl
ENDROOT
BRANCH   3   8
ATOM      8  N   UNL     1      -0.351   4.674  -1.264  0.00  0.00    -0.285 N 
ATOM      9  C   UNL     1      -1.457   4.531  -0.507  0.00  0.00    +0.221 C 
ATOM     10  O   UNL     1      -2.005   5.509  -0.043  0.00  0.00    -0.275 OA
ATOM     11  H   UNL     1       0.049   3.900  -1.689  0.00  0.00    +0.155 HD
BRANCH   9  12
ATOM     12  C   UNL     1      -2.014   3.157  -0.239  0.00  0.00    +0.093 C 
ATOM     13  C   UNL     1      -2.513   3.077   1.205  0.00  0.00    +0.040 C 
ATOM     14  C   UNL     1      -3.751   3.911   1.368  0.00  0.00    -0.030 C 
ATOM     15  C   UNL     1      -4.479   4.331   0.387  0.00  0.00    -0.030 C 
ATOM     16  C   UNL     1      -4.184   4.050  -1.058  0.00  0.00    +0.042 C 
ATOM     17  C   UNL     1      -3.196   2.887  -1.177  0.00  0.00    +0.118 C 
BRANCH  17  18
ATOM     18  C   UNL     1      -2.703   2.786  -2.598  0.00  0.00    +0.360 C 
ATOM     19  O   UNL     1      -1.527   2.915  -2.839  0.00  0.00    -0.246 OA
ATOM     20  O   UNL     1      -3.571   2.551  -3.594  0.00  0.00    -0.246 OA
ENDBRANCH  17  18
ENDBRANCH   9  12
ENDBRANCH   3   8
BRANCH   1  21
ATOM     21  S   UNL     1       3.912   7.498  -1.798  0.00  0.00    +0.074 S 
ATOM     22  O   UNL     1       4.278   8.508  -0.868  0.00  0.00    -0.150 OA
ATOM     23  O   UNL     1       4.452   6.185  -1.749  0.00  0.00    -0.150 OA
BRANCH  21  24
ATOM     24  N   UNL     1       4.253   8.095  -3.304  0.00  0.00    -0.216 N 
ATOM     25  H   UNL     1       4.609   8.992  -3.402  0.00  0.00    +0.174 HD
BRANCH  24  30
ATOM     26  C   UNL     1       3.346   4.889  -7.894  0.00  0.00    +0.044 C 
ATOM     27  C   UNL     1       3.587   5.742  -6.675  0.00  0.00    -0.050 A 
ATOM     28  C   UNL     1       2.790   5.585  -5.555  0.00  0.00    +0.005 A 
ATOM     29  C   UNL     1       3.012   6.360  -4.434  0.00  0.00    +0.025 A 
ATOM     30  C   UNL     1       4.029   7.306  -4.435  0.00  0.00    +0.051 A 
ATOM     31  C   UNL     1       4.827   7.461  -5.561  0.00  0.00    -0.028 A 
ATOM     32  C   UNL     1       4.604   6.679  -6.678  0.00  0.00    +0.008 A 
ATOM     33  C   UNL     1       5.936   8.481  -5.565  0.00  0.00    +0.046 C 
ENDBRANCH  24  30
ENDBRANCH  21  24
ENDBRANCH   1  21
TORSDOF 6
