REMARK  Name = ZINC59015320
REMARK  7 active torsions:
REMARK  status: ('A' for Active; 'I' for Inactive)
REMARK    1  A    between atoms: C_1  and  C_2
REMARK    2  A    between atoms: C_4  and  N_9
REMARK    3  A    between atoms: C_10  and  C_12
REMARK    4  A    between atoms: C_12  and  S_13
REMARK    5  A    between atoms: S_13  and  C_14
REMARK    6  A    between atoms: N_19  and  N_20
REMARK    7  A    between atoms: C_21  and  C_22
REMARK                            x       y       z     vdW  Elec       q    Type
REMARK                         _______ _______ _______ _____ _____    ______ ____
ROOT
ATOM      1  C   UNL     1       0.537  -7.345  -5.022  0.00  0.00    +0.211 A 
ATOM      2  N   UNL     1       0.658  -8.650  -5.285  0.00  0.00    -0.186 NA
ATOM      3  C   UNL     1       0.727  -8.835  -6.587  0.00  0.00    +0.232 A 
ATOM      4  N   UNL     1       0.650  -7.627  -7.184  0.00  0.00    -0.245 N 
ATOM      5  N   UNL     1       0.522  -6.682  -6.154  0.00  0.00    -0.144 NA
ATOM      6  N   UNL     1       0.857 -10.053  -7.229  0.00  0.00    -0.205 N 
ATOM      7  H   UNL     1       0.900 -10.089  -8.197  0.00  0.00    +0.177 HD
ATOM      8  H   UNL     1       0.674  -7.448  -8.137  0.00  0.00    +0.192 HD
ENDROOT
BRANCH   6   9
ATOM      9  N   UNL     1       0.926 -11.236  -6.481  0.00  0.00    -0.188 NA
ATOM     10  C   UNL     1       1.048 -12.379  -7.083  0.00  0.00    +0.138 C 
BRANCH  10  11
ATOM     11  C   UNL     1       1.121 -13.623  -6.296  0.00  0.00    -0.005 A 
ATOM     12  C   UNL     1       1.054 -13.576  -4.901  0.00  0.00    +0.011 A 
ATOM     13  C   UNL     1       1.122 -14.744  -4.171  0.00  0.00    +0.020 A 
ATOM     14  C   UNL     1       1.258 -15.961  -4.817  0.00  0.00    +0.041 A 
ATOM     15  C   UNL     1       1.326 -16.015  -6.199  0.00  0.00    +0.020 A 
ATOM     16  C   UNL     1       1.252 -14.855  -6.942  0.00  0.00    +0.011 A 
ATOM     17 CL   UNL     1       1.343 -17.427  -3.890  0.00  0.00    -0.084 Cl
ENDBRANCH  10  11
ENDBRANCH   6   9
BRANCH   1  18
ATOM     18  S   UNL     1       0.411  -6.631  -3.416  0.00  0.00    -0.075 S 
BRANCH  18  19
ATOM     19  C   UNL     1       0.265  -4.851  -3.737  0.00  0.00    +0.173 C 
BRANCH  19  21
ATOM     20  N   UNL     1       0.028  -2.771  -2.420  0.00  0.00    -0.285 N 
ATOM     21  C   UNL     1       0.148  -4.113  -2.428  0.00  0.00    +0.227 C 
ATOM     22  O   UNL     1       0.162  -4.727  -1.382  0.00  0.00    -0.275 OA
ATOM     23  H   UNL     1      -0.060  -2.287  -3.256  0.00  0.00    +0.155 HD
BRANCH  20  27
ATOM     24  C   UNL     1       1.619  -2.350   2.213  0.00  0.00    +0.045 C 
ATOM     25  C   UNL     1       0.793  -1.849   1.057  0.00  0.00    -0.035 A 
ATOM     26  C   UNL     1       0.792  -2.538  -0.141  0.00  0.00    +0.027 A 
ATOM     27  C   UNL     1       0.030  -2.075  -1.206  0.00  0.00    +0.034 A 
ATOM     28  C   UNL     1      -0.729  -0.921  -1.063  0.00  0.00    +0.024 A 
ATOM     29  C   UNL     1      -0.724  -0.236   0.136  0.00  0.00    +0.017 A 
ATOM     30  C   UNL     1       0.032  -0.703   1.197  0.00  0.00    +0.021 A 
ATOM     31 BR   UNL     1       0.029   0.233   2.841  0.00  0.00    -0.050 Br
ENDBRANCH  20  27
ENDBRANCH  19  21
ENDBRANCH  18  19
ENDBRANCH   1  18
TORSDOF 6
