REMARK  Name = ZINC02775874
REMARK  13 active torsions:
REMARK  status: ('A' for Active; 'I' for Inactive)
REMARK    1  A    between atoms: C_1  and  C_2
REMARK    2  A    between atoms: C_2  and  O_3
REMARK    3  A    between atoms: O_3  and  C_4
REMARK    4  A    between atoms: C_4  and  C_5
REMARK    5  A    between atoms: C_5  and  O_6
REMARK    6  A    between atoms: O_6  and  C_7
REMARK    7  A    between atoms: C_7  and  C_9
REMARK    8  A    between atoms: C_10  and  C_39
REMARK    9  A    between atoms: C_14  and  C_16
REMARK   10  A    between atoms: C_20  and  N_22
REMARK   11  A    between atoms: C_28  and  C_31
REMARK   12  A    between atoms: C_34  and  O_37
REMARK   13  A    between atoms: O_37  and  C_38
REMARK                            x       y       z     vdW  Elec       q    Type
REMARK                         _______ _______ _______ _____ _____    ______ ____
ROOT
ATOM      1  C   UNL     1      -9.458  -4.555  -1.524  0.00  0.00    +0.065 C 
ATOM      2  C   UNL     1      -8.523  -4.527  -2.490  0.00  0.00    +0.016 C 
ATOM      3  N   UNL     1      -7.455  -3.678  -2.396  0.00  0.00    -0.321 N 
ATOM      4  C   UNL     1      -7.094  -3.142  -1.189  0.00  0.00    +0.016 C 
ATOM      5  C   UNL     1      -7.969  -3.114  -0.162  0.00  0.00    +0.024 C 
ATOM      6  C   UNL     1      -9.367  -3.657  -0.325  0.00  0.00    +0.092 C 
ATOM      7  C   UNL     1      -7.605  -2.582   1.088  0.00  0.00    +0.162 C 
ATOM      8  O   UNL     1      -8.421  -2.563   1.989  0.00  0.00    -0.292 OA
ATOM      9  C   UNL     1      -6.223  -2.040   1.334  0.00  0.00    +0.088 C 
ATOM     10  C   UNL     1      -5.234  -2.761   0.412  0.00  0.00    +0.032 C 
ATOM     11  C   UNL     1      -5.699  -2.588  -1.036  0.00  0.00    +0.059 C 
ATOM     12  C   UNL     1      -8.651  -5.438  -3.683  0.00  0.00    +0.061 C 
ATOM     13  H   UNL     1      -6.878  -3.419  -3.295  0.00  0.00    +0.152 HD
ENDROOT
BRANCH   6  14
ATOM     14  C   UNL     1     -10.328  -2.509  -0.493  0.00  0.00    -0.033 A 
ATOM     15  C   UNL     1     -10.130  -1.583  -1.500  0.00  0.00    +0.005 A 
ATOM     16  C   UNL     1     -11.011  -0.529  -1.654  0.00  0.00    +0.003 A 
ATOM     17  C   UNL     1     -12.091  -0.402  -0.801  0.00  0.00    +0.033 A 
ATOM     18  C   UNL     1     -12.289  -1.327   0.207  0.00  0.00    +0.126 A 
ATOM     19  C   UNL     1     -11.410  -2.384   0.357  0.00  0.00    +0.037 A 
BRANCH  18  20
ATOM     20  N   UNL     1     -13.445  -1.190   1.121  0.00  0.00    +0.056 N 
ATOM     21  O   UNL     1     -14.272  -0.316   0.931  0.00  0.00    -0.126 OA
ATOM     22  O   UNL     1     -13.569  -1.951   2.064  0.00  0.00    -0.126 OA
ENDBRANCH  18  20
ENDBRANCH   6  14
BRANCH  10  23
ATOM     23  C   UNL     1      -3.860  -2.163   0.577  0.00  0.00    -0.043 A 
ATOM     24  C   UNL     1      -2.808  -2.957   0.993  0.00  0.00    +0.007 A 
ATOM     25  C   UNL     1      -1.548  -2.411   1.145  0.00  0.00    +0.046 A 
ATOM     26  C   UNL     1      -1.339  -1.065   0.880  0.00  0.00    +0.120 A 
ATOM     27  C   UNL     1      -2.398  -0.269   0.469  0.00  0.00    +0.046 A 
ATOM     28  C   UNL     1      -3.655  -0.821   0.312  0.00  0.00    +0.007 A 
BRANCH  26  29
ATOM     29  O   UNL     1      -0.101  -0.526   1.029  0.00  0.00    -0.495 OA
ATOM     30  C   UNL     1       0.040   0.866   0.739  0.00  0.00    +0.277 C 
ENDBRANCH  26  29
ENDBRANCH  10  23
BRANCH   1  31
ATOM     31  C   UNL     1     -10.549  -5.448  -1.641  0.00  0.00    +0.338 C 
ATOM     32  O   UNL     1     -10.548  -6.493  -1.019  0.00  0.00    -0.245 OA
BRANCH  31  33
ATOM     33  O   UNL     1     -11.590  -5.140  -2.443  0.00  0.00    -0.459 OA
BRANCH  33  34
ATOM     34  C   UNL     1     -12.612  -6.128  -2.587  0.00  0.00    +0.260 C 
BRANCH  34  35
ATOM     35  C   UNL     1     -13.639  -5.653  -3.616  0.00  0.00    +0.201 C 
BRANCH  35  36
ATOM     36  O   UNL     1     -13.018  -5.557  -4.900  0.00  0.00    -0.377 OA
BRANCH  36  38
ATOM     37  C   UNL     1     -13.143  -5.071  -7.264  0.00  0.00    +0.034 C 
ATOM     38  C   UNL     1     -13.865  -5.015  -5.916  0.00  0.00    +0.156 C 
ENDBRANCH  36  38
ENDBRANCH  35  36
ENDBRANCH  34  35
ENDBRANCH  33  34
ENDBRANCH  31  33
ENDBRANCH   1  31
TORSDOF 10
