REMARK  Name = ZINC39674689
REMARK  10 active torsions:
REMARK  status: ('A' for Active; 'I' for Inactive)
REMARK    1  A    between atoms: C_1  and  C_2
REMARK    2  A    between atoms: C_2  and  C_3
REMARK    3  A    between atoms: C_3  and  C_5
REMARK    4  A    between atoms: C_3  and  C_6
REMARK    5  A    between atoms: C_10  and  C_19
REMARK    6  A    between atoms: N_21  and  C_22
REMARK    7  A    between atoms: C_22  and  C_23
REMARK    8  A    between atoms: C_23  and  C_24
REMARK    9  A    between atoms: C_27  and  C_35
REMARK   10  A    between atoms: C_32  and  C_34
REMARK                            x       y       z     vdW  Elec       q    Type
REMARK                         _______ _______ _______ _____ _____    ______ ____
ROOT
ATOM      1  C   UNL     1       3.544  -3.147  -5.152  0.00  0.00    +0.218 C 
ATOM      2  O   UNL     1       2.591  -3.304  -5.886  0.00  0.00    -0.275 OA
ATOM      3  N   UNL     1       4.794  -3.179  -5.654  0.00  0.00    -0.315 N 
ATOM      4  H   UNL     1       5.556  -3.053  -5.067  0.00  0.00    +0.149 HD
ENDROOT
BRANCH   1   9
ATOM      5  C   UNL     1       0.814  -2.158  -1.185  0.00  0.00    +0.218 C 
ATOM      6  O   UNL     1       0.434  -2.793  -0.224  0.00  0.00    -0.275 OA
ATOM      7  N   UNL     1       1.452  -2.782  -2.195  0.00  0.00    -0.300 N 
ATOM      8  C   UNL     1       1.991  -2.181  -3.438  0.00  0.00    +0.121 C 
ATOM      9  C   UNL     1       3.329  -2.915  -3.678  0.00  0.00    +0.100 C 
ATOM     10  C   UNL     1       3.179  -4.256  -2.940  0.00  0.00    -0.004 C 
ATOM     11  C   UNL     1       1.779  -4.224  -2.311  0.00  0.00    +0.115 C 
ATOM     12  C   UNL     1       4.238  -4.379  -1.848  0.00  0.00    -0.010 C 
ATOM     13  C   UNL     1       4.105  -5.744  -1.166  0.00  0.00    -0.082 C 
ATOM     14  N   UNL     1       4.274  -6.809  -2.162  0.00  0.00    +0.379 N 
ATOM     15  C   UNL     1       3.197  -6.739  -3.157  0.00  0.00    -0.082 C 
ATOM     16  C   UNL     1       3.291  -5.417  -3.923  0.00  0.00    -0.010 C 
ATOM     17  H   UNL     1       5.164  -6.698  -2.624  0.00  0.00    -0.086 HD
ATOM     18  H   UNL     1       4.247  -7.706  -1.701  0.00  0.00    -0.086 HD
BRANCH   5  19
ATOM     19  C   UNL     1       0.572  -0.672  -1.251  0.00  0.00    +0.072 C 
ATOM     20  C   UNL     1      -0.277  -0.347  -2.481  0.00  0.00    +0.017 C 
BRANCH  19  22
ATOM     21  C   UNL     1      -0.300   1.304   0.004  0.00  0.00    +0.004 C 
ATOM     22  C   UNL     1      -0.165  -0.220   0.011  0.00  0.00    +0.009 C 
ENDBRANCH  19  22
ENDBRANCH   5  19
ENDBRANCH   1   9
BRANCH   3  23
ATOM     23  C   UNL     1       5.003  -3.404  -7.086  0.00  0.00    +0.108 C 
BRANCH  23  24
ATOM     24  C   UNL     1       6.502  -3.394  -7.391  0.00  0.00    +0.052 C 
BRANCH  24  25
ATOM     25  C   UNL     1       6.717  -3.625  -8.865  0.00  0.00    -0.037 C 
ATOM     26  C   UNL     1       5.760  -3.811  -9.810  0.00  0.00    +0.000 A 
ATOM     27  C   UNL     1       4.343  -3.846  -9.729  0.00  0.00    +0.028 A 
ATOM     28  C   UNL     1       3.592  -4.056 -10.862  0.00  0.00    +0.052 A 
ATOM     29  C   UNL     1       4.223  -4.246 -12.164  0.00  0.00    +0.021 A 
ATOM     30  C   UNL     1       5.565  -4.222 -12.301  0.00  0.00    +0.027 A 
ATOM     31  C   UNL     1       6.412  -4.001 -11.124  0.00  0.00    +0.043 A 
ATOM     32  N   UNL     1       7.715  -3.937 -11.000  0.00  0.00    -0.378 N 
ATOM     33  C   UNL     1       8.041  -3.691  -9.591  0.00  0.00    +0.103 C 
ATOM     34  C   UNL     1       8.888  -4.840  -9.041  0.00  0.00    +0.035 C 
ATOM     35  H   UNL     1       8.358  -4.032 -11.720  0.00  0.00    +0.160 HD
BRANCH  28  36
ATOM     36  C   UNL     1       2.164  -4.090 -10.762  0.00  0.00    +0.099 C 
ATOM     37  N   UNL     1       1.031  -4.116 -10.683  0.00  0.00    -0.191 NA
ENDBRANCH  28  36
ENDBRANCH  24  25
ENDBRANCH  23  24
ENDBRANCH   3  23
TORSDOF 7
