REMARK  Name = ZINC39851672
REMARK  13 active torsions:
REMARK  status: ('A' for Active; 'I' for Inactive)
REMARK    1  A    between atoms: C_1  and  C_2
REMARK    2  A    between atoms: C_2  and  C_3
REMARK    3  A    between atoms: C_3  and  N_4
REMARK    4  A    between atoms: C_5  and  N_27
REMARK    5  A    between atoms: C_6  and  C_14
REMARK    6  A    between atoms: C_7  and  C_13
REMARK    7  A    between atoms: C_8  and  C_11
REMARK    8  A    between atoms: N_18  and  C_22
REMARK    9  A    between atoms: C_22  and  C_24
REMARK   10  A    between atoms: C_22  and  C_25
REMARK   11  A    between atoms: C_25  and  C_26
REMARK   12  A    between atoms: N_27  and  C_28
REMARK   13  A    between atoms: C_28  and  C_29
REMARK                            x       y       z     vdW  Elec       q    Type
REMARK                         _______ _______ _______ _____ _____    ______ ____
ROOT
ATOM      1  N   UNL     1       0.780  -1.911   1.371  0.00  0.00    -0.295 N 
ATOM      2  C   UNL     1      -0.296  -2.607   1.821  0.00  0.00    +0.109 A 
ATOM      3  C   UNL     1      -0.185  -3.974   2.123  0.00  0.00    +0.019 A 
ATOM      4  C   UNL     1       1.050  -4.621   1.954  0.00  0.00    -0.017 A 
ATOM      5  C   UNL     1       2.137  -3.886   1.490  0.00  0.00    +0.120 A 
ATOM      6  C   UNL     1       1.972  -2.509   1.196  0.00  0.00    +0.270 A 
ATOM      7  O   UNL     1       2.919  -1.861   0.785  0.00  0.00    -0.266 OA
ATOM      8  C   UNL     1       1.196  -6.088   2.270  0.00  0.00    +0.046 C 
ENDROOT
BRANCH   3   9
ATOM      9  C   UNL     1      -1.349  -4.719   2.609  0.00  0.00    +0.032 C 
ATOM     10  C   UNL     1      -1.896  -5.702   1.843  0.00  0.00    +0.077 C 
ATOM     11  C   UNL     1      -1.501  -6.176   0.555  0.00  0.00    +0.259 C 
ATOM     12  O   UNL     1      -0.545  -5.694  -0.025  0.00  0.00    -0.269 OA
ATOM     13  N   UNL     1      -2.204  -7.155   0.013  0.00  0.00    -0.252 N 
ATOM     14  C   UNL     1      -3.264  -7.691   0.657  0.00  0.00    +0.121 C 
ATOM     15  S   UNL     1      -4.305  -8.951   0.148  0.00  0.00    -0.027 S 
ATOM     16  S   UNL     1      -3.300  -6.755   2.179  0.00  0.00    -0.061 S 
BRANCH  13  17
ATOM     17  C   UNL     1      -1.828  -7.668  -1.307  0.00  0.00    +0.080 C 
ATOM     18  C   UNL     1      -2.994  -7.479  -2.279  0.00  0.00    +0.028 C 
BRANCH  17  19
ATOM     19  C   UNL     1      -1.490  -9.156  -1.199  0.00  0.00    +0.019 C 
ATOM     20  C   UNL     1      -0.246  -9.335  -0.327  0.00  0.00    +0.006 C 
ENDBRANCH  17  19
ENDBRANCH  13  17
ENDBRANCH   3   9
BRANCH   5  21
ATOM     21  C   UNL     1       3.410  -4.516   1.308  0.00  0.00    +0.105 C 
ATOM     22  N   UNL     1       4.420  -5.016   1.163  0.00  0.00    -0.191 NA
ENDBRANCH   5  21
BRANCH   2  23
ATOM     23  N   UNL     1      -1.493  -1.972   1.983  0.00  0.00    -0.326 N 
ATOM     24  H   UNL     1      -2.088  -1.860   1.226  0.00  0.00    +0.148 HD
BRANCH  23  25
ATOM     25  C   UNL     1      -1.878  -1.460   3.301  0.00  0.00    +0.138 C 
BRANCH  25  26
ATOM     26  C   UNL     1      -3.283  -0.919   3.238  0.00  0.00    -0.027 A 
ATOM     27  C   UNL     1      -3.497   0.407   2.909  0.00  0.00    +0.009 A 
ATOM     28  C   UNL     1      -4.784   0.909   2.850  0.00  0.00    +0.050 A 
ATOM     29  C   UNL     1      -5.863   0.083   3.120  0.00  0.00    +0.166 A 
ATOM     30  C   UNL     1      -5.647  -1.253   3.450  0.00  0.00    +0.167 A 
ATOM     31  C   UNL     1      -4.355  -1.750   3.502  0.00  0.00    +0.054 A 
ATOM     32  O   UNL     1      -6.856  -1.849   3.668  0.00  0.00    -0.453 OA
ATOM     33  C   UNL     1      -7.787  -0.768   3.868  0.00  0.00    +0.466 C 
ATOM     34  O   UNL     1      -7.206   0.324   3.131  0.00  0.00    -0.453 OA
ENDBRANCH  25  26
ENDBRANCH  23  25
ENDBRANCH   2  23
BRANCH   1  35
ATOM     35  C   UNL     1       0.638  -0.485   1.065  0.00  0.00    +0.126 C 
BRANCH  35  37
ATOM     36  C   UNL     1      -0.155   1.161  -0.640  0.00  0.00    +0.005 C 
ATOM     37  C   UNL     1       0.111  -0.320  -0.362  0.00  0.00    +0.018 C 
ENDBRANCH  35  37
ENDBRANCH   1  35
TORSDOF 9
