REMARK  Name = ZINC40826759
REMARK  9 active torsions:
REMARK  status: ('A' for Active; 'I' for Inactive)
REMARK    1  A    between atoms: C_1  and  C_2
REMARK    2  A    between atoms: C_6  and  C_12
REMARK    3  A    between atoms: C_10  and  C_11
REMARK    4  A    between atoms: C_12  and  C_13
REMARK    5  A    between atoms: N_15  and  N_16
REMARK    6  A    between atoms: C_23  and  C_39
REMARK    7  A    between atoms: C_24  and  C_26
REMARK    8  A    between atoms: C_26  and  O_28
REMARK    9  A    between atoms: O_28  and  C_29
REMARK                            x       y       z     vdW  Elec       q    Type
REMARK                         _______ _______ _______ _____ _____    ______ ____
ROOT
ATOM      1  N   UNL     1       3.133  -7.049  -2.068  0.00  0.00    -0.184 NA
ATOM      2  C   UNL     1       3.351  -7.956  -2.970  0.00  0.00    +0.070 C 
ATOM      3  C   UNL     1       2.230  -8.775  -3.591  0.00  0.00    +0.058 C 
ATOM      4  C   UNL     1       2.698 -10.231  -3.692  0.00  0.00    +0.014 C 
ATOM      5  C   UNL     1       3.883 -10.352  -4.654  0.00  0.00    +0.075 C 
ATOM      6  C   UNL     1       4.958  -9.375  -4.248  0.00  0.00    +0.115 A 
ATOM      7  C   UNL     1       4.708  -8.265  -3.473  0.00  0.00    +0.042 A 
ATOM      8  C   UNL     1       5.922  -7.590  -3.299  0.00  0.00    +0.011 A 
ATOM      9  C   UNL     1       6.862  -8.311  -3.983  0.00  0.00    +0.215 A 
ATOM     10  O   UNL     1       6.256  -9.388  -4.541  0.00  0.00    -0.452 OA
ATOM     11  C   UNL     1       6.148  -6.322  -2.516  0.00  0.00    +0.048 C 
ENDROOT
BRANCH   1  14
ATOM     12  C   UNL     1       1.600  -5.856  -0.692  0.00  0.00    +0.237 C 
ATOM     13  O   UNL     1       2.527  -5.224  -0.230  0.00  0.00    -0.274 OA
ATOM     14  N   UNL     1       1.827  -6.798  -1.629  0.00  0.00    -0.206 N 
ATOM     15  H   UNL     1       1.085  -7.302  -1.998  0.00  0.00    +0.177 HD
BRANCH  12  16
ATOM     16  C   UNL     1       0.195  -5.586  -0.220  0.00  0.00    +0.136 C 
BRANCH  16  22
ATOM     17  C   UNL     1       0.188   1.206   0.935  0.00  0.00    +0.044 C 
ATOM     18  C   UNL     1       0.193  -0.297   0.818  0.00  0.00    -0.044 A 
ATOM     19  C   UNL     1       0.164  -0.887  -0.437  0.00  0.00    +0.004 A 
ATOM     20  C   UNL     1       0.168  -2.249  -0.562  0.00  0.00    +0.012 A 
ATOM     21  C   UNL     1       0.201  -3.047   0.581  0.00  0.00    +0.024 A 
ATOM     22  C   UNL     1       0.216  -4.495   0.821  0.00  0.00    +0.007 A 
ATOM     23  C   UNL     1       0.251  -4.653   2.151  0.00  0.00    +0.200 A 
ATOM     24  O   UNL     1       0.260  -3.454   2.759  0.00  0.00    -0.462 OA
ATOM     25  C   UNL     1       0.231  -2.455   1.854  0.00  0.00    +0.138 A 
ATOM     26  C   UNL     1       0.232  -1.070   1.958  0.00  0.00    -0.005 A 
ATOM     27  C   UNL     1       0.269  -0.414   3.315  0.00  0.00    +0.048 C 
ENDBRANCH  16  22
ENDBRANCH  12  16
ENDBRANCH   1  14
BRANCH   9  28
ATOM     28  C   UNL     1       8.286  -7.982  -4.085  0.00  0.00    +0.380 C 
ATOM     29  O   UNL     1       8.722  -6.991  -3.531  0.00  0.00    -0.241 OA
BRANCH  28  30
ATOM     30  O   UNL     1       9.113  -8.777  -4.793  0.00  0.00    -0.418 OA
BRANCH  30  31
ATOM     31  C   UNL     1      10.403  -8.380  -4.949  0.00  0.00    +0.158 A 
ATOM     32  C   UNL     1      10.777  -7.681  -6.061  0.00  0.00    +0.048 A 
ATOM     33  C   UNL     1      12.093  -7.264  -6.238  0.00  0.00    +0.004 A 
ATOM     34  C   UNL     1      13.047  -7.543  -5.306  0.00  0.00    +0.010 A 
ATOM     35  C   UNL     1      12.701  -8.259  -4.149  0.00  0.00    +0.004 A 
ATOM     36  C   UNL     1      11.362  -8.681  -3.959  0.00  0.00    +0.113 A 
ATOM     37  N   UNL     1      11.028  -9.358  -2.858  0.00  0.00    -0.251 NA
ATOM     38  C   UNL     1      11.915  -9.641  -1.936  0.00  0.00    +0.111 A 
ATOM     39  C   UNL     1      13.248  -9.252  -2.057  0.00  0.00    +0.020 A 
ATOM     40  C   UNL     1      13.659  -8.567  -3.164  0.00  0.00    +0.011 A 
ENDBRANCH  30  31
ENDBRANCH  28  30
ENDBRANCH   9  28
TORSDOF 6
