REMARK  Name = ZINC13636267
REMARK  9 active torsions:
REMARK  status: ('A' for Active; 'I' for Inactive)
REMARK    1  A    between atoms: C_1  and  C_2
REMARK    2  A    between atoms: C_2  and  N_3
REMARK    3  A    between atoms: N_3  and  C_4
REMARK    4  A    between atoms: C_4  and  C_5
REMARK    5  A    between atoms: C_8  and  C_24
REMARK    6  A    between atoms: C_9  and  C_11
REMARK    7  A    between atoms: C_11  and  N_12
REMARK    8  A    between atoms: N_12  and  C_13
REMARK    9  A    between atoms: C_15  and  N_20
REMARK                            x       y       z     vdW  Elec       q    Type
REMARK                         _______ _______ _______ _____ _____    ______ ____
ROOT
ATOM      1  C   UNL     1       5.830  -1.190  -0.014  0.00  0.00    +0.092 C 
ATOM      2  S   UNL     1       7.235  -1.563   0.891  0.00  0.00    -0.034 S 
ENDROOT
BRANCH   1   7
ATOM      3  N   UNL     1       0.899   0.175   1.626  0.00  0.00    -0.310 N 
ATOM      4  C   UNL     1       2.220  -0.174   1.433  0.00  0.00    +0.161 A 
ATOM      5  N   UNL     1       3.160  -0.349   2.344  0.00  0.00    -0.229 NA
ATOM      6  C   UNL     1       4.382  -0.682   2.010  0.00  0.00    +0.057 A 
ATOM      7  C   UNL     1       4.629  -0.839   0.653  0.00  0.00    +0.065 A 
ATOM      8  S   UNL     1       3.013  -0.484  -0.018  0.00  0.00    -0.050 S 
ATOM      9  C   UNL     1       5.461  -0.883   3.043  0.00  0.00    +0.067 C 
BRANCH   3  11
ATOM     10  C   UNL     1       0.044   1.759  -0.030  0.00  0.00    +0.024 C 
ATOM     11  C   UNL     1       0.003   0.315   0.475  0.00  0.00    +0.103 C 
ENDBRANCH   3  11
BRANCH   3  12
ATOM     12  C   UNL     1       0.393   0.405   2.981  0.00  0.00    +0.103 C 
ATOM     13  C   UNL     1      -0.136  -0.910   3.557  0.00  0.00    +0.024 C 
ENDBRANCH   3  12
ENDBRANCH   1   7
BRANCH   1  14
ATOM     14  N   UNL     1       5.866  -1.229  -1.361  0.00  0.00    -0.307 N 
ATOM     15  H   UNL     1       5.081  -0.985  -1.874  0.00  0.00    +0.153 HD
BRANCH  14  16
ATOM     16  C   UNL     1       7.036  -1.623  -2.018  0.00  0.00    +0.052 A 
ATOM     17  C   UNL     1       7.787  -2.684  -1.528  0.00  0.00    +0.057 A 
ATOM     18  C   UNL     1       8.942  -3.070  -2.179  0.00  0.00    +0.128 A 
ATOM     19  C   UNL     1       9.352  -2.402  -3.318  0.00  0.00    +0.034 A 
ATOM     20  C   UNL     1       8.608  -1.345  -3.809  0.00  0.00    +0.024 A 
ATOM     21  C   UNL     1       7.448  -0.957  -3.166  0.00  0.00    +0.062 A 
ATOM     22 CL   UNL     1       6.510   0.365  -3.788  0.00  0.00    -0.082 Cl
BRANCH  18  23
ATOM     23  N   UNL     1       9.742  -4.200  -1.656  0.00  0.00    +0.056 N 
ATOM     24  O   UNL     1       9.384  -4.785  -0.660  0.00  0.00    -0.126 OA
ATOM     25  O   UNL     1      10.753  -4.539  -2.226  0.00  0.00    -0.126 OA
ENDBRANCH  18  23
ENDBRANCH  14  16
ENDBRANCH   1  14
TORSDOF 6
