REMARK  Name = ZINC20869030
REMARK  8 active torsions:
REMARK  status: ('A' for Active; 'I' for Inactive)
REMARK    1  A    between atoms: C_1  and  C_2
REMARK    2  A    between atoms: C_2  and  O_3
REMARK    3  A    between atoms: O_3  and  C_4
REMARK    4  A    between atoms: C_7  and  C_9
REMARK    5  A    between atoms: C_9  and  O_10
REMARK    6  A    between atoms: O_10  and  C_11
REMARK    7  A    between atoms: C_11  and  C_13
REMARK    8  A    between atoms: C_26  and  C_27
REMARK                            x       y       z     vdW  Elec       q    Type
REMARK                         _______ _______ _______ _____ _____    ______ ____
ROOT
ATOM      1  C   UNL     1       1.233   3.567   0.331  0.00  0.00    +0.073 A 
ATOM      2  C   UNL     1       1.212   2.138   0.646  0.00  0.00    +0.015 A 
ATOM      3  C   UNL     1       0.014   1.454   0.872  0.00  0.00    +0.011 A 
ATOM      4  C   UNL     1       0.042   0.121   1.161  0.00  0.00    +0.001 A 
ATOM      5  C   UNL     1       1.251  -0.567   1.233  0.00  0.00    +0.002 A 
ATOM      6  C   UNL     1       2.435   0.068   1.018  0.00  0.00    +0.028 A 
ATOM      7  C   UNL     1       2.446   1.444   0.717  0.00  0.00    +0.072 A 
ATOM      8  N   UNL     1       3.589   2.091   0.502  0.00  0.00    -0.247 NA
ATOM      9  C   UNL     1       3.641   3.389   0.216  0.00  0.00    +0.072 A 
ATOM     10  C   UNL     1       2.469   4.160   0.123  0.00  0.00    -0.007 A 
ATOM     11  C   UNL     1       2.824   5.588  -0.210  0.00  0.00    +0.043 C 
ATOM     12  C   UNL     1       4.354   5.636  -0.319  0.00  0.00    +0.042 C 
ATOM     13  C   UNL     1       4.823   4.230  -0.043  0.00  0.00    -0.020 C 
ATOM     14  C   UNL     1       6.107   3.812  -0.034  0.00  0.00    +0.020 C 
ENDROOT
BRANCH  14  15
ATOM     15  C   UNL     1       6.411   2.385   0.066  0.00  0.00    +0.013 A 
ATOM     16  C   UNL     1       7.477   1.760   0.695  0.00  0.00    +0.015 A 
ATOM     17  C   UNL     1       7.546   0.388   0.654  0.00  0.00    +0.008 A 
ATOM     18  C   UNL     1       6.581  -0.308  -0.005  0.00  0.00    +0.046 A 
ATOM     19  S   UNL     1       5.512   0.993  -0.599  0.00  0.00    -0.097 S 
ENDBRANCH  14  15
BRANCH   1  20
ATOM     20  C   UNL     1      -0.017   4.350   0.242  0.00  0.00    +0.341 C 
ATOM     21  O   UNL     1      -0.597   4.449  -0.821  0.00  0.00    -0.245 OA
BRANCH  20  22
ATOM     22  O   UNL     1      -0.514   4.954   1.339  0.00  0.00    -0.452 OA
BRANCH  22  23
ATOM     23  C   UNL     1      -1.745   5.706   1.177  0.00  0.00    +0.328 C 
BRANCH  23  27
ATOM     24  C   UNL     1      -3.622   7.588   3.775  0.00  0.00    +0.407 C 
ATOM     25  O   UNL     1      -2.936   7.400   4.759  0.00  0.00    -0.226 OA
ATOM     26  N   UNL     1      -3.264   7.052   2.591  0.00  0.00    -0.219 N 
ATOM     27  C   UNL     1      -2.145   6.306   2.500  0.00  0.00    +0.259 C 
ATOM     28  O   UNL     1      -1.460   6.119   3.482  0.00  0.00    -0.272 OA
ATOM     29  H   UNL     1      -3.886   7.223   1.700  0.00  0.00    +0.161 HD
BRANCH  24  30
ATOM     30  O   UNL     1      -4.740   8.333   3.865  0.00  0.00    -0.450 OA
BRANCH  30  32
ATOM     31  C   UNL     1      -6.358   9.690   5.078  0.00  0.00    +0.048 C 
ATOM     32  C   UNL     1      -5.063   8.879   5.171  0.00  0.00    +0.230 C 
ENDBRANCH  30  32
ENDBRANCH  24  30
ENDBRANCH  23  27
ENDBRANCH  22  23
ENDBRANCH  20  22
ENDBRANCH   1  20
TORSDOF 7
