REMARK  Name = ZINC39680685
REMARK  7 active torsions:
REMARK  status: ('A' for Active; 'I' for Inactive)
REMARK    1  A    between atoms: C_1  and  N_2
REMARK    2  A    between atoms: N_2  and  C_3
REMARK    3  A    between atoms: C_4  and  C_6
REMARK    4  A    between atoms: C_6  and  N_7
REMARK    5  A    between atoms: C_8  and  C_10
REMARK    6  A    between atoms: C_21  and  C_23
REMARK    7  A    between atoms: C_26  and  C_28
REMARK                            x       y       z     vdW  Elec       q    Type
REMARK                         _______ _______ _______ _____ _____    ______ ____
ROOT
ATOM      1  C   UNL     1       0.023  -4.478  -4.238  0.00  0.00    +0.100 C 
ATOM      2  C   UNL     1      -1.331  -4.159  -4.912  0.00  0.00    +0.121 C 
ATOM      3  N   UNL     1      -1.607  -5.335  -5.770  0.00  0.00    -0.294 N 
ATOM      4  C   UNL     1      -1.161  -6.495  -4.962  0.00  0.00    +0.115 C 
ATOM      5  C   UNL     1       0.130  -6.011  -4.272  0.00  0.00    -0.004 C 
ATOM      6  C   UNL     1       1.351  -6.438  -5.081  0.00  0.00    -0.010 C 
ATOM      7  C   UNL     1       1.468  -7.964  -5.053  0.00  0.00    -0.082 C 
ATOM      8  N   UNL     1       1.592  -8.422  -3.664  0.00  0.00    +0.379 N 
ATOM      9  C   UNL     1       0.373  -8.089  -2.916  0.00  0.00    -0.082 C 
ATOM     10  C   UNL     1       0.210  -6.568  -2.854  0.00  0.00    -0.010 C 
ATOM     11  C   UNL     1      -2.143  -5.347  -7.007  0.00  0.00    +0.282 C 
ATOM     12  O   UNL     1      -2.310  -6.404  -7.588  0.00  0.00    -0.267 OA
ATOM     13  H   UNL     1       1.730  -9.421  -3.652  0.00  0.00    -0.086 HD
ATOM     14  H   UNL     1       2.384  -7.971  -3.232  0.00  0.00    -0.086 HD
ENDROOT
BRANCH  11  15
ATOM     15  C   UNL     1      -2.526  -4.088  -7.652  0.00  0.00    +0.190 A 
ATOM     16  C   UNL     1      -3.086  -3.958  -8.904  0.00  0.00    +0.055 A 
ATOM     17  C   UNL     1      -3.287  -2.591  -9.116  0.00  0.00    +0.050 A 
ATOM     18  C   UNL     1      -2.847  -1.942  -7.998  0.00  0.00    +0.136 A 
ATOM     19  O   UNL     1      -2.396  -2.854  -7.120  0.00  0.00    -0.450 OA
BRANCH  18  20
ATOM     20  C   UNL     1      -2.868  -0.481  -7.786  0.00  0.00    +0.017 A 
ATOM     21  C   UNL     1      -3.376   0.363  -8.776  0.00  0.00    +0.014 A 
ATOM     22  C   UNL     1      -3.394   1.727  -8.573  0.00  0.00    +0.039 A 
ATOM     23  C   UNL     1      -2.909   2.260  -7.388  0.00  0.00    +0.123 A 
ATOM     24  C   UNL     1      -2.404   1.427  -6.403  0.00  0.00    +0.039 A 
ATOM     25  C   UNL     1      -2.387   0.061  -6.593  0.00  0.00    +0.014 A 
ATOM     26  F   UNL     1      -2.929   3.597  -7.195  0.00  0.00    -0.205 F 
ENDBRANCH  18  20
ENDBRANCH  11  15
BRANCH   1  28
ATOM     27  N   UNL     1       1.190  -3.622  -2.232  0.00  0.00    -0.306 N 
ATOM     28  C   UNL     1       0.030  -3.983  -2.814  0.00  0.00    +0.219 C 
ATOM     29  O   UNL     1      -1.009  -3.910  -2.193  0.00  0.00    -0.275 OA
ATOM     30  H   UNL     1       2.021  -3.680  -2.729  0.00  0.00    +0.149 HD
BRANCH  27  31
ATOM     31  C   UNL     1       1.197  -3.141  -0.848  0.00  0.00    +0.200 C 
BRANCH  31  35
ATOM     32  C   UNL     1       4.230  -2.015   1.198  0.00  0.00    +0.131 C 
ATOM     33  N   UNL     1       2.858  -2.341   0.801  0.00  0.00    -0.306 N 
ATOM     34  C   UNL     1       1.758  -2.162   1.752  0.00  0.00    +0.131 C 
ATOM     35  C   UNL     1       2.608  -2.806  -0.440  0.00  0.00    +0.232 C 
ATOM     36  O   UNL     1       3.519  -2.954  -1.227  0.00  0.00    -0.274 OA
ENDBRANCH  31  35
ENDBRANCH  27  31
ENDBRANCH   1  28
TORSDOF 5
