REMARK  Name = ZINC00045663
REMARK  7 active torsions:
REMARK  status: ('A' for Active; 'I' for Inactive)
REMARK    1  A    between atoms: C_1  and  C_2
REMARK    2  A    between atoms: C_4  and  C_21
REMARK    3  A    between atoms: C_5  and  S_9
REMARK    4  A    between atoms: C_6  and  C_8
REMARK    5  A    between atoms: S_9  and  N_12
REMARK    6  A    between atoms: C_15  and  C_20
REMARK    7  A    between atoms: C_17  and  C_19
REMARK                            x       y       z     vdW  Elec       q    Type
REMARK                         _______ _______ _______ _____ _____    ______ ____
ROOT
ATOM      1  S   UNL     1       4.495  -0.301  -0.867  0.00  0.00    +0.075 S 
ATOM      2  O   UNL     1       5.492   0.536  -0.296  0.00  0.00    -0.150 OA
ATOM      3  O   UNL     1       4.495  -1.712  -0.695  0.00  0.00    -0.150 OA
ENDROOT
BRANCH   1   4
ATOM      4  N   UNL     1       4.521  -0.023  -2.499  0.00  0.00    -0.184 N 
ATOM      5  C   UNL     1       4.465   1.273  -2.981  0.00  0.00    +0.235 A 
ATOM      6  N   UNL     1       4.062   2.246  -2.176  0.00  0.00    -0.219 NA
ATOM      7  C   UNL     1       4.002   3.496  -2.604  0.00  0.00    +0.044 A 
ATOM      8  C   UNL     1       4.356   3.780  -3.913  0.00  0.00    +0.046 A 
ATOM      9  C   UNL     1       4.767   2.739  -4.730  0.00  0.00    +0.044 A 
ATOM     10  N   UNL     1       4.809   1.512  -4.238  0.00  0.00    -0.219 NA
ATOM     11  C   UNL     1       5.161   3.001  -6.160  0.00  0.00    +0.066 C 
ATOM     12  C   UNL     1       3.550   4.597  -1.679  0.00  0.00    +0.066 C 
ATOM     13  H   UNL     1       4.576  -0.768  -3.117  0.00  0.00    +0.177 HD
ENDBRANCH   1   4
BRANCH   1  18
ATOM     14  C   UNL     1      -0.815   1.691   1.192  0.00  0.00    +0.044 C 
ATOM     15  C   UNL     1       0.512   1.190   0.682  0.00  0.00    -0.050 A 
ATOM     16  C   UNL     1       1.681   1.823   1.061  0.00  0.00    +0.008 A 
ATOM     17  C   UNL     1       2.898   1.367   0.588  0.00  0.00    -0.023 A 
ATOM     18  C   UNL     1       2.945   0.279  -0.264  0.00  0.00    +0.114 A 
ATOM     19  C   UNL     1       1.776  -0.353  -0.642  0.00  0.00    -0.023 A 
ATOM     20  C   UNL     1       0.559   0.102  -0.169  0.00  0.00    +0.008 A 
ATOM     21  C   UNL     1       1.827  -1.539  -1.571  0.00  0.00    +0.046 C 
ATOM     22  C   UNL     1       4.173   2.056   1.001  0.00  0.00    +0.046 C 
ENDBRANCH   1  18
TORSDOF 2
