REMARK  Name = ZINC42554126
REMARK  7 active torsions:
REMARK  status: ('A' for Active; 'I' for Inactive)
REMARK    1  A    between atoms: C_1  and  C_2
REMARK    2  A    between atoms: C_2  and  C_3
REMARK    3  A    between atoms: C_3  and  C_5
REMARK    4  A    between atoms: C_3  and  C_6
REMARK    5  A    between atoms: C_6  and  C_8
REMARK    6  A    between atoms: C_6  and  N_9
REMARK    7  A    between atoms: N_9  and  C_10
REMARK                            x       y       z     vdW  Elec       q    Type
REMARK                         _______ _______ _______ _____ _____    ______ ____
ROOT
ATOM      1  C   UNL     1      -2.791  -4.227   0.445  0.00  0.00    -0.069 C 
ATOM      2  C   UNL     1      -4.168  -4.850   0.203  0.00  0.00    +0.003 C 
ATOM      3  C   UNL     1      -4.092  -6.359   0.455  0.00  0.00    +0.108 C 
ATOM      4  N   UNL     1      -3.555  -6.587   1.804  0.00  0.00    -0.286 N 
ATOM      5  C   UNL     1      -2.280  -5.958   2.172  0.00  0.00    +0.108 C 
ATOM      6  C   UNL     1      -2.376  -4.453   1.900  0.00  0.00    +0.003 C 
ATOM      7  C   UNL     1      -4.221  -7.358   2.686  0.00  0.00    +0.300 C 
ATOM      8  O   UNL     1      -5.320  -7.796   2.404  0.00  0.00    -0.253 OA
ATOM      9  N   UNL     1      -3.668  -7.644   3.882  0.00  0.00    -0.313 N 
ATOM     10  H   UNL     1      -2.825  -7.238   4.136  0.00  0.00    +0.146 HD
ATOM     11  H   UNL     1      -4.114  -8.257   4.488  0.00  0.00    +0.146 HD
ENDROOT
BRANCH   1  12
ATOM     12  N   UNL     1      -2.852  -2.785   0.172  0.00  0.00    +0.383 N 
ATOM     13  H   UNL     1      -3.452  -2.340   0.849  0.00  0.00    -0.085 HD
ATOM     14  H   UNL     1      -3.220  -2.634  -0.755  0.00  0.00    -0.085 HD
BRANCH  12  15
ATOM     15  C   UNL     1      -1.502  -2.212   0.262  0.00  0.00    -0.072 C 
ATOM     16  C   UNL     1      -0.631  -2.780  -0.860  0.00  0.00    -0.013 C 
BRANCH  15  17
ATOM     17  C   UNL     1      -1.583  -0.691   0.125  0.00  0.00    -0.029 C 
ATOM     18  C   UNL     1      -2.199  -0.333  -1.229  0.00  0.00    +0.006 C 
BRANCH  17  20
ATOM     19  C   UNL     1      -0.270   1.433   0.207  0.00  0.00    +0.004 C 
ATOM     20  C   UNL     1      -0.178  -0.094   0.220  0.00  0.00    -0.002 C 
ENDBRANCH  17  20
ENDBRANCH  15  17
ENDBRANCH  12  15
ENDBRANCH   1  12
TORSDOF 4
