REMARK  Name = ZINC67080279
REMARK  7 active torsions:
REMARK  status: ('A' for Active; 'I' for Inactive)
REMARK    1  A    between atoms: C_1  and  C_2
REMARK    2  A    between atoms: C_2  and  C_4
REMARK    3  A    between atoms: C_2  and  N_16
REMARK    4  A    between atoms: C_6  and  C_9
REMARK    5  A    between atoms: N_19  and  N_20
REMARK    6  A    between atoms: C_21  and  C_23
REMARK    7  A    between atoms: C_23  and  C_24
REMARK                            x       y       z     vdW  Elec       q    Type
REMARK                         _______ _______ _______ _____ _____    ______ ____
ROOT
ATOM      1  N   UNL     1       0.711  -0.489   1.189  0.00  0.00    -0.287 N 
ATOM      2  C   UNL     1       0.051  -0.633   2.355  0.00  0.00    +0.317 C 
ATOM      3  O   UNL     1      -1.132  -0.361   2.423  0.00  0.00    -0.251 OA
ATOM      4  N   UNL     1       0.703  -1.080   3.447  0.00  0.00    -0.218 N 
ATOM      5  H   UNL     1       1.654  -0.707   1.135  0.00  0.00    +0.151 HD
ATOM      6  H   UNL     1       0.229  -1.184   4.287  0.00  0.00    +0.174 HD
ENDROOT
BRANCH   4   7
ATOM      7  N   UNL     1       2.066  -1.394   3.370  0.00  0.00    -0.233 N 
ATOM      8  C   UNL     1       2.718  -1.841   4.462  0.00  0.00    +0.229 C 
ATOM      9  O   UNL     1       2.125  -1.970   5.511  0.00  0.00    -0.274 OA
ATOM     10  H   UNL     1       2.541  -1.290   2.530  0.00  0.00    +0.173 HD
BRANCH   8  11
ATOM     11  C   UNL     1       4.184  -2.179   4.378  0.00  0.00    +0.101 C 
BRANCH  11  12
ATOM     12  C   UNL     1       4.676  -2.658   5.745  0.00  0.00    -0.002 C 
ATOM     13  C   UNL     1       3.978  -3.971   6.107  0.00  0.00    +0.004 C 
ATOM     14  C   UNL     1       4.469  -4.450   7.474  0.00  0.00    +0.000 C 
ATOM     15  C   UNL     1       5.982  -4.674   7.423  0.00  0.00    +0.000 C 
ATOM     16  C   UNL     1       6.680  -3.362   7.061  0.00  0.00    +0.000 C 
ATOM     17  C   UNL     1       6.188  -2.882   5.694  0.00  0.00    +0.004 C 
ENDBRANCH  11  12
ENDBRANCH   8  11
ENDBRANCH   4   7
BRANCH   1  19
ATOM     18  C   UNL     1      -0.019   1.526   0.010  0.00  0.00    +0.038 C 
ATOM     19  C   UNL     1       0.002  -0.004   0.002  0.00  0.00    +0.160 C 
BRANCH  19  20
ATOM     20  C   UNL     1       0.707  -0.490  -1.238  0.00  0.00    +0.248 A 
ATOM     21  N   UNL     1       0.133  -0.999  -2.290  0.00  0.00    -0.190 NA
ATOM     22  C   UNL     1       1.060  -1.326  -3.208  0.00  0.00    +0.202 A 
ATOM     23  N   UNL     1       2.243  -1.021  -2.735  0.00  0.00    -0.056 NA
ATOM     24  O   UNL     1       2.030  -0.466  -1.446  0.00  0.00    -0.336 OA
BRANCH  22  25
ATOM     25  C   UNL     1       0.788  -1.930  -4.536  0.00  0.00    +0.023 A 
ATOM     26  C   UNL     1      -0.522  -2.202  -4.925  0.00  0.00    +0.014 A 
ATOM     27  C   UNL     1      -0.770  -2.764  -6.160  0.00  0.00    +0.039 A 
ATOM     28  C   UNL     1       0.281  -3.058  -7.014  0.00  0.00    +0.123 A 
ATOM     29  C   UNL     1       1.585  -2.790  -6.631  0.00  0.00    +0.039 A 
ATOM     30  C   UNL     1       1.842  -2.223  -5.400  0.00  0.00    +0.014 A 
ATOM     31  F   UNL     1       0.033  -3.608  -8.222  0.00  0.00    -0.205 F 
ENDBRANCH  22  25
ENDBRANCH  19  20
ENDBRANCH   1  19
TORSDOF 6
