REMARK  Name = ZINC06058096
REMARK  8 active torsions:
REMARK  status: ('A' for Active; 'I' for Inactive)
REMARK    1  A    between atoms: C_1  and  C_2
REMARK    2  A    between atoms: C_5  and  C_8
REMARK    3  A    between atoms: C_11  and  S_14
REMARK    4  A    between atoms: N_12  and  N_13
REMARK    5  A    between atoms: S_14  and  C_15
REMARK    6  A    between atoms: C_15  and  C_16
REMARK    7  A    between atoms: N_18  and  C_19
REMARK    8  A    between atoms: C_19  and  C_25
REMARK                            x       y       z     vdW  Elec       q    Type
REMARK                         _______ _______ _______ _____ _____    ______ ____
ROOT
ATOM      1  C   UNL     1       8.160   2.708   2.390  0.00  0.00    +0.182 A 
ATOM      2  N   UNL     1       7.749   3.383   1.343  0.00  0.00    -0.127 NA
ATOM      3  N   UNL     1       6.476   3.260   1.214  0.00  0.00    -0.121 NA
ATOM      4  C   UNL     1       5.996   2.506   2.178  0.00  0.00    +0.209 A 
ATOM      5  N   UNL     1       7.050   2.125   2.957  0.00  0.00    -0.224 N 
ENDROOT
BRANCH   1  10
ATOM      6  C   UNL     1      13.585   2.264   4.258  0.00  0.00    +0.044 C 
ATOM      7  C   UNL     1      12.165   2.381   3.769  0.00  0.00    -0.050 A 
ATOM      8  C   UNL     1      11.210   1.480   4.206  0.00  0.00    +0.004 A 
ATOM      9  C   UNL     1       9.908   1.580   3.762  0.00  0.00    +0.012 A 
ATOM     10  C   UNL     1       9.554   2.594   2.870  0.00  0.00    +0.021 A 
ATOM     11  C   UNL     1      10.523   3.496   2.429  0.00  0.00    +0.012 A 
ATOM     12  C   UNL     1      11.821   3.387   2.884  0.00  0.00    +0.004 A 
ENDBRANCH   1  10
BRANCH   5  13
ATOM     13  N   UNL     1       7.011   1.331   4.068  0.00  0.00    -0.295 N 
ATOM     14  H   UNL     1       7.216   0.371   3.834  0.00  0.00    +0.163 HD
ATOM     15  H   UNL     1       7.641   1.673   4.779  0.00  0.00    +0.163 HD
ENDBRANCH   5  13
BRANCH   4  16
ATOM     16  S   UNL     1       4.307   2.063   2.415  0.00  0.00    -0.075 S 
BRANCH  16  17
ATOM     17  C   UNL     1       3.554   2.931   1.017  0.00  0.00    +0.173 C 
BRANCH  17  18
ATOM     18  C   UNL     1       2.067   2.689   1.016  0.00  0.00    +0.224 C 
ATOM     19  O   UNL     1       1.565   1.997   1.877  0.00  0.00    -0.275 OA
ATOM     20  N   UNL     1       1.295   3.241   0.060  0.00  0.00    -0.297 N 
ATOM     21  H   UNL     1       1.696   3.795  -0.628  0.00  0.00    +0.150 HD
BRANCH  20  22
ATOM     22  C   UNL     1      -0.151   3.006   0.059  0.00  0.00    +0.121 C 
ATOM     23  C   UNL     1      -0.753   3.526   1.366  0.00  0.00    +0.041 C 
ATOM     24  C   UNL     1      -2.263   3.280   1.366  0.00  0.00    +0.003 C 
ATOM     25  C   UNL     1      -2.899   4.015   0.184  0.00  0.00    +0.000 C 
ATOM     26  C   UNL     1      -2.297   3.495  -1.123  0.00  0.00    +0.003 C 
ATOM     27  C   UNL     1      -0.787   3.740  -1.123  0.00  0.00    +0.041 C 
BRANCH  22  28
ATOM     28  C   UNL     1      -0.413   1.563  -0.061  0.00  0.00    +0.088 C 
ATOM     29  N   UNL     1      -0.616   0.449  -0.155  0.00  0.00    -0.194 NA
ENDBRANCH  22  28
ENDBRANCH  20  22
ENDBRANCH  17  18
ENDBRANCH  16  17
ENDBRANCH   4  16
TORSDOF 7
