REMARK  Name = ZINC08791604
REMARK  11 active torsions:
REMARK  status: ('A' for Active; 'I' for Inactive)
REMARK    1  A    between atoms: C_1  and  C_2
REMARK    2  A    between atoms: C_2  and  C_3
REMARK    3  A    between atoms: C_3  and  C_5
REMARK    4  A    between atoms: C_3  and  C_6
REMARK    5  A    between atoms: C_6  and  C_8
REMARK    6  A    between atoms: C_6  and  N_16
REMARK    7  A    between atoms: N_10  and  C_11
REMARK    8  A    between atoms: C_11  and  C_13
REMARK    9  A    between atoms: C_11  and  C_14
REMARK   10  A    between atoms: C_14  and  C_15
REMARK   11  A    between atoms: C_17  and  C_19
REMARK                            x       y       z     vdW  Elec       q    Type
REMARK                         _______ _______ _______ _____ _____    ______ ____
ROOT
ATOM      1  C   UNL     1      -1.281   0.489   0.837  0.00  0.00    +0.167 C 
ATOM      2  C   UNL     1       0.154  -0.053   0.909  0.00  0.00    +0.069 C 
ATOM      3  C   UNL     1       1.074   0.984   1.502  0.00  0.00    -0.015 A 
ATOM      4  C   UNL     1       2.416   0.776   2.018  0.00  0.00    +0.003 A 
ATOM      5  C   UNL     1       3.213  -0.366   2.140  0.00  0.00    +0.010 A 
ATOM      6  C   UNL     1       4.463  -0.195   2.682  0.00  0.00    +0.001 A 
ATOM      7  C   UNL     1       4.922   1.046   3.094  0.00  0.00    +0.002 A 
ATOM      8  C   UNL     1       4.154   2.192   2.986  0.00  0.00    +0.026 A 
ATOM      9  C   UNL     1       2.880   2.047   2.438  0.00  0.00    +0.047 A 
ATOM     10  N   UNL     1       1.882   2.945   2.193  0.00  0.00    -0.356 N 
ATOM     11  H   UNL     1       1.927   3.896   2.381  0.00  0.00    +0.166 HD
ATOM     12  C   UNL     1       0.807   2.302   1.641  0.00  0.00    +0.046 A 
ATOM     13  C   UNL     1      -0.512   2.920   1.245  0.00  0.00    +0.155 C 
ATOM     14  N   UNL     1      -1.208   1.896   0.430  0.00  0.00    -0.273 N 
ATOM     15  C   UNL     1      -1.675   2.481  -0.681  0.00  0.00    +0.248 C 
ATOM     16  O   UNL     1      -2.461   1.978  -1.460  0.00  0.00    -0.270 OA
ATOM     17  C   UNL     1      -1.093   3.821  -0.814  0.00  0.00    +0.042 A 
ATOM     18  C   UNL     1      -0.346   4.099   0.349  0.00  0.00    -0.009 A 
ATOM     19  C   UNL     1       0.351   5.278   0.492  0.00  0.00    +0.006 A 
ATOM     20  C   UNL     1       0.278   6.189  -0.558  0.00  0.00    +0.000 A 
ATOM     21  C   UNL     1      -0.461   5.930  -1.695  0.00  0.00    +0.001 A 
ATOM     22  C   UNL     1      -1.164   4.746  -1.858  0.00  0.00    +0.013 A 
ENDROOT
BRANCH   1  24
ATOM     23  N   UNL     1      -2.077  -0.826   2.775  0.00  0.00    -0.302 N 
ATOM     24  C   UNL     1      -1.936   0.380   2.189  0.00  0.00    +0.235 C 
ATOM     25  O   UNL     1      -2.336   1.378   2.751  0.00  0.00    -0.274 OA
ATOM     26  H   UNL     1      -1.757  -1.623   2.325  0.00  0.00    +0.150 HD
BRANCH  23  27
ATOM     27  C   UNL     1      -2.714  -0.931   4.090  0.00  0.00    +0.162 C 
BRANCH  27  28
ATOM     28  C   UNL     1      -2.230  -2.179   4.784  0.00  0.00    +0.234 C 
ATOM     29  O   UNL     1      -1.740  -3.080   4.138  0.00  0.00    -0.274 OA
ATOM     30  N   UNL     1      -2.342  -2.292   6.122  0.00  0.00    -0.311 N 
ATOM     31  H   UNL     1      -2.666  -1.543   6.646  0.00  0.00    +0.149 HD
BRANCH  30  32
ATOM     32  C   UNL     1      -1.973  -3.545   6.784  0.00  0.00    +0.070 C 
ATOM     33  C   UNL     1      -3.161  -4.509   6.751  0.00  0.00    +0.028 C 
BRANCH  32  34
ATOM     34  C   UNL     1      -1.588  -3.260   8.238  0.00  0.00    +0.018 C 
ATOM     35  C   UNL     1      -0.325  -2.398   8.271  0.00  0.00    +0.005 C 
ENDBRANCH  32  34
ENDBRANCH  30  32
ENDBRANCH  27  28
BRANCH  27  36
ATOM     36  C   UNL     1      -4.232  -1.001   3.917  0.00  0.00    +0.015 C 
ATOM     37  C   UNL     1      -4.587  -2.160   2.983  0.00  0.00    +0.010 C 
BRANCH  36  39
ATOM     38  C   UNL     1      -6.267   0.291   3.257  0.00  0.00    +0.004 C 
ATOM     39  C   UNL     1      -4.738   0.312   3.315  0.00  0.00    +0.002 C 
ENDBRANCH  36  39
ENDBRANCH  27  36
ENDBRANCH  23  27
ENDBRANCH   1  24
TORSDOF 7
