REMARK  Name = ZINC65022473
REMARK  7 active torsions:
REMARK  status: ('A' for Active; 'I' for Inactive)
REMARK    1  A    between atoms: C_1  and  C_2
REMARK    2  A    between atoms: C_2  and  C_3
REMARK    3  A    between atoms: C_5  and  C_8
REMARK    4  A    between atoms: C_8  and  N_9
REMARK    5  A    between atoms: C_13  and  S_20
REMARK    6  A    between atoms: S_20  and  N_23
REMARK    7  A    between atoms: N_23  and  C_24
REMARK                            x       y       z     vdW  Elec       q    Type
REMARK                         _______ _______ _______ _____ _____    ______ ____
ROOT
ATOM      1  N   UNL     1      -4.085  -2.811  -1.853  0.00  0.00    -0.258 N 
ATOM      2  C   UNL     1      -3.382  -3.304  -2.961  0.00  0.00    +0.080 A 
ATOM      3  C   UNL     1      -2.542  -2.478  -3.691  0.00  0.00    +0.049 A 
ATOM      4  C   UNL     1      -1.859  -2.985  -4.782  0.00  0.00    +0.069 A 
ATOM      5  C   UNL     1      -2.013  -4.311  -5.146  0.00  0.00    +0.127 A 
ATOM      6  C   UNL     1      -2.850  -5.139  -4.420  0.00  0.00    +0.077 A 
ATOM      7  C   UNL     1      -3.536  -4.640  -3.327  0.00  0.00    +0.144 A 
ATOM      8  O   UNL     1      -4.360  -5.441  -2.600  0.00  0.00    -0.481 OA
ATOM      9  C   UNL     1      -4.453  -5.167  -1.200  0.00  0.00    +0.325 C 
ATOM     10  C   UNL     1      -4.631  -3.687  -0.981  0.00  0.00    +0.258 C 
ATOM     11  O   UNL     1      -5.265  -3.283  -0.029  0.00  0.00    -0.271 OA
ATOM     12 CL   UNL     1      -0.805  -1.953  -5.699  0.00  0.00    -0.081 Cl
ENDROOT
BRANCH   5  13
ATOM     13  S   UNL     1      -1.140  -4.947  -6.538  0.00  0.00    +0.060 S 
ATOM     14  O   UNL     1       0.217  -4.557  -6.379  0.00  0.00    -0.153 OA
ATOM     15  O   UNL     1      -1.531  -6.306  -6.677  0.00  0.00    -0.153 OA
BRANCH  13  16
ATOM     16  N   UNL     1      -1.707  -4.152  -7.876  0.00  0.00    -0.187 NA
ATOM     17  H   UNL     1      -1.112  -3.587  -8.392  0.00  0.00    +0.148 HD
BRANCH  16  18
ATOM     18  C   UNL     1      -3.107  -4.304  -8.279  0.00  0.00    +0.077 C 
ATOM     19  C   UNL     1      -3.174  -5.007  -9.637  0.00  0.00    +0.020 C 
ATOM     20  C   UNL     1      -4.595  -5.519  -9.876  0.00  0.00    +0.002 C 
ATOM     21  C   UNL     1      -5.123  -6.177  -8.599  0.00  0.00    +0.000 C 
ATOM     22  C   UNL     1      -6.273  -5.341  -8.033  0.00  0.00    +0.000 C 
ATOM     23  C   UNL     1      -5.708  -4.094  -7.350  0.00  0.00    +0.000 C 
ATOM     24  C   UNL     1      -5.281  -3.080  -8.412  0.00  0.00    +0.002 C 
ATOM     25  C   UNL     1      -3.759  -2.924  -8.387  0.00  0.00    +0.020 C 
ENDBRANCH  16  18
ENDBRANCH  13  16
ENDBRANCH   5  13
BRANCH   1  26
ATOM     26  C   UNL     1      -4.220  -1.367  -1.639  0.00  0.00    +0.193 C 
BRANCH  26  29
ATOM     27  C   UNL     1      -1.112  -0.074  -0.311  0.00  0.00    +0.227 A 
ATOM     28  N   UNL     1      -1.895  -0.428  -1.292  0.00  0.00    -0.194 NA
ATOM     29  C   UNL     1      -3.062  -0.872  -0.811  0.00  0.00    +0.189 A 
ATOM     30  N   UNL     1      -3.035  -0.805   0.489  0.00  0.00    -0.060 NA
ATOM     31  O   UNL     1      -1.760  -0.288   0.841  0.00  0.00    -0.338 OA
BRANCH  27  33
ATOM     32  C   UNL     1       0.224   2.001  -0.548  0.00  0.00    +0.014 C 
ATOM     33  C   UNL     1       0.284   0.475  -0.450  0.00  0.00    +0.095 C 
ENDBRANCH  27  33
ENDBRANCH  26  29
ENDBRANCH   1  26
TORSDOF 6
