REMARK  Name = ZINC35777324
REMARK  18 active torsions:
REMARK  status: ('A' for Active; 'I' for Inactive)
REMARK    1  A    between atoms: C_1  and  C_2
REMARK    2  A    between atoms: C_3  and  C_22
REMARK    3  A    between atoms: C_4  and  O_13
REMARK    4  A    between atoms: N_5  and  C_7
REMARK    5  A    between atoms: O_13  and  C_14
REMARK    6  A    between atoms: C_19  and  O_20
REMARK    7  A    between atoms: O_20  and  C_21
REMARK    8  A    between atoms: C_22  and  N_23
REMARK    9  A    between atoms: N_23  and  C_24
REMARK   10  A    between atoms: N_23  and  C_31
REMARK   11  A    between atoms: C_24  and  C_25
REMARK   12  A    between atoms: C_31  and  C_32
REMARK   13  A    between atoms: C_32  and  C_34
REMARK   14  A    between atoms: C_32  and  O_39
REMARK   15  A    between atoms: C_34  and  O_35
REMARK   16  A    between atoms: O_35  and  C_36
REMARK   17  A    between atoms: C_36  and  C_37
REMARK   18  A    between atoms: C_36  and  C_38
REMARK                            x       y       z     vdW  Elec       q    Type
REMARK                         _______ _______ _______ _____ _____    ______ ____
ROOT
ATOM      1  C   UNL     1       0.798   0.430   0.234  0.00  0.00    +0.068 C 
ATOM      2  C   UNL     1       1.012  -0.778  -0.641  0.00  0.00    +0.065 A 
ATOM      3  C   UNL     1       0.765  -0.846  -2.016  0.00  0.00    +0.021 A 
ATOM      4  C   UNL     1       1.082  -2.099  -2.437  0.00  0.00    +0.225 A 
ATOM      5  N   UNL     1       1.516  -2.796  -1.352  0.00  0.00    -0.200 N 
ATOM      6  N   UNL     1       1.465  -1.940  -0.245  0.00  0.00    -0.168 NA
ENDROOT
BRANCH   5   7
ATOM      7  C   UNL     1       1.942  -4.131  -1.345  0.00  0.00    +0.069 A 
ATOM      8  C   UNL     1       1.279  -5.077  -2.115  0.00  0.00    +0.028 A 
ATOM      9  C   UNL     1       1.701  -6.392  -2.106  0.00  0.00    +0.002 A 
ATOM     10  C   UNL     1       2.784  -6.767  -1.332  0.00  0.00    +0.000 A 
ATOM     11  C   UNL     1       3.447  -5.827  -0.564  0.00  0.00    +0.002 A 
ATOM     12  C   UNL     1       3.032  -4.510  -0.573  0.00  0.00    +0.028 A 
ENDBRANCH   5   7
BRANCH   4  13
ATOM     13  O   UNL     1       0.984  -2.569  -3.706  0.00  0.00    -0.434 OA
BRANCH  13  14
ATOM     14  C   UNL     1      -0.219  -3.052  -4.117  0.00  0.00    +0.172 A 
ATOM     15  C   UNL     1      -1.294  -3.075  -3.242  0.00  0.00    +0.050 A 
ATOM     16  C   UNL     1      -2.516  -3.565  -3.661  0.00  0.00    +0.004 A 
ATOM     17  C   UNL     1      -2.670  -4.034  -4.953  0.00  0.00    +0.004 A 
ATOM     18  C   UNL     1      -1.602  -4.014  -5.831  0.00  0.00    +0.049 A 
ATOM     19  C   UNL     1      -0.376  -3.518  -5.418  0.00  0.00    +0.162 A 
BRANCH  19  20
ATOM     20  O   UNL     1       0.674  -3.493  -6.283  0.00  0.00    -0.491 OA
ATOM     21  C   UNL     1       0.440  -3.988  -7.603  0.00  0.00    +0.277 C 
ENDBRANCH  19  20
ENDBRANCH  13  14
ENDBRANCH   4  13
BRANCH   3  22
ATOM     22  C   UNL     1       0.239   0.273  -2.878  0.00  0.00    -0.036 C 
BRANCH  22  23
ATOM     23  N   UNL     1       1.342   1.174  -3.237  0.00  0.00    +0.386 N 
ATOM     24  H   UNL     1       1.793   1.504  -2.397  0.00  0.00    -0.081 HD
BRANCH  23  25
ATOM     25  C   UNL     1       2.316   0.451  -4.065  0.00  0.00    -0.046 C 
BRANCH  25  26
ATOM     26  C   UNL     1       1.647   0.001  -5.365  0.00  0.00    +0.102 C 
ATOM     27  C   UNL     1       2.613  -0.895  -6.169  0.00  0.00    +0.032 C 
ATOM     28  C   UNL     1       2.353  -0.434  -7.629  0.00  0.00    +0.030 C 
ATOM     29  C   UNL     1       2.062   1.073  -7.414  0.00  0.00    +0.160 C 
ATOM     30  O   UNL     1       1.338   1.143  -6.173  0.00  0.00    -0.378 OA
ENDBRANCH  25  26
ENDBRANCH  23  25
BRANCH  23  31
ATOM     31  C   UNL     1       0.813   2.319  -3.991  0.00  0.00    -0.044 C 
BRANCH  31  32
ATOM     32  C   UNL     1       1.955   3.280  -4.327  0.00  0.00    +0.124 C 
BRANCH  32  33
ATOM     33  O   UNL     1       2.563   3.738  -3.117  0.00  0.00    -0.391 OA
ATOM     34  H   UNL     1       1.959   4.208  -2.526  0.00  0.00    +0.210 HD
ENDBRANCH  32  33
BRANCH  32  35
ATOM     35  C   UNL     1       1.403   4.476  -5.104  0.00  0.00    +0.189 C 
BRANCH  35  36
ATOM     36  O   UNL     1       2.484   5.315  -5.518  0.00  0.00    -0.375 OA
BRANCH  36  37
ATOM     37  C   UNL     1       2.075   6.468  -6.257  0.00  0.00    +0.112 C 
ATOM     38  C   UNL     1       1.819   7.628  -5.292  0.00  0.00    +0.037 C 
ATOM     39  C   UNL     1       3.177   6.859  -7.243  0.00  0.00    +0.037 C 
ENDBRANCH  36  37
ENDBRANCH  35  36
ENDBRANCH  32  35
ENDBRANCH  31  32
ENDBRANCH  23  31
ENDBRANCH  22  23
ENDBRANCH   3  22
TORSDOF 14
