REMARK  Name = ZINC39659838
REMARK  4 active torsions:
REMARK  status: ('A' for Active; 'I' for Inactive)
REMARK    1  A    between atoms: C_1  and  C_2
REMARK    2  A    between atoms: C_5  and  C_10
REMARK    3  A    between atoms: C_14  and  C_23
REMARK    4  A    between atoms: N_25  and  C_26
REMARK                            x       y       z     vdW  Elec       q    Type
REMARK                         _______ _______ _______ _____ _____    ______ ____
ROOT
ATOM      1  C   UNL     1       0.160  -4.531   0.066  0.00  0.00    +0.250 C 
ATOM      2  O   UNL     1       0.289  -5.230   1.052  0.00  0.00    -0.270 OA
ATOM      3  N   UNL     1       0.024  -5.098  -1.150  0.00  0.00    -0.296 N 
ATOM      4  C   UNL     1      -0.036  -4.420  -2.466  0.00  0.00    +0.121 C 
ATOM      5  C   UNL     1       0.779  -5.332  -3.411  0.00  0.00    +0.100 C 
ATOM      6  C   UNL     1       0.732  -6.721  -2.754  0.00  0.00    -0.004 C 
ATOM      7  C   UNL     1      -0.094  -6.540  -1.471  0.00  0.00    +0.115 C 
ATOM      8  C   UNL     1       0.053  -7.723  -3.683  0.00  0.00    -0.010 C 
ATOM      9  C   UNL     1       0.070  -9.108  -3.032  0.00  0.00    -0.082 C 
ATOM     10  N   UNL     1       1.457  -9.513  -2.774  0.00  0.00    +0.379 N 
ATOM     11  C   UNL     1       2.073  -8.597  -1.807  0.00  0.00    -0.082 C 
ATOM     12  C   UNL     1       2.141  -7.189  -2.406  0.00  0.00    -0.010 C 
ATOM     13  H   UNL     1       1.468 -10.451  -2.401  0.00  0.00    -0.086 HD
ATOM     14  H   UNL     1       1.979  -9.490  -3.637  0.00  0.00    -0.086 HD
ENDROOT
BRANCH   1  19
ATOM     15  C   UNL     1       0.126   1.202   0.582  0.00  0.00    +0.047 C 
ATOM     16  C   UNL     1       0.137  -0.298   0.449  0.00  0.00    -0.012 A 
ATOM     17  C   UNL     1      -0.641  -0.909  -0.520  0.00  0.00    +0.007 A 
ATOM     18  C   UNL     1      -0.638  -2.282  -0.650  0.00  0.00    +0.016 A 
ATOM     19  C   UNL     1       0.153  -3.060   0.199  0.00  0.00    +0.075 A 
ATOM     20  C   UNL     1       0.937  -2.440   1.176  0.00  0.00    +0.171 A 
ATOM     21  C   UNL     1       0.928  -1.059   1.291  0.00  0.00    +0.162 A 
ATOM     22  F   UNL     1       1.689  -0.455   2.230  0.00  0.00    -0.202 F 
ATOM     23  F   UNL     1       1.705  -3.184   2.002  0.00  0.00    -0.202 F 
ENDBRANCH   1  19
BRANCH   5  24
ATOM     24  C   UNL     1       2.201  -4.845  -3.513  0.00  0.00    +0.218 C 
ATOM     25  O   UNL     1       2.714  -4.271  -2.575  0.00  0.00    -0.275 OA
ATOM     26  N   UNL     1       2.904  -5.046  -4.645  0.00  0.00    -0.312 N 
ATOM     27  H   UNL     1       2.494  -5.505  -5.395  0.00  0.00    +0.149 HD
BRANCH  26  28
ATOM     28  C   UNL     1       4.287  -4.573  -4.743  0.00  0.00    +0.073 C 
ATOM     29  C   UNL     1       4.294  -3.105  -5.174  0.00  0.00    +0.022 C 
ATOM     30  C   UNL     1       5.672  -2.499  -4.899  0.00  0.00    +0.002 C 
ATOM     31  C   UNL     1       6.154  -2.937  -3.514  0.00  0.00    +0.000 C 
ATOM     32  C   UNL     1       7.366  -3.858  -3.664  0.00  0.00    +0.000 C 
ATOM     33  C   UNL     1       6.900  -5.243  -4.117  0.00  0.00    +0.000 C 
ATOM     34  C   UNL     1       6.546  -5.201  -5.604  0.00  0.00    +0.002 C 
ATOM     35  C   UNL     1       5.041  -5.412  -5.777  0.00  0.00    +0.022 C 
ENDBRANCH  26  28
ENDBRANCH   5  24
TORSDOF 3
