REMARK  Name = ZINC16922804
REMARK  10 active torsions:
REMARK  status: ('A' for Active; 'I' for Inactive)
REMARK    1  A    between atoms: C_4  and  O_31
REMARK    2  A    between atoms: C_5  and  C_7
REMARK    3  A    between atoms: N_11  and  C_15
REMARK    4  A    between atoms: C_15  and  C_16
REMARK    5  A    between atoms: C_16  and  C_17
REMARK    6  A    between atoms: C_17  and  C_18
REMARK    7  A    between atoms: N_20  and  C_21
REMARK    8  A    between atoms: C_23  and  N_28
REMARK    9  A    between atoms: C_26  and  O_27
REMARK   10  A    between atoms: O_31  and  C_32
REMARK                            x       y       z     vdW  Elec       q    Type
REMARK                         _______ _______ _______ _____ _____    ______ ____
ROOT
ATOM      1  C   UNL     1       1.198  -2.140  -0.049  0.00  0.00    +0.031 C 
ATOM      2  C   UNL     1       0.044  -2.844   0.074  0.00  0.00    +0.077 C 
ATOM      3  C   UNL     1      -0.162  -4.301   0.194  0.00  0.00    +0.258 C 
ATOM      4  O   UNL     1       0.773  -5.081   0.194  0.00  0.00    -0.269 OA
ATOM      5  N   UNL     1      -1.413  -4.717   0.302  0.00  0.00    -0.255 N 
ATOM      6  C   UNL     1      -2.446  -3.849   0.302  0.00  0.00    +0.121 C 
ATOM      7  S   UNL     1      -4.119  -4.188   0.430  0.00  0.00    -0.027 S 
ATOM      8  S   UNL     1      -1.645  -2.261   0.143  0.00  0.00    -0.061 S 
ENDROOT
BRANCH   1  13
ATOM      9  C   UNL     1       0.102   1.376   0.641  0.00  0.00    +0.001 A 
ATOM     10  C   UNL     1       1.114   2.100   0.032  0.00  0.00    +0.004 A 
ATOM     11  C   UNL     1       2.154   1.450  -0.605  0.00  0.00    +0.046 A 
ATOM     12  C   UNL     1       2.192   0.066  -0.638  0.00  0.00    +0.134 A 
ATOM     13  C   UNL     1       1.169  -0.673  -0.021  0.00  0.00    +0.018 A 
ATOM     14  C   UNL     1       0.122  -0.001   0.620  0.00  0.00    +0.011 A 
BRANCH  12  15
ATOM     15  O   UNL     1       3.213  -0.574  -1.263  0.00  0.00    -0.434 OA
BRANCH  15  16
ATOM     16  C   UNL     1       4.217   0.244  -1.868  0.00  0.00    +0.541 C 
ATOM     17  F   UNL     1       3.630   1.058  -2.843  0.00  0.00    -0.166 F 
ATOM     18  F   UNL     1       4.817   1.045  -0.891  0.00  0.00    -0.166 F 
ENDBRANCH  15  16
ENDBRANCH  12  15
ENDBRANCH   1  13
BRANCH   5  19
ATOM     19  C   UNL     1      -1.683  -6.151   0.425  0.00  0.00    +0.115 C 
BRANCH  19  20
ATOM     20  C   UNL     1      -1.688  -6.545   1.903  0.00  0.00    +0.029 C 
BRANCH  20  21
ATOM     21  C   UNL     1      -1.970  -8.043   2.031  0.00  0.00    +0.097 C 
BRANCH  21  22
ATOM     22  C   UNL     1      -1.975  -8.431   3.487  0.00  0.00    +0.217 C 
ATOM     23  O   UNL     1      -1.772  -7.592   4.339  0.00  0.00    -0.275 OA
ATOM     24  N   UNL     1      -2.204  -9.711   3.843  0.00  0.00    -0.283 N 
ATOM     25  H   UNL     1      -2.282 -10.397   3.162  0.00  0.00    +0.155 HD
BRANCH  24  26
ATOM     26  C   UNL     1      -2.329 -10.050   5.197  0.00  0.00    +0.078 A 
ATOM     27  C   UNL     1      -2.728  -9.094   6.119  0.00  0.00    +0.059 A 
ATOM     28  C   UNL     1      -2.851  -9.431   7.454  0.00  0.00    +0.128 A 
ATOM     29  C   UNL     1      -2.578 -10.720   7.873  0.00  0.00    +0.036 A 
ATOM     30  C   UNL     1      -2.179 -11.678   6.960  0.00  0.00    +0.049 A 
ATOM     31  C   UNL     1      -2.059 -11.350   5.619  0.00  0.00    +0.138 A 
BRANCH  28  32
ATOM     32  N   UNL     1      -3.277  -8.409   8.437  0.00  0.00    +0.056 N 
ATOM     33  O   UNL     1      -3.516  -7.282   8.072  0.00  0.00    -0.126 OA
ATOM     34  O   UNL     1      -3.385  -8.702   9.604  0.00  0.00    -0.126 OA
ENDBRANCH  28  32
BRANCH  31  35
ATOM     35  O   UNL     1      -1.673 -12.293   4.718  0.00  0.00    -0.505 OA
ATOM     36  H   UNL     1      -0.716 -12.346   4.591  0.00  0.00    +0.292 HD
ENDBRANCH  31  35
ENDBRANCH  24  26
ENDBRANCH  21  22
ENDBRANCH  20  21
ENDBRANCH  19  20
ENDBRANCH   5  19
TORSDOF 10
