REMARK  Name = ZINC20275817
REMARK  11 active torsions:
REMARK  status: ('A' for Active; 'I' for Inactive)
REMARK    1  A    between atoms: C_1  and  C_2
REMARK    2  A    between atoms: C_2  and  C_3
REMARK    3  A    between atoms: C_3  and  C_4
REMARK    4  A    between atoms: C_4  and  C_6
REMARK    5  A    between atoms: N_12  and  C_19
REMARK    6  A    between atoms: C_15  and  C_17
REMARK    7  A    between atoms: C_15  and  C_18
REMARK    8  A    between atoms: C_19  and  C_20
REMARK    9  A    between atoms: C_20  and  C_21
REMARK   10  A    between atoms: C_21  and  C_22
REMARK   11  A    between atoms: C_21  and  C_23
REMARK                            x       y       z     vdW  Elec       q    Type
REMARK                         _______ _______ _______ _____ _____    ______ ____
ROOT
ATOM      1  C   UNL     1      -0.199   1.217   2.575  0.00  0.00    +0.019 A 
ATOM      2  C   UNL     1       0.952   0.427   2.690  0.00  0.00    +0.015 A 
ATOM      3  C   UNL     1       1.439   0.094   3.935  0.00  0.00    +0.048 A 
ATOM      4  C   UNL     1       0.792   0.541   5.078  0.00  0.00    +0.143 A 
ATOM      5  C   UNL     1      -0.357   1.330   4.971  0.00  0.00    +0.079 A 
ATOM      6  C   UNL     1      -0.850   1.672   3.729  0.00  0.00    +0.038 A 
ATOM      7  N   UNL     1      -0.997   1.771   6.139  0.00  0.00    -0.265 N 
ATOM      8  C   UNL     1      -0.334   1.702   7.314  0.00  0.00    +0.263 C 
ATOM      9  O   UNL     1      -0.877   2.049   8.341  0.00  0.00    -0.271 OA
ATOM     10  C   UNL     1       1.084   1.191   7.343  0.00  0.00    +0.181 C 
ATOM     11  O   UNL     1       1.267   0.220   6.309  0.00  0.00    -0.475 OA
ATOM     12  C   UNL     1       2.050   2.357   7.122  0.00  0.00    +0.065 C 
ATOM     13  C   UNL     1       1.367   0.548   8.702  0.00  0.00    +0.065 C 
ENDROOT
BRANCH   1  14
ATOM     14  C   UNL     1      -0.718   1.572   1.248  0.00  0.00    +0.163 C 
ATOM     15  O   UNL     1      -1.715   2.256   1.150  0.00  0.00    -0.292 OA
BRANCH  14  16
ATOM     16  C   UNL     1      -0.013   1.086   0.008  0.00  0.00    +0.079 C 
BRANCH  16  18
ATOM     17  C   UNL     1      -0.037   1.099  -2.490  0.00  0.00    +0.004 C 
ATOM     18  C   UNL     1      -0.753   1.593  -1.232  0.00  0.00    +0.004 C 
ENDBRANCH  16  18
ENDBRANCH  14  16
ENDBRANCH   1  14
BRANCH   7  19
ATOM     19  C   UNL     1      -2.363   2.296   6.086  0.00  0.00    +0.114 C 
BRANCH  19  20
ATOM     20  C   UNL     1      -3.359   1.151   6.284  0.00  0.00    +0.022 C 
BRANCH  20  21
ATOM     21  C   UNL     1      -4.786   1.701   6.228  0.00  0.00    -0.016 C 
ATOM     22  C   UNL     1      -5.068   2.245   4.827  0.00  0.00    +0.007 C 
ATOM     23  C   UNL     1      -5.777   0.580   6.549  0.00  0.00    +0.007 C 
ENDBRANCH  20  21
ENDBRANCH  19  20
ENDBRANCH   7  19
TORSDOF 6
