REMARK  Name = ZINC67261585
REMARK  7 active torsions:
REMARK  status: ('A' for Active; 'I' for Inactive)
REMARK    1  A    between atoms: C_1  and  C_2
REMARK    2  A    between atoms: C_4  and  C_23
REMARK    3  A    between atoms: C_7  and  N_8
REMARK    4  A    between atoms: N_11  and  C_12
REMARK    5  A    between atoms: C_12  and  C_13
REMARK    6  A    between atoms: C_13  and  C_16
REMARK    7  A    between atoms: N_25  and  C_26
REMARK                            x       y       z     vdW  Elec       q    Type
REMARK                         _______ _______ _______ _____ _____    ______ ____
ROOT
ATOM      1  N   UNL     1       0.019   0.017   2.411  0.00  0.00    -0.269 N 
ATOM      2  C   UNL     1      -0.059  -0.666   3.571  0.00  0.00    +0.304 C 
ATOM      3  O   UNL     1      -0.041  -1.881   3.563  0.00  0.00    -0.253 OA
ATOM      4  N   UNL     1      -0.159  -0.000   4.739  0.00  0.00    -0.298 N 
ATOM      5  H   UNL     1       0.069   0.986   2.421  0.00  0.00    +0.156 HD
ATOM      6  H   UNL     1      -0.173   0.970   4.745  0.00  0.00    +0.150 HD
ENDROOT
BRANCH   1  13
ATOM      7  C   UNL     1      -1.278   1.220   0.189  0.00  0.00    +0.045 C 
ATOM      8  C   UNL     1      -0.593  -0.118   0.083  0.00  0.00    -0.028 A 
ATOM      9  C   UNL     1      -0.579  -0.790  -1.119  0.00  0.00    +0.018 A 
ATOM     10  C   UNL     1       0.056  -2.031  -1.216  0.00  0.00    +0.037 A 
ATOM     11  C   UNL     1       0.676  -2.585  -0.092  0.00  0.00    +0.015 A 
ATOM     12  C   UNL     1       0.659  -1.908   1.106  0.00  0.00    +0.024 A 
ATOM     13  C   UNL     1       0.030  -0.670   1.198  0.00  0.00    +0.038 A 
BRANCH  10  14
ATOM     14  C   UNL     1       0.072  -2.755  -2.502  0.00  0.00    +0.244 C 
ATOM     15  O   UNL     1      -0.468  -2.272  -3.478  0.00  0.00    -0.270 OA
ATOM     16  N   UNL     1       0.685  -3.952  -2.594  0.00  0.00    -0.314 N 
ATOM     17  C   UNL     1       0.701  -4.671  -3.870  0.00  0.00    +0.128 C 
ATOM     18  H   UNL     1       1.116  -4.337  -1.815  0.00  0.00    +0.149 HD
ENDBRANCH  10  14
ENDBRANCH   1  13
BRANCH   4  19
ATOM     19  C   UNL     1      -0.245  -0.742   5.999  0.00  0.00    +0.117 C 
BRANCH  19  20
ATOM     20  C   UNL     1      -0.473   0.237   7.152  0.00  0.00    +0.011 C 
ATOM     21  C   UNL     1      -1.702   0.012   8.036  0.00  0.00    +0.014 C 
ATOM     22  C   UNL     1      -1.673   1.181   7.050  0.00  0.00    +0.014 C 
BRANCH  20  23
ATOM     23  C   UNL     1       0.773   0.764   7.814  0.00  0.00    -0.040 A 
ATOM     24  C   UNL     1       1.711  -0.115   8.323  0.00  0.00    +0.005 A 
ATOM     25  C   UNL     1       2.854   0.368   8.930  0.00  0.00    +0.020 A 
ATOM     26  C   UNL     1       3.061   1.732   9.029  0.00  0.00    +0.041 A 
ATOM     27  C   UNL     1       2.123   2.612   8.520  0.00  0.00    +0.020 A 
ATOM     28  C   UNL     1       0.982   2.128   7.908  0.00  0.00    +0.005 A 
ATOM     29 CL   UNL     1       4.497   2.340   9.792  0.00  0.00    -0.084 Cl
ENDBRANCH  20  23
ENDBRANCH  19  20
ENDBRANCH   4  19
TORSDOF 5
