REMARK  Name = ZINC14546651
REMARK  2 active torsions:
REMARK  status: ('A' for Active; 'I' for Inactive)
REMARK    1  A    between atoms: C_5  and  O_7
REMARK    2  A    between atoms: C_9  and  C_18
REMARK                            x       y       z     vdW  Elec       q    Type
REMARK                         _______ _______ _______ _____ _____    ______ ____
ROOT
ATOM      1  C   UNL     1      -5.638   5.555   0.800  0.00  0.00    +0.004 A 
ATOM      2  C   UNL     1      -4.751   4.863   1.602  0.00  0.00    +0.006 A 
ATOM      3  C   UNL     1      -4.024   3.805   1.094  0.00  0.00    -0.016 A 
ATOM      4  C   UNL     1      -4.183   3.409  -0.235  0.00  0.00    +0.073 A 
ATOM      5  C   UNL     1      -5.079   4.124  -1.038  0.00  0.00    +0.138 A 
ATOM      6  C   UNL     1      -5.797   5.185  -0.523  0.00  0.00    +0.047 A 
ATOM      7  N   UNL     1      -3.519   2.326  -0.814  0.00  0.00    -0.334 N 
ATOM      8  C   UNL     1      -2.524   1.637   0.023  0.00  0.00    +0.108 C 
ATOM      9  C   UNL     1      -3.087   1.577   1.427  0.00  0.00    +0.029 C 
ATOM     10  C   UNL     1      -3.057   3.056   1.926  0.00  0.00    +0.049 C 
ATOM     11  C   UNL     1      -3.205   2.917   3.396  0.00  0.00    -0.023 C 
ATOM     12  C   UNL     1      -2.703   1.743   3.762  0.00  0.00    -0.030 C 
ATOM     13  C   UNL     1      -2.206   0.981   2.531  0.00  0.00    +0.033 C 
ATOM     14  H   UNL     1      -3.127   2.578  -1.708  0.00  0.00    +0.147 HD
ENDROOT
BRANCH   8  15
ATOM     15  C   UNL     1      -1.229   2.407   0.021  0.00  0.00    +0.010 A 
ATOM     16  C   UNL     1      -1.183   3.683  -0.513  0.00  0.00    +0.047 A 
ATOM     17  C   UNL     1       0.005   4.392  -0.509  0.00  0.00    +0.020 A 
ATOM     18  C   UNL     1       1.147   3.824   0.023  0.00  0.00    +0.003 A 
ATOM     19  C   UNL     1       1.103   2.548   0.552  0.00  0.00    +0.020 A 
ATOM     20  C   UNL     1      -0.084   1.838   0.549  0.00  0.00    +0.047 A 
ATOM     21 CL   UNL     1      -0.138   0.235   1.214  0.00  0.00    -0.083 Cl
ATOM     22 CL   UNL     1      -2.618   4.396  -1.181  0.00  0.00    -0.083 Cl
ENDBRANCH   8  15
BRANCH   5  23
ATOM     23  O   UNL     1      -5.244   3.770  -2.341  0.00  0.00    -0.505 OA
ATOM     24  H   UNL     1      -4.643   4.219  -2.950  0.00  0.00    +0.292 HD
ENDBRANCH   5  23
TORSDOF 2
