REMARK  Name = ZINC22984140
REMARK  7 active torsions:
REMARK  status: ('A' for Active; 'I' for Inactive)
REMARK    1  A    between atoms: C_1  and  C_2
REMARK    2  A    between atoms: C_5  and  C_8
REMARK    3  A    between atoms: N_15  and  C_18
REMARK    4  A    between atoms: C_18  and  C_19
REMARK    5  A    between atoms: N_24  and  C_25
REMARK    6  A    between atoms: C_28  and  C_32
REMARK    7  A    between atoms: C_30  and  C_31
REMARK                            x       y       z     vdW  Elec       q    Type
REMARK                         _______ _______ _______ _____ _____    ______ ____
ROOT
ATOM      1  C   UNL     1       1.444   3.522  -0.012  0.00  0.00    +0.004 A 
ATOM      2  C   UNL     1       2.723   3.971  -0.019  0.00  0.00    +0.056 A 
ATOM      3  S   UNL     1       3.686   2.471  -0.019  0.00  0.00    -0.076 S 
ATOM      4  C   UNL     1       2.363   1.289  -0.011  0.00  0.00    +0.116 A 
ATOM      5  C   UNL     1       1.206   2.084  -0.008  0.00  0.00    +0.080 A 
ATOM      6  C   UNL     1      -0.036   1.372  -0.000  0.00  0.00    +0.263 A 
ATOM      7  O   UNL     1      -1.096   1.976  -0.002  0.00  0.00    -0.267 OA
ATOM      8  N   UNL     1      -0.017   0.026   0.004  0.00  0.00    -0.290 N 
ATOM      9  C   UNL     1       1.154  -0.662   0.000  0.00  0.00    +0.203 A 
ATOM     10  N   UNL     1       2.302  -0.040  -0.007  0.00  0.00    -0.230 NA
ENDROOT
BRANCH   1  15
ATOM     11  C   UNL     1      -2.963   7.229  -0.005  0.00  0.00    +0.044 C 
ATOM     12  C   UNL     1      -1.809   6.258  -0.006  0.00  0.00    -0.050 A 
ATOM     13  C   UNL     1      -0.782   6.407   0.908  0.00  0.00    +0.004 A 
ATOM     14  C   UNL     1       0.277   5.522   0.911  0.00  0.00    +0.009 A 
ATOM     15  C   UNL     1       0.310   4.476  -0.010  0.00  0.00    -0.017 A 
ATOM     16  C   UNL     1      -0.725   4.335  -0.933  0.00  0.00    +0.009 A 
ATOM     17  C   UNL     1      -1.782   5.222  -0.923  0.00  0.00    +0.004 A 
ENDBRANCH   1  15
BRANCH   8  18
ATOM     18  C   UNL     1      -1.283  -0.710   0.011  0.00  0.00    +0.222 C 
BRANCH  18  19
ATOM     19  C   UNL     1      -1.723  -0.967  -1.407  0.00  0.00    +0.240 C 
ATOM     20  O   UNL     1      -1.046  -0.573  -2.333  0.00  0.00    -0.273 OA
ATOM     21  N   UNL     1      -2.869  -1.634  -1.647  0.00  0.00    -0.238 N 
ATOM     22  C   UNL     1      -3.263  -1.863  -2.916  0.00  0.00    +0.310 C 
ATOM     23  O   UNL     1      -2.584  -1.469  -3.843  0.00  0.00    -0.252 OA
ATOM     24  N   UNL     1      -4.409  -2.530  -3.155  0.00  0.00    -0.269 N 
ATOM     25  H   UNL     1      -3.484  -1.991  -0.808  0.00  0.00    +0.159 HD
ATOM     26  H   UNL     1      -4.976  -2.968  -2.320  0.00  0.00    +0.156 HD
BRANCH  24  27
ATOM     27  C   UNL     1      -4.878  -2.666  -4.467  0.00  0.00    +0.038 A 
ATOM     28  C   UNL     1      -4.512  -1.742  -5.436  0.00  0.00    +0.024 A 
ATOM     29  C   UNL     1      -4.976  -1.879  -6.730  0.00  0.00    +0.005 A 
ATOM     30  C   UNL     1      -5.806  -2.936  -7.059  0.00  0.00    -0.050 A 
ATOM     31  C   UNL     1      -6.173  -3.857  -6.096  0.00  0.00    +0.008 A 
ATOM     32  C   UNL     1      -5.707  -3.729  -4.802  0.00  0.00    -0.029 A 
ATOM     33  C   UNL     1      -6.103  -4.737  -3.754  0.00  0.00    +0.045 C 
ATOM     34  C   UNL     1      -6.311  -3.083  -8.472  0.00  0.00    +0.044 C 
ENDBRANCH  24  27
ENDBRANCH  18  19
ENDBRANCH   8  18
TORSDOF 4
