REMARK  Name = ZINC13976342
REMARK  9 active torsions:
REMARK  status: ('A' for Active; 'I' for Inactive)
REMARK    1  A    between atoms: C_1  and  C_2
REMARK    2  A    between atoms: C_7  and  O_8
REMARK    3  A    between atoms: O_8  and  C_9
REMARK    4  A    between atoms: C_9  and  C_10
REMARK    5  A    between atoms: N_12  and  C_13
REMARK    6  A    between atoms: C_13  and  N_15
REMARK    7  A    between atoms: N_15  and  N_16
REMARK    8  A    between atoms: C_17  and  C_19
REMARK    9  A    between atoms: C_23  and  N_25
REMARK                            x       y       z     vdW  Elec       q    Type
REMARK                         _______ _______ _______ _____ _____    ______ ____
ROOT
ATOM      1  C   UNL     1       0.062   0.382   7.091  0.00  0.00    +0.153 C 
ATOM      2  S   UNL     1       0.037   2.080   6.878  0.00  0.00    -0.017 S 
ENDROOT
BRANCH   1   5
ATOM      3  C   UNL     1       0.045   0.091   4.775  0.00  0.00    +0.256 C 
ATOM      4  O   UNL     1       0.027   1.294   4.624  0.00  0.00    -0.272 OA
ATOM      5  N   UNL     1       0.064  -0.432   6.017  0.00  0.00    -0.264 N 
ATOM      6  H   UNL     1       0.078  -1.394   6.138  0.00  0.00    +0.157 HD
BRANCH   3   7
ATOM      7  C   UNL     1       0.047  -0.819   3.574  0.00  0.00    +0.325 C 
BRANCH   7   8
ATOM      8  O   UNL     1       0.025  -0.033   2.381  0.00  0.00    -0.482 OA
BRANCH   8  15
ATOM      9  C   UNL     1      -0.018   1.503   0.010  0.00  0.00    +0.047 C 
ATOM     10  C   UNL     1       0.002  -0.004   0.002  0.00  0.00    -0.008 A 
ATOM     11  C   UNL     1       0.006  -0.689  -1.198  0.00  0.00    +0.022 A 
ATOM     12  C   UNL     1       0.025  -2.072  -1.206  0.00  0.00    +0.018 A 
ATOM     13  C   UNL     1       0.040  -2.772  -0.013  0.00  0.00    +0.019 A 
ATOM     14  C   UNL     1       0.036  -2.092   1.189  0.00  0.00    +0.047 A 
ATOM     15  C   UNL     1       0.023  -0.705   1.199  0.00  0.00    +0.124 A 
ATOM     16 BR   UNL     1       0.029  -3.006  -2.850  0.00  0.00    -0.050 Br
ENDBRANCH   8  15
ENDBRANCH   7   8
ENDBRANCH   3   7
ENDBRANCH   1   5
BRANCH   1  17
ATOM     17  N   UNL     1       0.081  -0.141   8.333  0.00  0.00    -0.245 N 
ATOM     18  H   UNL     1       0.080   0.444   9.106  0.00  0.00    +0.172 HD
BRANCH  17  19
ATOM     19  N   UNL     1       0.102  -1.531   8.507  0.00  0.00    -0.231 N 
ATOM     20  C   UNL     1       0.121  -2.055   9.749  0.00  0.00    +0.260 C 
ATOM     21  O   UNL     1       0.120  -1.321  10.718  0.00  0.00    -0.269 OA
ATOM     22  H   UNL     1       0.103  -2.117   7.734  0.00  0.00    +0.173 HD
BRANCH  20  23
ATOM     23  C   UNL     1       0.143  -3.521   9.933  0.00  0.00    +0.040 A 
ATOM     24  C   UNL     1       0.150  -4.367   8.822  0.00  0.00    +0.014 A 
ATOM     25  C   UNL     1       0.171  -5.734   9.000  0.00  0.00    +0.023 A 
ATOM     26  C   UNL     1       0.184  -6.269  10.277  0.00  0.00    +0.071 A 
ATOM     27  C   UNL     1       0.177  -5.435  11.383  0.00  0.00    +0.145 A 
ATOM     28  C   UNL     1       0.163  -4.066  11.218  0.00  0.00    +0.047 A 
ATOM     29 CL   UNL     1       0.210  -7.991  10.493  0.00  0.00    -0.081 Cl
BRANCH  27  30
ATOM     30  N   UNL     1       0.190  -6.014  12.745  0.00  0.00    +0.058 N 
ATOM     31  O   UNL     1       0.183  -5.288  13.711  0.00  0.00    -0.126 OA
ATOM     32  O   UNL     1       0.207  -7.214  12.892  0.00  0.00    -0.126 OA
ENDBRANCH  27  30
ENDBRANCH  20  23
ENDBRANCH  17  19
ENDBRANCH   1  17
TORSDOF 8
