REMARK  Name = ZINC06370832
REMARK  7 active torsions:
REMARK  status: ('A' for Active; 'I' for Inactive)
REMARK    1  A    between atoms: C_1  and  C_2
REMARK    2  A    between atoms: C_8  and  N_10
REMARK    3  A    between atoms: C_11  and  C_13
REMARK    4  A    between atoms: C_13  and  C_15
REMARK    5  A    between atoms: C_13  and  O_16
REMARK    6  A    between atoms: O_16  and  C_17
REMARK    7  A    between atoms: C_17  and  C_19
REMARK                            x       y       z     vdW  Elec       q    Type
REMARK                         _______ _______ _______ _____ _____    ______ ____
ROOT
ATOM      1  C   UNL     1       4.209   0.649   2.377  0.00  0.00    +0.259 C 
ATOM      2  C   UNL     1       4.213   2.100   1.892  0.00  0.00    +0.062 C 
ENDROOT
BRANCH   1   4
ATOM      3  N   UNL     1       2.116  -0.004   1.231  0.00  0.00    -0.309 N 
ATOM      4  C   UNL     1       2.795   0.128   2.388  0.00  0.00    +0.254 C 
ATOM      5  O   UNL     1       2.268  -0.174   3.438  0.00  0.00    -0.272 OA
ATOM      6  H   UNL     1       2.538   0.237   0.392  0.00  0.00    +0.149 HD
BRANCH   3  13
ATOM      7  C   UNL     1      -0.019   1.526   0.010  0.00  0.00    +0.009 C 
ATOM      8  C   UNL     1       0.002  -0.004   0.002  0.00  0.00    +0.006 C 
ATOM      9  C   UNL     1      -1.433  -0.534   0.013  0.00  0.00    +0.005 C 
ATOM     10  C   UNL     1      -1.413  -2.063   0.004  0.00  0.00    +0.000 C 
ATOM     11  C   UNL     1      -0.673  -2.570   1.244  0.00  0.00    +0.002 C 
ATOM     12  C   UNL     1       0.763  -2.041   1.233  0.00  0.00    +0.022 C 
ATOM     13  C   UNL     1       0.742  -0.511   1.242  0.00  0.00    +0.076 C 
ENDBRANCH   3  13
ENDBRANCH   1   4
BRANCH   1  14
ATOM     14  O   UNL     1       4.749   0.588   3.699  0.00  0.00    -0.448 OA
BRANCH  14  15
ATOM     15  C   UNL     1       6.082   0.405   3.808  0.00  0.00    +0.358 C 
ATOM     16  O   UNL     1       6.765   0.300   2.807  0.00  0.00    -0.243 OA
BRANCH  15  17
ATOM     17  C   UNL     1       6.704   0.331   5.129  0.00  0.00    +0.150 A 
ATOM     18  C   UNL     1       8.066   0.151   5.408  0.00  0.00    +0.034 A 
ATOM     19  C   UNL     1       9.241  -0.011   4.663  0.00  0.00    +0.012 A 
ATOM     20  C   UNL     1      10.428  -0.164   5.310  0.00  0.00    +0.001 A 
ATOM     21  C   UNL     1      10.506  -0.164   6.703  0.00  0.00    +0.002 A 
ATOM     22  C   UNL     1       9.404  -0.011   7.482  0.00  0.00    +0.030 A 
ATOM     23  C   UNL     1       8.142   0.153   6.877  0.00  0.00    +0.093 A 
ATOM     24  N   UNL     1       6.905   0.321   7.310  0.00  0.00    -0.173 NA
ATOM     25  N   UNL     1       6.077   0.430   6.335  0.00  0.00    -0.270 N 
ATOM     26  H   UNL     1       5.122   0.564   6.443  0.00  0.00    +0.189 HD
ENDBRANCH  15  17
ENDBRANCH  14  15
ENDBRANCH   1  14
TORSDOF 5
