REMARK  Name = ZINC36302515
REMARK  14 active torsions:
REMARK  status: ('A' for Active; 'I' for Inactive)
REMARK    1  A    between atoms: C_1  and  C_2
REMARK    2  A    between atoms: C_3  and  C_22
REMARK    3  A    between atoms: C_4  and  O_13
REMARK    4  A    between atoms: N_5  and  C_7
REMARK    5  A    between atoms: O_13  and  C_14
REMARK    6  A    between atoms: C_17  and  O_20
REMARK    7  A    between atoms: O_20  and  C_21
REMARK    8  A    between atoms: C_22  and  N_23
REMARK    9  A    between atoms: N_23  and  C_24
REMARK   10  A    between atoms: N_23  and  C_30
REMARK   11  A    between atoms: C_24  and  C_25
REMARK   12  A    between atoms: C_30  and  C_31
REMARK   13  A    between atoms: C_31  and  C_33
REMARK   14  A    between atoms: C_31  and  O_34
REMARK                            x       y       z     vdW  Elec       q    Type
REMARK                         _______ _______ _______ _____ _____    ______ ____
ROOT
ATOM      1  C   UNL     1      -0.047   1.554  -0.011  0.00  0.00    +0.068 C 
ATOM      2  C   UNL     1       0.446   0.179  -0.382  0.00  0.00    +0.065 A 
ATOM      3  C   UNL     1       0.714  -0.271  -1.679  0.00  0.00    +0.021 A 
ATOM      4  C   UNL     1       1.136  -1.561  -1.594  0.00  0.00    +0.225 A 
ATOM      5  N   UNL     1       1.131  -1.907  -0.279  0.00  0.00    -0.200 N 
ATOM      6  N   UNL     1       0.700  -0.794   0.455  0.00  0.00    -0.168 NA
ENDROOT
BRANCH   5   7
ATOM      7  C   UNL     1       1.498  -3.152   0.249  0.00  0.00    +0.069 A 
ATOM      8  C   UNL     1       1.091  -4.321  -0.381  0.00  0.00    +0.028 A 
ATOM      9  C   UNL     1       1.454  -5.547   0.141  0.00  0.00    +0.002 A 
ATOM     10  C   UNL     1       2.221  -5.612   1.290  0.00  0.00    +0.000 A 
ATOM     11  C   UNL     1       2.627  -4.449   1.919  0.00  0.00    +0.002 A 
ATOM     12  C   UNL     1       2.273  -3.220   1.399  0.00  0.00    +0.028 A 
ENDBRANCH   5   7
BRANCH   4  13
ATOM     13  O   UNL     1       1.495  -2.357  -2.633  0.00  0.00    -0.438 OA
BRANCH  13  14
ATOM     14  C   UNL     1       0.516  -3.044  -3.279  0.00  0.00    +0.131 A 
ATOM     15  C   UNL     1      -0.814  -2.838  -2.942  0.00  0.00    +0.050 A 
ATOM     16  C   UNL     1      -1.809  -3.535  -3.599  0.00  0.00    +0.049 A 
ATOM     17  C   UNL     1      -1.478  -4.443  -4.595  0.00  0.00    +0.120 A 
ATOM     18  C   UNL     1      -0.149  -4.650  -4.931  0.00  0.00    +0.049 A 
ATOM     19  C   UNL     1       0.846  -3.948  -4.278  0.00  0.00    +0.050 A 
BRANCH  17  20
ATOM     20  O   UNL     1      -2.458  -5.130  -5.240  0.00  0.00    -0.495 OA
ATOM     21  C   UNL     1      -2.045  -6.049  -6.255  0.00  0.00    +0.277 C 
ENDBRANCH  17  20
ENDBRANCH  13  14
ENDBRANCH   4  13
BRANCH   3  22
ATOM     22  C   UNL     1       0.561   0.531  -2.945  0.00  0.00    -0.035 C 
BRANCH  22  23
ATOM     23  N   UNL     1       1.820   1.229  -3.238  0.00  0.00    +0.389 N 
ATOM     24  H   UNL     1       2.090   1.784  -2.441  0.00  0.00    -0.081 HD
BRANCH  23  25
ATOM     25  C   UNL     1       1.636   2.103  -4.404  0.00  0.00    -0.003 C 
BRANCH  25  26
ATOM     26  C   UNL     1       0.665   3.203  -4.058  0.00  0.00    +0.089 A 
ATOM     27  C   UNL     1       0.991   4.428  -3.608  0.00  0.00    +0.042 A 
ATOM     28  C   UNL     1      -0.221   5.130  -3.415  0.00  0.00    +0.041 A 
ATOM     29  C   UNL     1      -1.216   4.292  -3.759  0.00  0.00    +0.195 A 
ATOM     30  O   UNL     1      -0.673   3.128  -4.154  0.00  0.00    -0.470 OA
ENDBRANCH  25  26
ENDBRANCH  23  25
BRANCH  23  31
ATOM     31  C   UNL     1       2.870   0.243  -3.527  0.00  0.00    -0.046 C 
BRANCH  31  32
ATOM     32  C   UNL     1       4.213   0.959  -3.686  0.00  0.00    +0.095 C 
ATOM     33  C   UNL     1       5.302  -0.065  -4.011  0.00  0.00    +0.035 C 
BRANCH  32  34
ATOM     34  O   UNL     1       4.540   1.632  -2.468  0.00  0.00    -0.394 OA
ATOM     35  H   UNL     1       5.381   2.109  -2.496  0.00  0.00    +0.210 HD
ENDBRANCH  32  34
ENDBRANCH  31  32
ENDBRANCH  23  31
ENDBRANCH  22  23
ENDBRANCH   3  22
TORSDOF 11
