REMARK  Name = ZINC20711220
REMARK  6 active torsions:
REMARK  status: ('A' for Active; 'I' for Inactive)
REMARK    1  A    between atoms: C_1  and  C_2
REMARK    2  A    between atoms: C_2  and  N_3
REMARK    3  A    between atoms: N_3  and  C_4
REMARK    4  A    between atoms: N_3  and  S_10
REMARK    5  A    between atoms: S_10  and  C_13
REMARK    6  A    between atoms: C_26  and  C_29
REMARK                            x       y       z     vdW  Elec       q    Type
REMARK                         _______ _______ _______ _____ _____    ______ ____
ROOT
ATOM      1  C   UNL     1       1.155   2.189  -0.154  0.00  0.00    +0.109 A 
ATOM      2  C   UNL     1      -0.088   1.582  -0.171  0.00  0.00    +0.030 A 
ATOM      3  C   UNL     1      -1.219   2.345  -0.378  0.00  0.00    +0.025 A 
ATOM      4  C   UNL     1      -1.108   3.719  -0.556  0.00  0.00    +0.031 A 
ATOM      5  C   UNL     1       0.135   4.332  -0.540  0.00  0.00    -0.018 A 
ATOM      6  C   UNL     1       1.266   3.553  -0.337  0.00  0.00    +0.034 A 
ATOM      7  C   UNL     1       0.304   5.805  -0.733  0.00  0.00    +0.049 C 
ATOM      8  C   UNL     1       0.834   6.123  -2.112  0.00  0.00    -0.023 C 
ATOM      9  C   UNL     1       0.295   7.231  -2.560  0.00  0.00    -0.030 C 
ATOM     10  C   UNL     1      -0.664   7.807  -1.536  0.00  0.00    +0.033 C 
ATOM     11  C   UNL     1      -1.026   6.579  -0.651  0.00  0.00    +0.029 C 
ATOM     12  C   UNL     1      -2.128   5.803  -1.378  0.00  0.00    +0.106 C 
ATOM     13  N   UNL     1      -2.264   4.480  -0.760  0.00  0.00    -0.336 N 
ATOM     14  H   UNL     1      -3.258   4.108  -0.470  0.00  0.00    +0.147 HD
ENDROOT
BRANCH  12  15
ATOM     15  C   UNL     1      -3.432   6.550  -1.264  0.00  0.00    -0.007 A 
ATOM     16  C   UNL     1      -3.576   7.547  -0.317  0.00  0.00    +0.007 A 
ATOM     17  C   UNL     1      -4.771   8.233  -0.211  0.00  0.00    +0.002 A 
ATOM     18  C   UNL     1      -5.824   7.923  -1.052  0.00  0.00    +0.021 A 
ATOM     19  C   UNL     1      -5.682   6.925  -1.999  0.00  0.00    +0.060 A 
ATOM     20  C   UNL     1      -4.482   6.242  -2.110  0.00  0.00    +0.064 A 
ATOM     21 CL   UNL     1      -4.299   4.996  -3.304  0.00  0.00    -0.082 Cl
ATOM     22 CL   UNL     1      -7.003   6.535  -3.055  0.00  0.00    -0.082 Cl
ENDBRANCH  12  15
BRANCH   1  23
ATOM     23  S   UNL     1       2.602   1.218   0.103  0.00  0.00    +0.075 S 
ATOM     24  O   UNL     1       3.594   2.095   0.619  0.00  0.00    -0.150 OA
ATOM     25  O   UNL     1       2.188   0.046   0.791  0.00  0.00    -0.150 OA
BRANCH  23  26
ATOM     26  N   UNL     1       3.134   0.729  -1.388  0.00  0.00    -0.203 N 
BRANCH  26  27
ATOM     27  C   UNL     1       2.767  -0.525  -1.883  0.00  0.00    +0.051 A 
ATOM     28  C   UNL     1       2.050  -0.623  -3.068  0.00  0.00    +0.025 A 
ATOM     29  C   UNL     1       1.693  -1.864  -3.557  0.00  0.00    +0.002 A 
ATOM     30  C   UNL     1       2.041  -3.009  -2.863  0.00  0.00    +0.000 A 
ATOM     31  C   UNL     1       2.750  -2.914  -1.680  0.00  0.00    +0.002 A 
ATOM     32  C   UNL     1       3.115  -1.677  -1.188  0.00  0.00    +0.025 A 
ENDBRANCH  26  27
BRANCH  26  34
ATOM     33  C   UNL     1       5.456   1.250  -1.949  0.00  0.00    +0.026 C 
ATOM     34  C   UNL     1       3.988   1.611  -2.187  0.00  0.00    +0.128 C 
ENDBRANCH  26  34
ENDBRANCH  23  26
ENDBRANCH   1  23
TORSDOF 5
