REMARK  Name = ZINC38555401
REMARK  8 active torsions:
REMARK  status: ('A' for Active; 'I' for Inactive)
REMARK    1  A    between atoms: C_1  and  C_2
REMARK    2  A    between atoms: C_2  and  O_3
REMARK    3  A    between atoms: O_3  and  C_4
REMARK    4  A    between atoms: C_4  and  C_6
REMARK    5  A    between atoms: C_7  and  N_31
REMARK    6  A    between atoms: C_12  and  O_29
REMARK    7  A    between atoms: C_21  and  C_23
REMARK    8  A    between atoms: O_29  and  C_30
REMARK                            x       y       z     vdW  Elec       q    Type
REMARK                         _______ _______ _______ _____ _____    ______ ____
ROOT
ATOM      1  C   UNL     1       1.445  -2.348   2.435  0.00  0.00    +0.102 C 
ATOM      2  C   UNL     1       1.476  -3.693   2.588  0.00  0.00    +0.194 C 
ATOM      3  O   UNL     1       2.137  -4.281   3.612  0.00  0.00    -0.445 OA
ATOM      4  C   UNL     1       2.596  -3.472   4.570  0.00  0.00    +0.129 C 
ATOM      5  C   UNL     1       2.539  -3.779   5.921  0.00  0.00    +0.039 A 
ATOM      6  C   UNL     1       2.005  -5.005   6.371  0.00  0.00    +0.058 A 
ATOM      7  C   UNL     1       1.976  -5.277   7.707  0.00  0.00    +0.121 A 
ATOM      8  C   UNL     1       2.463  -4.362   8.642  0.00  0.00    +0.047 A 
ATOM      9  C   UNL     1       2.985  -3.162   8.266  0.00  0.00    +0.027 A 
ATOM     10  C   UNL     1       3.046  -2.816   6.906  0.00  0.00    +0.044 A 
ATOM     11  N   UNL     1       3.551  -1.631   6.539  0.00  0.00    -0.284 N 
ATOM     12  C   UNL     1       3.665  -1.235   5.287  0.00  0.00    +0.229 C 
ATOM     13  O   UNL     1       4.133  -0.140   5.034  0.00  0.00    -0.275 OA
ATOM     14  C   UNL     1       3.214  -2.144   4.166  0.00  0.00    +0.154 C 
ATOM     15  C   UNL     1       2.123  -1.404   3.389  0.00  0.00    +0.080 C 
ATOM     16  H   UNL     1       3.852  -1.028   7.237  0.00  0.00    +0.155 HD
ENDROOT
BRANCH  15  17
ATOM     17  C   UNL     1       1.107  -0.857   4.359  0.00  0.00    -0.038 A 
ATOM     18  C   UNL     1       0.409  -1.716   5.186  0.00  0.00    +0.004 A 
ATOM     19  C   UNL     1      -0.523  -1.214   6.076  0.00  0.00    +0.000 A 
ATOM     20  C   UNL     1      -0.755   0.147   6.139  0.00  0.00    +0.000 A 
ATOM     21  C   UNL     1      -0.056   1.006   5.313  0.00  0.00    +0.000 A 
ATOM     22  C   UNL     1       0.879   0.505   4.426  0.00  0.00    +0.004 A 
ENDBRANCH  15  17
BRANCH   2  23
ATOM     23  N   UNL     1       0.820  -4.481   1.680  0.00  0.00    -0.329 N 
ATOM     24  H   UNL     1       0.421  -4.082   0.891  0.00  0.00    +0.145 HD
ATOM     25  H   UNL     1       0.755  -5.438   1.826  0.00  0.00    +0.145 HD
ENDBRANCH   2  23
BRANCH   1  26
ATOM     26  C   UNL     1       0.754  -1.812   1.336  0.00  0.00    +0.341 C 
ATOM     27  O   UNL     1       1.370  -1.431   0.357  0.00  0.00    -0.245 OA
BRANCH  26  28
ATOM     28  O   UNL     1      -0.593  -1.720   1.365  0.00  0.00    -0.462 OA
BRANCH  28  30
ATOM     29  C   UNL     1      -2.744  -1.142   0.427  0.00  0.00    +0.048 C 
ATOM     30  C   UNL     1      -1.230  -1.165   0.212  0.00  0.00    +0.229 C 
ENDBRANCH  28  30
ENDBRANCH  26  28
ENDBRANCH   1  26
BRANCH   7  31
ATOM     31  O   UNL     1       1.461  -6.460   8.137  0.00  0.00    -0.495 OA
ATOM     32  C   UNL     1       1.456  -6.692   9.547  0.00  0.00    +0.277 C 
ENDBRANCH   7  31
TORSDOF 6
