REMARK  Name = ZINC59434112
REMARK  3 active torsions:
REMARK  status: ('A' for Active; 'I' for Inactive)
REMARK    1  A    between atoms: C_5  and  N_7
REMARK    2  A    between atoms: C_8  and  C_10
REMARK    3  A    between atoms: N_12  and  N_13
REMARK                            x       y       z     vdW  Elec       q    Type
REMARK                         _______ _______ _______ _____ _____    ______ ____
ROOT
ATOM      1  C   UNL     1       0.118  -4.260   0.191  0.00  0.00    +0.318 C 
ATOM      2  O   UNL     1       1.181  -4.846   0.177  0.00  0.00    -0.263 OA
ATOM      3  N   UNL     1      -1.033  -4.953   0.300  0.00  0.00    -0.199 N 
ATOM      4  H   UNL     1      -1.882  -4.484   0.311  0.00  0.00    +0.178 HD
ENDROOT
BRANCH   3   5
ATOM      5  N   UNL     1      -1.002  -6.350   0.397  0.00  0.00    -0.189 NA
ATOM      6  C   UNL     1      -2.096  -7.008   0.501  0.00  0.00    +0.037 C 
ATOM      7  C   UNL     1      -3.415  -6.280   0.512  0.00  0.00    +0.052 C 
ATOM      8  C   UNL     1      -3.493  -5.347  -0.698  0.00  0.00    +0.006 C 
ATOM      9  C   UNL     1      -4.689  -5.737  -1.567  0.00  0.00    +0.000 C 
ATOM     10  C   UNL     1      -4.233  -5.900  -3.019  0.00  0.00    +0.000 C 
ATOM     11  C   UNL     1      -4.683  -7.264  -3.545  0.00  0.00    +0.000 C 
ATOM     12  C   UNL     1      -3.475  -8.019  -4.104  0.00  0.00    +0.000 C 
ATOM     13  C   UNL     1      -3.403  -9.408  -3.468  0.00  0.00    +0.000 C 
ATOM     14  C   UNL     1      -2.011  -9.623  -2.868  0.00  0.00    +0.000 C 
ATOM     15  C   UNL     1      -2.145 -10.002  -1.392  0.00  0.00    +0.000 C 
ATOM     16  C   UNL     1      -1.251  -9.090  -0.549  0.00  0.00    +0.006 C 
ATOM     17  C   UNL     1      -2.063  -8.511   0.606  0.00  0.00    +0.052 C 
ENDBRANCH   3   5
BRANCH   1  19
ATOM     18  N   UNL     1       1.237  -2.079  -0.021  0.00  0.00    -0.275 N 
ATOM     19  C   UNL     1       0.086  -2.772   0.088  0.00  0.00    +0.305 C 
ATOM     20  O   UNL     1      -0.977  -2.185   0.101  0.00  0.00    -0.265 OA
ATOM     21  H   UNL     1       2.080  -2.550  -0.113  0.00  0.00    +0.155 HD
BRANCH  18  26
ATOM     22  C   UNL     1       0.153   1.372   0.637  0.00  0.00    +0.002 A 
ATOM     23  C   UNL     1       1.173   2.087   0.036  0.00  0.00    +0.003 A 
ATOM     24  C   UNL     1       2.215   1.423  -0.585  0.00  0.00    +0.040 A 
ATOM     25  C   UNL     1       2.240   0.040  -0.606  0.00  0.00    +0.144 A 
ATOM     26  C   UNL     1       1.216  -0.681  -0.002  0.00  0.00    +0.069 A 
ATOM     27  C   UNL     1       0.172  -0.009   0.620  0.00  0.00    +0.026 A 
ATOM     28  F   UNL     1       3.258  -0.609  -1.213  0.00  0.00    -0.204 F 
ENDBRANCH  18  26
ENDBRANCH   1  19
TORSDOF 3
