REMARK  Name = ZINC21973465
REMARK  13 active torsions:
REMARK  status: ('A' for Active; 'I' for Inactive)
REMARK    1  A    between atoms: C_1  and  C_2
REMARK    2  A    between atoms: C_7  and  C_9
REMARK    3  A    between atoms: C_7  and  C_10
REMARK    4  A    between atoms: N_13  and  C_17
REMARK    5  A    between atoms: C_17  and  C_18
REMARK    6  A    between atoms: C_18  and  O_20
REMARK    7  A    between atoms: O_20  and  C_21
REMARK    8  A    between atoms: C_21  and  C_22
REMARK    9  A    between atoms: N_24  and  C_25
REMARK   10  A    between atoms: C_28  and  C_31
REMARK   11  A    between atoms: C_31  and  C_32
REMARK   12  A    between atoms: C_31  and  C_33
REMARK   13  A    between atoms: C_31  and  C_34
REMARK                            x       y       z     vdW  Elec       q    Type
REMARK                         _______ _______ _______ _____ _____    ______ ____
ROOT
ATOM      1  C   UNL     1      -4.545  -3.627  -3.112  0.00  0.00    +0.326 C 
ATOM      2  O   UNL     1      -4.238  -2.478  -3.322  0.00  0.00    -0.249 OA
ENDROOT
BRANCH   1   3
ATOM      3  C   UNL     1      -3.750  -4.453  -2.134  0.00  0.00    +0.238 C 
BRANCH   3  15
ATOM      4  C   UNL     1      -0.297   1.438  -0.232  0.00  0.00    +0.007 C 
ATOM      5  C   UNL     1      -0.167  -0.086  -0.187  0.00  0.00    -0.011 C 
ATOM      6  C   UNL     1      -1.552  -0.721  -0.342  0.00  0.00    +0.038 C 
ATOM      7  C   UNL     1      -1.426  -2.239  -0.276  0.00  0.00    +0.113 C 
ATOM      8  C   UNL     1      -0.804  -2.672   1.047  0.00  0.00    +0.041 C 
ATOM      9  C   UNL     1       0.577  -2.030   1.198  0.00  0.00    -0.032 C 
ATOM     10  C   UNL     1       0.438  -0.507   1.154  0.00  0.00    +0.009 C 
ATOM     11  C   UNL     1       1.191  -2.448   2.535  0.00  0.00    +0.011 C 
ATOM     12  C   UNL     1       1.482  -2.492   0.054  0.00  0.00    +0.011 C 
ATOM     13  C   UNL     1      -2.778  -2.889  -0.462  0.00  0.00    +0.247 C 
ATOM     14  O   UNL     1      -3.756  -2.762   0.242  0.00  0.00    -0.273 OA
ATOM     15  N   UNL     1      -2.666  -3.640  -1.577  0.00  0.00    -0.213 N 
ATOM     16  C   UNL     1      -1.441  -3.551  -2.111  0.00  0.00    +0.310 C 
ATOM     17  O   UNL     1      -1.099  -4.138  -3.119  0.00  0.00    -0.252 OA
ATOM     18  N   UNL     1      -0.631  -2.739  -1.405  0.00  0.00    -0.285 N 
ATOM     19  H   UNL     1       0.294  -2.526  -1.604  0.00  0.00    +0.151 HD
ENDBRANCH   3  15
ENDBRANCH   1   3
BRANCH   1  20
ATOM     20  O   UNL     1      -5.595  -4.169  -3.750  0.00  0.00    -0.454 OA
BRANCH  20  21
ATOM     21  C   UNL     1      -6.303  -3.328  -4.663  0.00  0.00    +0.328 C 
BRANCH  21  22
ATOM     22  C   UNL     1      -7.440  -4.102  -5.279  0.00  0.00    +0.255 C 
ATOM     23  O   UNL     1      -7.626  -5.259  -4.967  0.00  0.00    -0.272 OA
ATOM     24  N   UNL     1      -8.251  -3.507  -6.177  0.00  0.00    -0.283 N 
ATOM     25  H   UNL     1      -8.059  -2.607  -6.483  0.00  0.00    +0.155 HD
BRANCH  24  26
ATOM     26  C   UNL     1      -9.370  -4.189  -6.667  0.00  0.00    +0.034 A 
ATOM     27  C   UNL     1      -9.780  -4.000  -7.981  0.00  0.00    +0.023 A 
ATOM     28  C   UNL     1     -10.885  -4.674  -8.462  0.00  0.00    +0.006 A 
ATOM     29  C   UNL     1     -11.584  -5.537  -7.637  0.00  0.00    -0.042 A 
ATOM     30  C   UNL     1     -11.179  -5.727  -6.329  0.00  0.00    +0.006 A 
ATOM     31  C   UNL     1     -10.071  -5.060  -5.843  0.00  0.00    +0.023 A 
BRANCH  29  32
ATOM     32  C   UNL     1     -12.790  -6.270  -8.165  0.00  0.00    -0.013 C 
ATOM     33  C   UNL     1     -12.376  -7.145  -9.351  0.00  0.00    +0.015 C 
ATOM     34  C   UNL     1     -13.374  -7.153  -7.060  0.00  0.00    +0.015 C 
ATOM     35  C   UNL     1     -13.843  -5.259  -8.621  0.00  0.00    +0.015 C 
ENDBRANCH  29  32
ENDBRANCH  24  26
ENDBRANCH  21  22
ENDBRANCH  20  21
ENDBRANCH   1  20
TORSDOF 7
