REMARK  Name = ZINC05957223
REMARK  2 active torsions:
REMARK  status: ('A' for Active; 'I' for Inactive)
REMARK    1  A    between atoms: C_11  and  C_21
REMARK    2  A    between atoms: C_24  and  O_27
REMARK                            x       y       z     vdW  Elec       q    Type
REMARK                         _______ _______ _______ _____ _____    ______ ____
ROOT
ATOM      1  C   UNL     1      -2.070  -2.278  -5.208  0.00  0.00    +0.001 A 
ATOM      2  C   UNL     1      -0.874  -1.786  -5.705  0.00  0.00    +0.002 A 
ATOM      3  C   UNL     1       0.046  -1.131  -4.904  0.00  0.00    +0.026 A 
ATOM      4  C   UNL     1      -0.281  -0.986  -3.558  0.00  0.00    +0.047 A 
ATOM      5  C   UNL     1      -1.507  -1.492  -3.054  0.00  0.00    +0.003 A 
ATOM      6  C   UNL     1      -2.418  -2.148  -3.886  0.00  0.00    +0.010 A 
ATOM      7  C   UNL     1      -1.524  -1.173  -1.639  0.00  0.00    -0.015 A 
ATOM      8  C   UNL     1      -0.372  -0.522  -1.372  0.00  0.00    +0.046 A 
ATOM      9  N   UNL     1       0.378  -0.407  -2.512  0.00  0.00    -0.356 N 
ATOM     10  H   UNL     1       1.248   0.020  -2.568  0.00  0.00    +0.166 HD
ATOM     11  C   UNL     1       0.002  -0.004   0.002  0.00  0.00    +0.157 C 
ATOM     12  N   UNL     1      -1.011  -0.528   0.933  0.00  0.00    -0.248 N 
ATOM     13  C   UNL     1      -2.448  -0.598   0.591  0.00  0.00    +0.122 C 
ATOM     14  C   UNL     1      -2.602  -1.504  -0.637  0.00  0.00    +0.063 C 
ATOM     15  C   UNL     1      -3.095  -1.276   1.812  0.00  0.00    +0.256 C 
ATOM     16  O   UNL     1      -1.986  -1.482   2.735  0.00  0.00    -0.448 OA
ATOM     17  C   UNL     1      -0.853  -1.031   2.180  0.00  0.00    +0.404 C 
ATOM     18  O   UNL     1       0.221  -1.059   2.748  0.00  0.00    -0.226 OA
ENDROOT
BRANCH  11  19
ATOM     19  C   UNL     1      -0.018   1.503   0.010  0.00  0.00    -0.021 A 
ATOM     20  C   UNL     1      -1.206   2.178  -0.202  0.00  0.00    +0.009 A 
ATOM     21  C   UNL     1      -1.228   3.559  -0.189  0.00  0.00    +0.046 A 
ATOM     22  C   UNL     1      -0.056   4.269   0.025  0.00  0.00    +0.117 A 
ATOM     23  C   UNL     1       1.136   3.589   0.233  0.00  0.00    +0.046 A 
ATOM     24  C   UNL     1       1.152   2.208   0.224  0.00  0.00    +0.009 A 
BRANCH  22  25
ATOM     25  O   UNL     1      -0.074   5.628   0.033  0.00  0.00    -0.507 OA
ATOM     26  H   UNL     1       0.075   6.028  -0.834  0.00  0.00    +0.292 HD
ENDBRANCH  22  25
ENDBRANCH  11  19
TORSDOF 2
