REMARK  Name = ZINC56250660
REMARK  11 active torsions:
REMARK  status: ('A' for Active; 'I' for Inactive)
REMARK    1  A    between atoms: C_1  and  C_2
REMARK    2  A    between atoms: C_2  and  O_3
REMARK    3  A    between atoms: O_3  and  C_4
REMARK    4  A    between atoms: N_6  and  C_7
REMARK    5  A    between atoms: C_7  and  C_9
REMARK    6  A    between atoms: C_7  and  C_12
REMARK    7  A    between atoms: C_9  and  C_10
REMARK    8  A    between atoms: C_9  and  C_11
REMARK    9  A    between atoms: N_14  and  C_15
REMARK   10  A    between atoms: C_15  and  C_16
REMARK   11  A    between atoms: C_16  and  C_22
REMARK                            x       y       z     vdW  Elec       q    Type
REMARK                         _______ _______ _______ _____ _____    ______ ____
ROOT
ATOM      1  C   UNL     1      -3.973  -4.327   0.760  0.00  0.00    +0.234 C 
ATOM      2  O   UNL     1      -4.663  -3.395   1.115  0.00  0.00    -0.274 OA
ATOM      3  N   UNL     1      -4.454  -5.585   0.828  0.00  0.00    -0.313 N 
ATOM      4  H   UNL     1      -3.902  -6.330   0.544  0.00  0.00    +0.149 HD
ENDROOT
BRANCH   1   5
ATOM      5  C   UNL     1      -2.580  -4.080   0.243  0.00  0.00    +0.165 C 
BRANCH   5   8
ATOM      6  C   UNL     1      -1.024  -2.207   0.347  0.00  0.00    +0.401 C 
ATOM      7  O   UNL     1      -0.111  -3.006   0.397  0.00  0.00    -0.226 OA
ATOM      8  N   UNL     1      -2.297  -2.642   0.269  0.00  0.00    -0.270 N 
ATOM      9  H   UNL     1      -3.027  -2.004   0.229  0.00  0.00    +0.153 HD
BRANCH   6  10
ATOM     10  O   UNL     1      -0.765  -0.886   0.371  0.00  0.00    -0.451 OA
BRANCH  10  12
ATOM     11  C   UNL     1       0.703   1.031   0.470  0.00  0.00    +0.048 C 
ATOM     12  C   UNL     1       0.607  -0.496   0.455  0.00  0.00    +0.230 C 
ENDBRANCH  10  12
ENDBRANCH   6  10
ENDBRANCH   5   8
BRANCH   5  13
ATOM     13  C   UNL     1      -2.469  -4.595  -1.193  0.00  0.00    +0.012 C 
ATOM     14  C   UNL     1      -3.389  -3.776  -2.101  0.00  0.00    +0.009 C 
ATOM     15  C   UNL     1      -1.024  -4.458  -1.675  0.00  0.00    +0.009 C 
ENDBRANCH   5  13
ENDBRANCH   1   5
BRANCH   3  16
ATOM     16  C   UNL     1      -5.808  -5.825   1.330  0.00  0.00    +0.116 C 
BRANCH  16  17
ATOM     17  C   UNL     1      -6.146  -7.312   1.197  0.00  0.00    +0.015 C 
ATOM     18  C   UNL     1      -7.577  -7.558   1.683  0.00  0.00    +0.041 C 
ATOM     19  C   UNL     1      -7.670  -7.205   3.170  0.00  0.00    +0.160 C 
ATOM     20  O   UNL     1      -6.723  -7.984   3.904  0.00  0.00    -0.380 OA
ATOM     21  C   UNL     1      -5.364  -7.760   3.524  0.00  0.00    +0.160 C 
ATOM     22  C   UNL     1      -5.178  -8.136   2.052  0.00  0.00    +0.041 C 
BRANCH  17  23
ATOM     23  C   UNL     1      -6.023  -7.729  -0.246  0.00  0.00    -0.037 A 
ATOM     24  C   UNL     1      -5.143  -8.734  -0.603  0.00  0.00    +0.004 A 
ATOM     25  C   UNL     1      -5.030  -9.117  -1.926  0.00  0.00    +0.003 A 
ATOM     26  C   UNL     1      -5.796  -8.496  -2.894  0.00  0.00    +0.038 A 
ATOM     27  C   UNL     1      -6.677  -7.489  -2.538  0.00  0.00    +0.124 A 
ATOM     28  C   UNL     1      -6.794  -7.110  -1.212  0.00  0.00    +0.042 A 
ATOM     29  F   UNL     1      -7.426  -6.881  -3.484  0.00  0.00    -0.205 F 
ENDBRANCH  17  23
ENDBRANCH  16  17
ENDBRANCH   3  16
TORSDOF 8
