REMARK  Name = ZINC18222368
REMARK  5 active torsions:
REMARK  status: ('A' for Active; 'I' for Inactive)
REMARK    1  A    between atoms: C_1  and  C_2
REMARK    2  A    between atoms: C_2  and  C_3
REMARK    3  A    between atoms: C_2  and  C_4
REMARK    4  A    between atoms: C_7  and  C_10
REMARK    5  A    between atoms: C_15  and  C_23
REMARK                            x       y       z     vdW  Elec       q    Type
REMARK                         _______ _______ _______ _____ _____    ______ ____
ROOT
ATOM      1  C   UNL     1       2.707  -1.868  -4.752  0.00  0.00    +0.032 C 
ATOM      2  C   UNL     1       2.736  -3.398  -4.761  0.00  0.00    +0.060 C 
ATOM      3  C   UNL     1       3.481  -3.885  -5.982  0.00  0.00    +0.020 C 
ATOM      4  C   UNL     1       4.485  -3.158  -6.518  0.00  0.00    +0.041 C 
ATOM      5  C   UNL     1       5.248  -3.618  -7.740  0.00  0.00    +0.177 C 
ATOM      6  N   UNL     1       4.968  -5.024  -8.002  0.00  0.00    -0.221 N 
ATOM      7  C   UNL     1       3.948  -5.703  -7.421  0.00  0.00    +0.218 A 
ATOM      8  N   UNL     1       3.971  -6.927  -7.872  0.00  0.00    -0.201 NA
ATOM      9  C   UNL     1       4.984  -7.069  -8.732  0.00  0.00    +0.247 A 
ATOM     10  N   UNL     1       5.620  -5.928  -8.839  0.00  0.00    -0.156 NA
ATOM     11  N   UNL     1       3.099  -5.093  -6.513  0.00  0.00    -0.287 N 
ATOM     12  C   UNL     1       4.864  -1.925  -5.955  0.00  0.00    +0.164 C 
ATOM     13  O   UNL     1       5.786  -1.306  -6.447  0.00  0.00    -0.292 OA
ATOM     14  C   UNL     1       4.151  -1.357  -4.760  0.00  0.00    +0.088 C 
ATOM     15  H   UNL     1       2.259  -5.507  -6.259  0.00  0.00    +0.155 HD
ENDROOT
BRANCH   1  19
ATOM     16  C   UNL     1       0.707  -0.490  -1.238  0.00  0.00    -0.045 A 
ATOM     17  C   UNL     1       0.222  -0.151  -2.487  0.00  0.00    +0.004 A 
ATOM     18  C   UNL     1       0.869  -0.597  -3.624  0.00  0.00    +0.004 A 
ATOM     19  C   UNL     1       2.002  -1.381  -3.513  0.00  0.00    -0.043 A 
ATOM     20  C   UNL     1       2.488  -1.720  -2.263  0.00  0.00    +0.004 A 
ATOM     21  C   UNL     1       1.843  -1.270  -1.126  0.00  0.00    +0.004 A 
BRANCH  16  23
ATOM     22  C   UNL     1      -0.019   1.526   0.010  0.00  0.00    +0.012 C 
ATOM     23  C   UNL     1       0.002  -0.004   0.002  0.00  0.00    +0.013 C 
ATOM     24  C   UNL     1      -1.433  -0.534   0.013  0.00  0.00    +0.012 C 
ENDBRANCH  16  23
ENDBRANCH   1  19
BRANCH   5  25
ATOM     25  C   UNL     1       4.827  -2.797  -8.932  0.00  0.00    -0.000 A 
ATOM     26  C   UNL     1       5.758  -2.041  -9.627  0.00  0.00    +0.009 A 
ATOM     27  C   UNL     1       5.325  -1.300 -10.717  0.00  0.00    +0.020 A 
ATOM     28  C   UNL     1       3.990  -1.340 -11.070  0.00  0.00    +0.111 A 
ATOM     29  N   UNL     1       3.132  -2.070 -10.385  0.00  0.00    -0.263 NA
ATOM     30  C   UNL     1       3.509  -2.792  -9.348  0.00  0.00    +0.116 A 
ENDBRANCH   5  25
TORSDOF 3
