REMARK  Name = ZINC08707475
REMARK  7 active torsions:
REMARK  status: ('A' for Active; 'I' for Inactive)
REMARK    1  A    between atoms: C_1  and  C_2
REMARK    2  A    between atoms: C_2  and  C_4
REMARK    3  A    between atoms: C_7  and  N_10
REMARK    4  A    between atoms: C_15  and  C_16
REMARK    5  A    between atoms: C_15  and  N_59
REMARK    6  A    between atoms: N_18  and  C_19
REMARK    7  A    between atoms: C_20  and  C_28
REMARK                            x       y       z     vdW  Elec       q    Type
REMARK                         _______ _______ _______ _____ _____    ______ ____
ROOT
ATOM      1  C   UNL     1      -0.014   1.209   0.009  0.00  0.00    +0.201 C 
ATOM      2  O   UNL     1       0.002  -0.004   0.002  0.00  0.00    -0.278 OA
ATOM      3  N   UNL     1       1.143   1.898   0.001  0.00  0.00    -0.281 N 
ATOM      4  H   UNL     1       1.130   2.868   0.007  0.00  0.00    +0.155 HD
ENDROOT
BRANCH   3   5
ATOM      5  C   UNL     1       2.354   1.221  -0.014  0.00  0.00    +0.084 A 
ATOM      6  C   UNL     1       3.637   1.749  -0.029  0.00  0.00    +0.068 A 
ATOM      7  C   UNL     1       4.748   0.813  -0.039  0.00  0.00    -0.023 A 
ATOM      8  C   UNL     1       4.401  -0.492  -0.044  0.00  0.00    -0.004 A 
ATOM      9  S   UNL     1       2.630  -0.489  -0.026  0.00  0.00    -0.077 S 
ATOM     10  C   UNL     1       5.323  -1.672  -0.060  0.00  0.00    +0.043 C 
ATOM     11  C   UNL     1       6.726  -1.184  -0.449  0.00  0.00    +0.005 C 
ATOM     12  C   UNL     1       7.070   0.049   0.392  0.00  0.00    +0.005 C 
ATOM     13  C   UNL     1       6.212   1.236  -0.050  0.00  0.00    +0.037 C 
BRANCH   6  14
ATOM     14  C   UNL     1       3.863   3.198  -0.031  0.00  0.00    +0.244 C 
ATOM     15  O   UNL     1       3.970   3.799   1.023  0.00  0.00    -0.270 OA
ATOM     16  N   UNL     1       3.952   3.865  -1.199  0.00  0.00    -0.325 N 
ATOM     17  H   UNL     1       3.867   3.386  -2.038  0.00  0.00    +0.145 HD
ATOM     18  H   UNL     1       4.102   4.823  -1.200  0.00  0.00    +0.145 HD
ENDBRANCH   6  14
ENDBRANCH   3   5
BRANCH   1  19
ATOM     19  C   UNL     1      -1.330   1.944   0.019  0.00  0.00    +0.019 C 
BRANCH  19  25
ATOM     20  N   UNL     1      -4.866  -0.167  -0.921  0.00  0.00    -0.333 N 
ATOM     21  C   UNL     1      -4.830   0.590   0.338  0.00  0.00    +0.086 C 
ATOM     22  C   UNL     1      -3.719   1.641   0.267  0.00  0.00    -0.059 C 
ATOM     23  C   UNL     1      -2.469   0.218  -1.240  0.00  0.00    -0.059 C 
ATOM     24  C   UNL     1      -3.579  -0.833  -1.169  0.00  0.00    +0.086 C 
ATOM     25  N   UNL     1      -2.429   0.956   0.039  0.00  0.00    +0.387 N 
ATOM     26  H   UNL     1      -2.265   0.290   0.804  0.00  0.00    -0.081 HD
BRANCH  20  30
ATOM     27  C   UNL     1      -7.984  -2.908  -0.921  0.00  0.00    +0.017 A 
ATOM     28  C   UNL     1      -7.139  -2.805  -2.034  0.00  0.00    +0.013 A 
ATOM     29  C   UNL     1      -6.114  -1.903  -2.030  0.00  0.00    +0.024 A 
ATOM     30  C   UNL     1      -5.909  -1.084  -0.921  0.00  0.00    +0.030 A 
ATOM     31  C   UNL     1      -6.744  -1.186   0.190  0.00  0.00    +0.024 A 
ATOM     32  C   UNL     1      -7.774  -2.083   0.192  0.00  0.00    +0.013 A 
BRANCH  27  34
ATOM     33  C   UNL     1      -9.994  -3.985   0.277  0.00  0.00    +0.091 C 
ATOM     34  C   UNL     1      -9.086  -3.877  -0.921  0.00  0.00    +0.160 C 
ATOM     35  O   UNL     1      -9.267  -4.590  -1.885  0.00  0.00    -0.292 OA
ENDBRANCH  27  34
ENDBRANCH  20  30
ENDBRANCH  19  25
ENDBRANCH   1  19
TORSDOF 6
