REMARK  Name = ZINC66570317
REMARK  10 active torsions:
REMARK  status: ('A' for Active; 'I' for Inactive)
REMARK    1  A    between atoms: C_1  and  C_2
REMARK    2  A    between atoms: C_6  and  C_8
REMARK    3  A    between atoms: N_10  and  N_11
REMARK    4  A    between atoms: C_12  and  C_14
REMARK    5  A    between atoms: C_14  and  C_16
REMARK    6  A    between atoms: C_14  and  N_19
REMARK    7  A    between atoms: C_16  and  C_17
REMARK    8  A    between atoms: C_16  and  C_18
REMARK    9  A    between atoms: C_20  and  C_22
REMARK   10  A    between atoms: C_27  and  C_28
REMARK                            x       y       z     vdW  Elec       q    Type
REMARK                         _______ _______ _______ _____ _____    ______ ____
ROOT
ATOM      1  N   UNL     1      -1.696  -5.342   3.188  0.00  0.00    -0.233 N 
ATOM      2  C   UNL     1      -0.994  -6.490   3.264  0.00  0.00    +0.250 C 
ATOM      3  O   UNL     1      -0.595  -7.025   2.251  0.00  0.00    -0.272 OA
ATOM      4  H   UNL     1      -2.072  -4.949   3.991  0.00  0.00    +0.173 HD
ENDROOT
BRANCH   1   7
ATOM      5  C   UNL     1      -2.583  -3.567   1.873  0.00  0.00    +0.260 C 
ATOM      6  O   UNL     1      -3.055  -3.075   2.880  0.00  0.00    -0.269 OA
ATOM      7  N   UNL     1      -1.882  -4.715   1.949  0.00  0.00    -0.230 N 
ATOM      8  H   UNL     1      -1.505  -5.108   1.146  0.00  0.00    +0.173 HD
BRANCH   5  14
ATOM      9  C   UNL     1      -4.471   0.178  -0.831  0.00  0.00    +0.044 C 
ATOM     10  C   UNL     1      -3.687  -1.106  -0.740  0.00  0.00    -0.050 A 
ATOM     11  C   UNL     1      -3.149  -1.668  -1.884  0.00  0.00    +0.003 A 
ATOM     12  C   UNL     1      -2.427  -2.846  -1.810  0.00  0.00    +0.001 A 
ATOM     13  C   UNL     1      -2.240  -3.468  -0.592  0.00  0.00    +0.013 A 
ATOM     14  C   UNL     1      -2.780  -2.906   0.565  0.00  0.00    +0.038 A 
ATOM     15  C   UNL     1      -3.502  -1.714   0.484  0.00  0.00    +0.016 A 
ENDBRANCH   5  14
ENDBRANCH   1   7
BRANCH   2  16
ATOM     16  C   UNL     1      -0.705  -7.109   4.607  0.00  0.00    +0.163 C 
BRANCH  16  17
ATOM     17  N   UNL     1      -0.341  -8.517   4.428  0.00  0.00    -0.300 N 
ATOM     18  C   UNL     1      -0.525  -9.394   5.435  0.00  0.00    +0.245 C 
ATOM     19  O   UNL     1      -0.994  -9.017   6.491  0.00  0.00    -0.270 OA
ATOM     20  H   UNL     1       0.033  -8.818   3.585  0.00  0.00    +0.150 HD
BRANCH  18  21
ATOM     21  C   UNL     1      -0.158 -10.815   5.254  0.00  0.00    +0.040 A 
ATOM     22  C   UNL     1       0.420 -11.242   4.058  0.00  0.00    +0.013 A 
ATOM     23  C   UNL     1       0.760 -12.569   3.896  0.00  0.00    +0.001 A 
ATOM     24  C   UNL     1       0.530 -13.476   4.916  0.00  0.00    +0.000 A 
ATOM     25  C   UNL     1      -0.043 -13.058   6.104  0.00  0.00    +0.004 A 
ATOM     26  C   UNL     1      -0.383 -11.732   6.281  0.00  0.00    -0.038 A 
ATOM     27  C   UNL     1      -1.002 -11.278   7.578  0.00  0.00    +0.044 C 
ENDBRANCH  18  21
ENDBRANCH  16  17
BRANCH  16  28
ATOM     28  C   UNL     1       0.454  -6.364   5.273  0.00  0.00    +0.012 C 
ATOM     29  C   UNL     1       0.035  -4.920   5.557  0.00  0.00    +0.009 C 
ATOM     30  C   UNL     1       0.817  -7.057   6.588  0.00  0.00    +0.009 C 
ENDBRANCH  16  28
ENDBRANCH   2  16
TORSDOF 6
