REMARK  Name = ZINC06134605
REMARK  12 active torsions:
REMARK  status: ('A' for Active; 'I' for Inactive)
REMARK    1  A    between atoms: C_1  and  C_2
REMARK    2  A    between atoms: C_2  and  C_3
REMARK    3  A    between atoms: C_2  and  C_4
REMARK    4  A    between atoms: C_4  and  C_5
REMARK    5  A    between atoms: C_5  and  N_6
REMARK    6  A    between atoms: C_7  and  C_9
REMARK    7  A    between atoms: C_9  and  C_11
REMARK    8  A    between atoms: C_9  and  N_16
REMARK    9  A    between atoms: N_16  and  C_17
REMARK   10  A    between atoms: C_24  and  C_26
REMARK   11  A    between atoms: C_27  and  N_34
REMARK   12  A    between atoms: C_28  and  C_31
REMARK                            x       y       z     vdW  Elec       q    Type
REMARK                         _______ _______ _______ _____ _____    ______ ____
ROOT
ATOM      1  N   UNL     1      -2.087  -0.058  -1.169  0.00  0.00    -0.248 N 
ATOM      2  C   UNL     1      -2.821  -1.039  -1.728  0.00  0.00    +0.262 C 
ATOM      3  O   UNL     1      -2.368  -2.166  -1.814  0.00  0.00    -0.269 OA
ENDROOT
BRANCH   1   4
ATOM      4  C   UNL     1      -2.597   1.242  -1.095  0.00  0.00    +0.041 A 
ATOM      5  C   UNL     1      -2.419   2.121  -2.156  0.00  0.00    +0.024 A 
ATOM      6  C   UNL     1      -2.923   3.405  -2.081  0.00  0.00    +0.005 A 
ATOM      7  C   UNL     1      -3.606   3.816  -0.951  0.00  0.00    +0.038 A 
ATOM      8  C   UNL     1      -3.786   2.943   0.109  0.00  0.00    +0.125 A 
ATOM      9  C   UNL     1      -3.288   1.655   0.037  0.00  0.00    +0.062 A 
ATOM     10  F   UNL     1      -4.453   3.348   1.212  0.00  0.00    -0.205 F 
ENDBRANCH   1   4
BRANCH   2  11
ATOM     11  C   UNL     1      -4.165  -0.751  -2.233  0.00  0.00    +0.116 A 
ATOM     12  C   UNL     1      -5.049  -1.583  -2.923  0.00  0.00    +0.076 A 
ATOM     13  C   UNL     1      -6.248  -0.944  -3.238  0.00  0.00    +0.155 A 
ATOM     14  N   UNL     1      -6.424   0.308  -2.878  0.00  0.00    -0.203 NA
ATOM     15  S   UNL     1      -5.113   0.753  -2.124  0.00  0.00    +0.019 S 
BRANCH  13  16
ATOM     16  C   UNL     1      -7.307  -1.665  -3.968  0.00  0.00    +0.262 C 
ATOM     17  O   UNL     1      -7.137  -2.823  -4.299  0.00  0.00    -0.269 OA
ATOM     18  N   UNL     1      -8.463  -1.041  -4.269  0.00  0.00    -0.324 N 
ATOM     19  H   UNL     1      -8.598  -0.117  -4.005  0.00  0.00    +0.145 HD
ATOM     20  H   UNL     1      -9.159  -1.515  -4.750  0.00  0.00    +0.145 HD
ENDBRANCH  13  16
BRANCH  12  21
ATOM     21  N   UNL     1      -4.766  -2.900  -3.258  0.00  0.00    -0.355 N 
ATOM     22  H   UNL     1      -3.912  -3.291  -3.012  0.00  0.00    +0.142 HD
ATOM     23  H   UNL     1      -5.420  -3.430  -3.739  0.00  0.00    +0.142 HD
ENDBRANCH  12  21
ENDBRANCH   2  11
BRANCH   1  24
ATOM     24  C   UNL     1      -0.753  -0.352  -0.638  0.00  0.00    +0.233 C 
BRANCH  24  25
ATOM     25  C   UNL     1       0.245   0.612  -1.225  0.00  0.00    +0.135 A 
ATOM     26  C   UNL     1       1.492   0.306  -1.628  0.00  0.00    +0.047 A 
ATOM     27  C   UNL     1       2.072   1.502  -2.108  0.00  0.00    +0.041 A 
ATOM     28  C   UNL     1       1.146   2.467  -1.971  0.00  0.00    +0.195 A 
ATOM     29  O   UNL     1       0.042   1.923  -1.435  0.00  0.00    -0.465 OA
ENDBRANCH  24  25
BRANCH  24  31
ATOM     30  N   UNL     1       0.394  -0.135   1.542  0.00  0.00    -0.313 N 
ATOM     31  C   UNL     1      -0.767  -0.210   0.862  0.00  0.00    +0.242 C 
ATOM     32  O   UNL     1      -1.823  -0.165   1.457  0.00  0.00    -0.273 OA
ATOM     33  H   UNL     1       1.238  -0.171   1.066  0.00  0.00    +0.149 HD
BRANCH  30  34
ATOM     34  C   UNL     1       0.381   0.003   3.001  0.00  0.00    +0.104 C 
BRANCH  34  35
ATOM     35  C   UNL     1       1.819   0.067   3.520  0.00  0.00    +0.022 C 
BRANCH  35  37
ATOM     36  C   UNL     1       1.204  -1.049   5.669  0.00  0.00    +0.007 C 
ATOM     37  C   UNL     1       1.805   0.211   5.043  0.00  0.00    -0.016 C 
ATOM     38  C   UNL     1       3.236   0.399   5.551  0.00  0.00    +0.007 C 
ENDBRANCH  35  37
ENDBRANCH  34  35
ENDBRANCH  30  34
ENDBRANCH  24  31
ENDBRANCH   1  24
TORSDOF 10
