REMARK  Name = ZINC35518695
REMARK  7 active torsions:
REMARK  status: ('A' for Active; 'I' for Inactive)
REMARK    1  A    between atoms: C_3  and  C_15
REMARK    2  A    between atoms: N_4  and  C_6
REMARK    3  A    between atoms: C_9  and  N_12
REMARK    4  A    between atoms: N_19  and  N_23
REMARK    5  A    between atoms: C_24  and  C_26
REMARK    6  A    between atoms: C_26  and  C_27
REMARK    7  A    between atoms: C_27  and  N_28
REMARK                            x       y       z     vdW  Elec       q    Type
REMARK                         _______ _______ _______ _____ _____    ______ ____
ROOT
ATOM      1  C   UNL     1       3.446   0.444  -0.510  0.00  0.00    +0.046 C 
ATOM      2  C   UNL     1       4.036  -0.839  -0.607  0.00  0.00    +0.080 C 
ATOM      3  C   UNL     1       5.432  -1.198  -0.985  0.00  0.00    +0.275 C 
ATOM      4  O   UNL     1       6.259  -0.355  -1.268  0.00  0.00    -0.267 OA
ATOM      5  N   UNL     1       5.719  -2.492  -0.994  0.00  0.00    -0.170 N 
ATOM      6  C   UNL     1       4.753  -3.374  -0.669  0.00  0.00    +0.138 C 
ATOM      7  S   UNL     1       4.859  -5.082  -0.603  0.00  0.00    -0.026 S 
ATOM      8  S   UNL     1       3.343  -2.344  -0.317  0.00  0.00    -0.059 S 
ENDROOT
BRANCH   1  11
ATOM      9  C   UNL     1      -0.093   0.058   0.078  0.00  0.00    +0.020 A 
ATOM     10  C   UNL     1       1.109  -0.527  -0.192  0.00  0.00    +0.027 A 
ATOM     11  C   UNL     1       2.092   0.564  -0.260  0.00  0.00    +0.048 A 
ATOM     12  N   UNL     1       1.391   1.739  -0.022  0.00  0.00    -0.316 N 
ATOM     13  C   UNL     1       0.097   1.434   0.178  0.00  0.00    +0.092 A 
BRANCH  12  14
ATOM     14  C   UNL     1       1.941   3.026   0.006  0.00  0.00    +0.047 A 
ATOM     15  C   UNL     1       3.002   3.312   0.856  0.00  0.00    +0.028 A 
ATOM     16  C   UNL     1       3.542   4.583   0.881  0.00  0.00    +0.035 A 
ATOM     17  C   UNL     1       3.028   5.571   0.061  0.00  0.00    +0.126 A 
ATOM     18  C   UNL     1       1.972   5.290  -0.786  0.00  0.00    +0.035 A 
ATOM     19  C   UNL     1       1.431   4.019  -0.820  0.00  0.00    +0.028 A 
BRANCH  17  20
ATOM     20  N   UNL     1       3.608   6.932   0.091  0.00  0.00    +0.056 N 
ATOM     21  O   UNL     1       4.676   7.176   0.822  0.00  0.00    -0.126 OA
ATOM     22  O   UNL     1       3.057   7.899  -0.613  0.00  0.00    -0.126 OA
ENDBRANCH  17  20
ENDBRANCH  12  14
ENDBRANCH   1  11
BRANCH   5  23
ATOM     23  N   UNL     1       7.004  -2.935  -1.336  0.00  0.00    -0.226 N 
ATOM     24  C   UNL     1       7.843  -3.373  -0.377  0.00  0.00    +0.228 C 
ATOM     25  O   UNL     1       7.486  -3.384   0.782  0.00  0.00    -0.274 OA
ATOM     26  H   UNL     1       7.289  -2.926  -2.263  0.00  0.00    +0.173 HD
BRANCH  24  27
ATOM     27  C   UNL     1       9.225  -3.849  -0.745  0.00  0.00    +0.079 C 
BRANCH  27  28
ATOM     28  C   UNL     1       9.966  -4.288   0.520  0.00  0.00    -0.070 C 
BRANCH  28  29
ATOM     29  N   UNL     1      11.313  -4.753   0.161  0.00  0.00    +0.380 N 
ATOM     30  C   UNL     1      11.208  -5.955  -0.675  0.00  0.00    -0.079 C 
ATOM     31  C   UNL     1      12.604  -6.396  -1.118  0.00  0.00    -0.019 C 
ATOM     32  C   UNL     1      13.453  -6.705   0.119  0.00  0.00    -0.004 C 
ATOM     33  C   UNL     1      13.494  -5.468   1.020  0.00  0.00    -0.019 C 
ATOM     34  C   UNL     1      12.064  -5.061   1.384  0.00  0.00    -0.079 C 
ATOM     35  H   UNL     1      11.791  -4.029  -0.353  0.00  0.00    -0.082 HD
ENDBRANCH  28  29
ENDBRANCH  27  28
ENDBRANCH  24  27
ENDBRANCH   5  23
TORSDOF 7
