REMARK  Name = ZINC40457171
REMARK  11 active torsions:
REMARK  status: ('A' for Active; 'I' for Inactive)
REMARK    1  A    between atoms: C_1  and  C_2
REMARK    2  A    between atoms: C_2  and  O_4
REMARK    3  A    between atoms: O_4  and  C_5
REMARK    4  A    between atoms: C_10  and  C_41
REMARK    5  A    between atoms: C_13  and  O_19
REMARK    6  A    between atoms: C_15  and  C_16
REMARK    7  A    between atoms: C_15  and  C_17
REMARK    8  A    between atoms: C_17  and  O_18
REMARK    9  A    between atoms: C_22  and  C_40
REMARK   10  A    between atoms: C_26  and  C_34
REMARK   11  A    between atoms: C_31  and  O_33
REMARK                            x       y       z     vdW  Elec       q    Type
REMARK                         _______ _______ _______ _____ _____    ______ ____
ROOT
ATOM      1  C   UNL     1      -1.257  -2.411   0.092  0.00  0.00    +0.220 C 
ATOM      2  C   UNL     1      -1.156  -2.973   1.512  0.00  0.00    +0.053 C 
ATOM      3  C   UNL     1      -1.034  -4.493   1.425  0.00  0.00    +0.010 C 
ATOM      4  C   UNL     1      -2.326  -5.069   0.848  0.00  0.00    -0.019 C 
ATOM      5  C   UNL     1      -2.193  -6.597   0.756  0.00  0.00    +0.010 C 
ATOM      6  C   UNL     1      -1.912  -7.172   2.142  0.00  0.00    +0.032 C 
ATOM      7  C   UNL     1      -0.582  -6.645   2.667  0.00  0.00    +0.123 C 
ATOM      8  C   UNL     1      -0.546  -5.118   2.711  0.00  0.00    +0.020 C 
ATOM      9  C   UNL     1       0.941  -4.725   2.901  0.00  0.00    +0.016 C 
ATOM     10  C   UNL     1      -2.476  -4.519  -0.567  0.00  0.00    +0.076 C 
ATOM     11  C   UNL     1      -2.445  -3.003  -0.667  0.00  0.00    +0.150 C 
ATOM     12  O   UNL     1      -2.240  -2.691  -2.067  0.00  0.00    -0.481 OA
ATOM     13  C   UNL     1      -3.101  -3.246  -2.946  0.00  0.00    +0.137 A 
ATOM     14  C   UNL     1      -3.331  -2.610  -4.184  0.00  0.00    +0.093 A 
ATOM     15  C   UNL     1      -4.186  -3.172  -5.080  0.00  0.00    +0.144 A 
ATOM     16  O   UNL     1      -4.812  -4.330  -4.823  0.00  0.00    -0.422 OA
ATOM     17  C   UNL     1      -4.638  -4.948  -3.643  0.00  0.00    +0.346 A 
ATOM     18  O   UNL     1      -5.234  -5.989  -3.422  0.00  0.00    -0.245 OA
ATOM     19  C   UNL     1      -3.782  -4.415  -2.674  0.00  0.00    +0.107 A 
ATOM     20  C   UNL     1      -3.634  -5.119  -1.345  0.00  0.00    +0.163 C 
ATOM     21  C   UNL     1      -3.740  -2.323  -0.229  0.00  0.00    +0.060 C 
ATOM     22  C   UNL     1      -3.527  -4.739   1.725  0.00  0.00    +0.012 C 
ENDROOT
BRANCH  15  23
ATOM     23  C   UNL     1      -4.434  -2.486  -6.364  0.00  0.00    +0.036 A 
ATOM     24  C   UNL     1      -5.313  -3.035  -7.306  0.00  0.00    +0.014 A 
ATOM     25  C   UNL     1      -5.510  -2.353  -8.494  0.00  0.00    +0.020 A 
ATOM     26  C   UNL     1      -4.838  -1.163  -8.711  0.00  0.00    +0.111 A 
ATOM     27  N   UNL     1      -4.015  -0.670  -7.806  0.00  0.00    -0.263 NA
ATOM     28  C   UNL     1      -3.799  -1.278  -6.658  0.00  0.00    +0.122 A 
ENDBRANCH  15  23
BRANCH   7  29
ATOM     29  O   UNL     1      -0.359  -7.156   3.986  0.00  0.00    -0.391 OA
ATOM     30  H   UNL     1      -0.324  -8.121   4.034  0.00  0.00    +0.210 HD
ENDBRANCH   7  29
BRANCH  20  31
ATOM     31  O   UNL     1      -4.878  -5.052  -0.656  0.00  0.00    -0.386 OA
ATOM     32  H   UNL     1      -5.620  -5.433  -1.146  0.00  0.00    +0.210 HD
ENDBRANCH  20  31
BRANCH   1  33
ATOM     33  O   UNL     1      -1.407  -0.988   0.163  0.00  0.00    -0.457 OA
BRANCH  33  35
ATOM     34  C   UNL     1      -0.360   1.246   0.261  0.00  0.00    +0.136 C 
ATOM     35  C   UNL     1      -0.281  -0.257   0.187  0.00  0.00    +0.304 C 
ATOM     36  O   UNL     1       0.795  -0.804   0.149  0.00  0.00    -0.251 OA
ENDBRANCH  33  35
ENDBRANCH   1  33
BRANCH   8  37
ATOM     37  C   UNL     1      -1.300  -4.616   3.943  0.00  0.00    +0.165 C 
BRANCH  37  38
ATOM     38  O   UNL     1      -0.688  -5.143   5.122  0.00  0.00    -0.394 OA
ATOM     39  H   UNL     1      -1.115  -4.865   5.944  0.00  0.00    +0.209 HD
ENDBRANCH  37  38
ENDBRANCH   8  37
TORSDOF 7
