REMARK  Name = ZINC19789300
REMARK  8 active torsions:
REMARK  status: ('A' for Active; 'I' for Inactive)
REMARK    1  A    between atoms: C_4  and  C_32
REMARK    2  A    between atoms: C_5  and  C_7
REMARK    3  A    between atoms: C_7  and  N_8
REMARK    4  A    between atoms: N_8  and  C_9
REMARK    5  A    between atoms: C_9  and  C_10
REMARK    6  A    between atoms: C_19  and  N_20
REMARK    7  A    between atoms: C_24  and  C_27
REMARK    8  A    between atoms: C_27  and  O_28
REMARK                            x       y       z     vdW  Elec       q    Type
REMARK                         _______ _______ _______ _____ _____    ______ ____
ROOT
ATOM      1  C   UNL     1       1.013  -0.141   0.821  0.00  0.00    -0.024 A 
ATOM      2  C   UNL     1       0.774  -1.147  -0.067  0.00  0.00    +0.015 A 
ATOM      3  C   UNL     1       1.237  -2.440   0.247  0.00  0.00    +0.004 A 
ATOM      4  C   UNL     1       1.030  -3.519  -0.626  0.00  0.00    +0.059 A 
ATOM      5  C   UNL     1       1.486  -4.761  -0.291  0.00  0.00    +0.167 A 
ATOM      6  C   UNL     1       2.162  -4.971   0.923  0.00  0.00    +0.168 A 
ATOM      7  C   UNL     1       2.377  -3.938   1.790  0.00  0.00    +0.078 A 
ATOM      8  C   UNL     1       1.919  -2.649   1.472  0.00  0.00    +0.077 A 
ATOM      9  N   UNL     1       2.119  -1.623   2.307  0.00  0.00    -0.232 NA
ATOM     10  C   UNL     1       1.694  -0.410   2.015  0.00  0.00    +0.123 A 
ATOM     11  O   UNL     1       2.504  -6.291   1.002  0.00  0.00    -0.453 OA
ATOM     12  C   UNL     1       2.402  -6.798  -0.341  0.00  0.00    +0.466 C 
ATOM     13  O   UNL     1       1.413  -5.952  -0.956  0.00  0.00    -0.453 OA
ENDROOT
BRANCH  10  14
ATOM     14  N   UNL     1       1.925   0.623   2.912  0.00  0.00    -0.315 N 
ATOM     15  C   UNL     1       1.303   0.340   4.212  0.00  0.00    +0.106 C 
ATOM     16  C   UNL     1       1.452   1.559   5.126  0.00  0.00    +0.019 C 
ATOM     17  C   UNL     1       2.939   1.875   5.309  0.00  0.00    +0.009 C 
ATOM     18  C   UNL     1       3.573   2.118   3.936  0.00  0.00    +0.032 C 
ATOM     19  C   UNL     1       3.363   0.883   3.057  0.00  0.00    +0.112 C 
BRANCH  18  20
ATOM     20  C   UNL     1       5.072   2.376   4.104  0.00  0.00    +0.160 C 
BRANCH  20  21
ATOM     21  O   UNL     1       5.268   3.590   4.831  0.00  0.00    -0.395 OA
ATOM     22  H   UNL     1       6.287   3.942   5.050  0.00  0.00    +0.209 HD
ENDBRANCH  20  21
ENDBRANCH  18  20
ENDBRANCH  10  14
BRANCH   1  23
ATOM     23  C   UNL     1       0.540   1.258   0.521  0.00  0.00    -0.043 C 
BRANCH  23  24
ATOM     24  N   UNL     1       1.674   2.071   0.063  0.00  0.00    +0.384 N 
ATOM     25  H   UNL     1       2.096   1.610  -0.842  0.00  0.00    -0.085 HD
ATOM     26  H   UNL     1       2.438   2.089   0.855  0.00  0.00    -0.085 HD
BRANCH  24  27
ATOM     27  C   UNL     1       1.250   3.445  -0.239  0.00  0.00    -0.046 C 
BRANCH  27  32
ATOM     28  C   UNL     1       4.821   4.480  -0.891  0.00  0.00    +0.000 A 
ATOM     29  C   UNL     1       4.656   5.782  -1.327  0.00  0.00    +0.001 A 
ATOM     30  C   UNL     1       3.389   6.327  -1.410  0.00  0.00    +0.012 A 
ATOM     31  C   UNL     1       2.286   5.571  -1.058  0.00  0.00    +0.056 A 
ATOM     32  C   UNL     1       2.451   4.269  -0.623  0.00  0.00    -0.053 A 
ATOM     33  C   UNL     1       3.720   3.725  -0.535  0.00  0.00    +0.002 A 
BRANCH  31  34
ATOM     34  C   UNL     1       0.905   6.165  -1.149  0.00  0.00    +0.418 C 
ATOM     35  F   UNL     1       1.000   7.514  -1.509  0.00  0.00    -0.166 F 
ATOM     36  F   UNL     1       0.163   5.476  -2.114  0.00  0.00    -0.166 F 
ATOM     37  F   UNL     1       0.268   6.058   0.093  0.00  0.00    -0.166 F 
ENDBRANCH  31  34
ENDBRANCH  27  32
ENDBRANCH  24  27
ENDBRANCH  23  24
ENDBRANCH   1  23
TORSDOF 8
