REMARK  Name = ZINC36556719
REMARK  18 active torsions:
REMARK  status: ('A' for Active; 'I' for Inactive)
REMARK    1  A    between atoms: C_1  and  C_2
REMARK    2  A    between atoms: C_7  and  C_8
REMARK    3  A    between atoms: C_8  and  C_9
REMARK    4  A    between atoms: N_11  and  C_12
REMARK    5  A    between atoms: N_11  and  C_19
REMARK    6  A    between atoms: C_12  and  C_13
REMARK    7  A    between atoms: C_16  and  C_18
REMARK    8  A    between atoms: C_19  and  C_21
REMARK    9  A    between atoms: C_19  and  C_30
REMARK   10  A    between atoms: C_24  and  N_27
REMARK   11  A    between atoms: N_32  and  C_33
REMARK   12  A    between atoms: C_33  and  C_34
REMARK   13  A    between atoms: C_33  and  C_35
REMARK   14  A    between atoms: C_33  and  C_36
REMARK   15  A    between atoms: C_36  and  C_37
REMARK   16  A    between atoms: C_37  and  C_38
REMARK   17  A    between atoms: C_37  and  C_39
REMARK   18  A    between atoms: C_37  and  C_40
REMARK                            x       y       z     vdW  Elec       q    Type
REMARK                         _______ _______ _______ _____ _____    ______ ____
ROOT
ATOM      1  C   UNL     1      -4.019   1.255   3.714  0.00  0.00    +0.193 C 
ENDROOT
BRANCH   1   2
ATOM      2  C   UNL     1      -4.431   0.340   4.839  0.00  0.00    -0.018 A 
ATOM      3  C   UNL     1      -3.480  -0.150   5.715  0.00  0.00    +0.008 A 
ATOM      4  C   UNL     1      -3.858  -0.990   6.746  0.00  0.00    +0.033 A 
ATOM      5  C   UNL     1      -5.186  -1.339   6.901  0.00  0.00    +0.126 A 
ATOM      6  C   UNL     1      -6.137  -0.848   6.026  0.00  0.00    +0.033 A 
ATOM      7  C   UNL     1      -5.760  -0.005   4.997  0.00  0.00    +0.008 A 
BRANCH   5   8
ATOM      8  N   UNL     1      -5.590  -2.239   8.005  0.00  0.00    +0.056 N 
ATOM      9  O   UNL     1      -4.759  -2.668   8.770  0.00  0.00    -0.126 OA
ATOM     10  O   UNL     1      -6.752  -2.544   8.141  0.00  0.00    -0.126 OA
ENDBRANCH   5   8
ENDBRANCH   1   2
BRANCH   1  11
ATOM     11  C   UNL     1      -3.874   2.660   4.238  0.00  0.00    +0.239 C 
ATOM     12  O   UNL     1      -2.990   3.377   3.817  0.00  0.00    -0.273 OA
ATOM     13  N   UNL     1      -4.727   3.122   5.175  0.00  0.00    -0.308 N 
ATOM     14  H   UNL     1      -5.396   2.531   5.554  0.00  0.00    +0.149 HD
BRANCH  13  15
ATOM     15  C   UNL     1      -4.643   4.515   5.619  0.00  0.00    +0.030 C 
ATOM     16  C   UNL     1      -3.450   4.679   6.562  0.00  0.00    +0.031 C 
ATOM     17  C   UNL     1      -4.462   5.428   4.404  0.00  0.00    +0.031 C 
BRANCH  15  18
ATOM     18  C   UNL     1      -5.930   4.895   6.354  0.00  0.00    +0.031 C 
BRANCH  18  19
ATOM     19  C   UNL     1      -7.132   4.296   5.620  0.00  0.00    -0.036 C 
ATOM     20  C   UNL     1      -7.363   2.863   6.103  0.00  0.00    +0.010 C 
ATOM     21  C   UNL     1      -8.376   5.139   5.907  0.00  0.00    +0.010 C 
ATOM     22  C   UNL     1      -6.858   4.288   4.114  0.00  0.00    +0.010 C 
ENDBRANCH  18  19
ENDBRANCH  15  18
ENDBRANCH  13  15
ENDBRANCH   1  11
BRANCH   1  25
ATOM     23  C   UNL     1      -2.714  -0.122   2.185  0.00  0.00    +0.221 C 
ATOM     24  O   UNL     1      -3.752  -0.584   1.762  0.00  0.00    -0.275 OA
ATOM     25  N   UNL     1      -2.738   0.805   3.163  0.00  0.00    -0.278 N 
BRANCH  23  26
ATOM     26  C   UNL     1      -1.397  -0.585   1.617  0.00  0.00    +0.131 C 
BRANCH  26  33
ATOM     27  C   UNL     1      -1.954   0.252  -1.091  0.00  0.00    +0.044 C 
ATOM     28  C   UNL     1      -1.912  -1.216  -0.749  0.00  0.00    -0.047 A 
ATOM     29  C   UNL     1      -2.135  -2.161  -1.733  0.00  0.00    +0.003 A 
ATOM     30  C   UNL     1      -2.096  -3.507  -1.419  0.00  0.00    +0.000 A 
ATOM     31  C   UNL     1      -1.834  -3.907  -0.121  0.00  0.00    +0.000 A 
ATOM     32  C   UNL     1      -1.611  -2.961   0.862  0.00  0.00    +0.004 A 
ATOM     33  C   UNL     1      -1.645  -1.615   0.547  0.00  0.00    -0.036 A 
ENDBRANCH  26  33
ENDBRANCH  23  26
BRANCH  25  34
ATOM     34  C   UNL     1      -1.484   1.363   3.674  0.00  0.00    +0.183 C 
BRANCH  34  35
ATOM     35  C   UNL     1      -0.903   2.310   2.656  0.00  0.00    +0.122 A 
ATOM     36  C   UNL     1      -0.857   3.650   2.764  0.00  0.00    +0.046 A 
ATOM     37  C   UNL     1      -0.234   4.135   1.591  0.00  0.00    +0.045 A 
ATOM     38  C   UNL     1       0.064   3.062   0.837  0.00  0.00    +0.102 A 
ATOM     39  O   UNL     1      -0.339   1.959   1.489  0.00  0.00    -0.463 OA
ATOM     40  C   UNL     1       0.740   3.092  -0.510  0.00  0.00    +0.086 C 
ENDBRANCH  34  35
ENDBRANCH  25  34
ENDBRANCH   1  25
TORSDOF 11
