REMARK  Name = ZINC13065522
REMARK  10 active torsions:
REMARK  status: ('A' for Active; 'I' for Inactive)
REMARK    1  A    between atoms: C_1  and  C_2
REMARK    2  A    between atoms: C_4  and  C_37
REMARK    3  A    between atoms: C_9  and  C_14
REMARK    4  A    between atoms: C_14  and  N_63
REMARK    5  A    between atoms: C_15  and  C_16
REMARK    6  A    between atoms: C_15  and  N_63
REMARK    7  A    between atoms: C_23  and  C_24
REMARK    8  A    between atoms: C_23  and  N_63
REMARK    9  A    between atoms: N_28  and  C_29
REMARK   10  A    between atoms: C_29  and  C_30
REMARK                            x       y       z     vdW  Elec       q    Type
REMARK                         _______ _______ _______ _____ _____    ______ ____
ROOT
ATOM      1  N   UNL     1      -1.604   7.278  -1.746  0.00  0.00    +0.390 N 
ATOM      2  H   UNL     1      -1.040   6.682  -2.363  0.00  0.00    -0.080 HD
ENDROOT
BRANCH   1   3
ATOM      3  C   UNL     1      -1.205   7.031  -0.344  0.00  0.00    -0.036 C 
BRANCH   3  12
ATOM      4  C   UNL     1       2.040   0.327   0.040  0.00  0.00    +0.044 C 
ATOM      5  C   UNL     1       0.825   1.209   0.174  0.00  0.00    -0.050 A 
ATOM      6  C   UNL     1      -0.390   0.654   0.554  0.00  0.00    +0.008 A 
ATOM      7  C   UNL     1      -1.514   1.440   0.677  0.00  0.00    -0.026 A 
ATOM      8  C   UNL     1      -1.431   2.807   0.430  0.00  0.00    +0.052 A 
ATOM      9  C   UNL     1      -0.199   3.366   0.045  0.00  0.00    -0.001 A 
ATOM     10  C   UNL     1       0.929   2.547  -0.079  0.00  0.00    +0.013 A 
ATOM     11  C   UNL     1      -0.123   4.804  -0.218  0.00  0.00    +0.017 A 
ATOM     12  C   UNL     1      -1.248   5.548  -0.081  0.00  0.00    +0.001 A 
ATOM     13  C   UNL     1      -2.460   4.938   0.308  0.00  0.00    +0.251 A 
ATOM     14  O   UNL     1      -3.460   5.625   0.426  0.00  0.00    -0.268 OA
ATOM     15  N   UNL     1      -2.539   3.618   0.552  0.00  0.00    -0.322 N 
ATOM     16  H   UNL     1      -3.388   3.231   0.818  0.00  0.00    +0.169 HD
ATOM     17  C   UNL     1      -2.828   0.823   1.085  0.00  0.00    +0.046 C 
ENDBRANCH   3  12
ENDBRANCH   1   3
BRANCH   1  18
ATOM     18  C   UNL     1      -3.032   6.945  -1.931  0.00  0.00    -0.042 C 
BRANCH  18  19
ATOM     19  C   UNL     1      -3.380   7.084  -3.390  0.00  0.00    -0.064 A 
ATOM     20  C   UNL     1      -3.972   8.245  -3.852  0.00  0.00    +0.004 A 
ATOM     21  C   UNL     1      -4.287   8.376  -5.191  0.00  0.00    +0.038 A 
ATOM     22  C   UNL     1      -4.019   7.339  -6.069  0.00  0.00    +0.123 A 
ATOM     23  C   UNL     1      -3.430   6.175  -5.605  0.00  0.00    +0.038 A 
ATOM     24  C   UNL     1      -3.111   6.049  -4.266  0.00  0.00    +0.004 A 
ATOM     25  F   UNL     1      -4.331   7.464  -7.378  0.00  0.00    -0.205 F 
ENDBRANCH  18  19
ENDBRANCH   1  18
BRANCH   1  26
ATOM     26  C   UNL     1      -1.366   8.694  -2.096  0.00  0.00    +0.001 C 
BRANCH  26  27
ATOM     27  C   UNL     1       0.121   8.938  -2.149  0.00  0.00    +0.135 A 
ATOM     28  N   UNL     1       0.877   9.373  -1.171  0.00  0.00    -0.115 NA
ATOM     29  N   UNL     1       2.087   9.447  -1.607  0.00  0.00    -0.023 NA
ATOM     30  N   UNL     1       2.121   9.079  -2.840  0.00  0.00    -0.044 NA
ATOM     31  N   UNL     1       0.928   8.758  -3.211  0.00  0.00    -0.227 N 
BRANCH  31  32
ATOM     32  C   UNL     1       0.527   8.284  -4.538  0.00  0.00    +0.182 C 
BRANCH  32  33
ATOM     33  C   UNL     1       0.232   9.466  -5.425  0.00  0.00    -0.026 A 
ATOM     34  C   UNL     1      -1.049   9.984  -5.483  0.00  0.00    +0.008 A 
ATOM     35  C   UNL     1      -1.319  11.071  -6.293  0.00  0.00    +0.038 A 
ATOM     36  C   UNL     1      -0.309  11.635  -7.054  0.00  0.00    +0.123 A 
ATOM     37  C   UNL     1       0.972  11.112  -6.999  0.00  0.00    +0.038 A 
ATOM     38  C   UNL     1       1.241  10.028  -6.185  0.00  0.00    +0.008 A 
ATOM     39  F   UNL     1      -0.573  12.694  -7.849  0.00  0.00    -0.205 F 
ENDBRANCH  32  33
ENDBRANCH  31  32
ENDBRANCH  26  27
ENDBRANCH   1  26
TORSDOF 8
