REMARK  Name = ZINC00935478
REMARK  11 active torsions:
REMARK  status: ('A' for Active; 'I' for Inactive)
REMARK    1  A    between atoms: C_1  and  C_2
REMARK    2  A    between atoms: C_2  and  O_3
REMARK    3  A    between atoms: O_3  and  C_4
REMARK    4  A    between atoms: C_4  and  C_6
REMARK    5  A    between atoms: C_10  and  N_11
REMARK    6  A    between atoms: C_12  and  C_14
REMARK    7  A    between atoms: C_14  and  C_15
REMARK    8  A    between atoms: C_28  and  C_32
REMARK    9  A    between atoms: C_32  and  C_33
REMARK   10  A    between atoms: C_32  and  C_34
REMARK   11  A    between atoms: C_32  and  C_35
REMARK                            x       y       z     vdW  Elec       q    Type
REMARK                         _______ _______ _______ _____ _____    ______ ____
ROOT
ATOM      1  C   UNL     1       5.129  -3.226  -4.306  0.00  0.00    +0.091 A 
ATOM      2  C   UNL     1       6.263  -4.126  -4.180  0.00  0.00    -0.021 A 
ATOM      3  C   UNL     1       6.544  -4.525  -2.921  0.00  0.00    -0.004 A 
ATOM      4  S   UNL     1       5.335  -3.718  -1.910  0.00  0.00    -0.077 S 
ATOM      5  C   UNL     1       4.460  -2.871  -3.142  0.00  0.00    +0.086 A 
ATOM      6  C   UNL     1       7.645  -5.444  -2.489  0.00  0.00    +0.046 C 
ATOM      7  C   UNL     1       8.184  -6.170  -3.730  0.00  0.00    -0.000 C 
ATOM      8  C   UNL     1       8.433  -5.139  -4.835  0.00  0.00    +0.009 C 
ATOM      9  C   UNL     1       7.098  -4.607  -5.361  0.00  0.00    +0.037 C 
ENDROOT
BRANCH   5  10
ATOM     10  N   UNL     1       3.363  -2.036  -3.000  0.00  0.00    -0.279 N 
ATOM     11  C   UNL     1       2.845  -1.807  -1.777  0.00  0.00    +0.219 C 
ATOM     12  O   UNL     1       3.338  -2.331  -0.801  0.00  0.00    -0.275 OA
ATOM     13  H   UNL     1       2.968  -1.617  -3.781  0.00  0.00    +0.155 HD
BRANCH  11  14
ATOM     14  C   UNL     1       1.651  -0.899  -1.623  0.00  0.00    +0.120 C 
BRANCH  14  15
ATOM     15  C   UNL     1       1.266  -0.810  -0.144  0.00  0.00    +0.146 C 
ATOM     16  C   UNL     1       0.002  -0.004   0.002  0.00  0.00    +0.231 C 
ATOM     17  O   UNL     1      -1.050  -0.596   0.118  0.00  0.00    -0.274 OA
ATOM     18  N   UNL     1      -0.016   1.325   0.009  0.00  0.00    -0.284 N 
ATOM     19  C   UNL     1       1.090   2.170   0.003  0.00  0.00    +0.047 A 
ATOM     20  C   UNL     1       0.921   3.507  -0.343  0.00  0.00    +0.024 A 
ATOM     21  C   UNL     1       2.003   4.363  -0.363  0.00  0.00    +0.002 A 
ATOM     22  C   UNL     1       3.267   3.904  -0.042  0.00  0.00    +0.001 A 
ATOM     23  C   UNL     1       3.450   2.578   0.307  0.00  0.00    +0.016 A 
ATOM     24  C   UNL     1       2.367   1.715   0.332  0.00  0.00    +0.030 A 
ATOM     25  S   UNL     1       2.591   0.023   0.783  0.00  0.00    -0.110 S 
ATOM     26  H   UNL     1      -0.888   1.749   0.016  0.00  0.00    +0.155 HD
ENDBRANCH  14  15
ENDBRANCH  11  14
ENDBRANCH   5  10
BRANCH   7  27
ATOM     27  C   UNL     1       9.496  -6.877  -3.385  0.00  0.00    -0.035 C 
ATOM     28  C   UNL     1      10.518  -5.848  -2.899  0.00  0.00    +0.011 C 
ATOM     29  C   UNL     1       9.245  -7.906  -2.281  0.00  0.00    +0.011 C 
ATOM     30  C   UNL     1      10.037  -7.585  -4.628  0.00  0.00    +0.011 C 
ENDBRANCH   7  27
BRANCH   1  31
ATOM     31  C   UNL     1       4.708  -2.712  -5.611  0.00  0.00    +0.342 C 
ATOM     32  O   UNL     1       5.176  -1.672  -6.035  0.00  0.00    -0.245 OA
BRANCH  31  33
ATOM     33  O   UNL     1       3.801  -3.391  -6.343  0.00  0.00    -0.461 OA
BRANCH  33  35
ATOM     34  C   UNL     1       2.400  -3.727  -8.306  0.00  0.00    +0.048 C 
ATOM     35  C   UNL     1       3.431  -2.823  -7.627  0.00  0.00    +0.229 C 
ENDBRANCH  33  35
ENDBRANCH  31  33
ENDBRANCH   1  31
TORSDOF 7
