REMARK  Name = ZINC04944292
REMARK  4 active torsions:
REMARK  status: ('A' for Active; 'I' for Inactive)
REMARK    1  A    between atoms: C_1  and  C_2
REMARK    2  A    between atoms: C_2  and  S_3
REMARK    3  A    between atoms: S_3  and  C_4
REMARK    4  A    between atoms: C_16  and  C_18
REMARK                            x       y       z     vdW  Elec       q    Type
REMARK                         _______ _______ _______ _____ _____    ______ ____
ROOT
ATOM      1  C   UNL     1      -1.424  -2.374   0.009  0.00  0.00    +0.171 A 
ATOM      2  N   UNL     1      -2.548  -3.143   0.001  0.00  0.00    -0.302 N 
ATOM      3  H   UNL     1      -3.422  -2.723   0.002  0.00  0.00    +0.171 HD
ATOM      4  C   UNL     1      -2.447  -4.489  -0.010  0.00  0.00    +0.258 A 
ATOM      5  O   UNL     1      -3.447  -5.189  -0.018  0.00  0.00    -0.267 OA
ATOM      6  C   UNL     1      -1.173  -5.065  -0.013  0.00  0.00    +0.065 A 
ATOM      7  C   UNL     1      -0.061  -4.241  -0.004  0.00  0.00    +0.137 A 
ATOM      8  N   UNL     1      -0.221  -2.914   0.002  0.00  0.00    -0.208 NA
ATOM      9  N   UNL     1       1.209  -4.793  -0.007  0.00  0.00    -0.270 N 
ATOM     10  C   UNL     1       1.399  -6.078   0.346  0.00  0.00    +0.219 C 
ATOM     11  O   UNL     1       2.518  -6.546   0.321  0.00  0.00    -0.275 OA
ATOM     12  C   UNL     1       0.242  -6.941   0.771  0.00  0.00    +0.109 C 
ATOM     13  C   UNL     1      -1.008  -6.561  -0.024  0.00  0.00    +0.067 C 
ATOM     14  H   UNL     1       1.969  -4.249  -0.266  0.00  0.00    +0.156 HD
ENDROOT
BRANCH  13  15
ATOM     15  C   UNL     1      -0.864  -7.040  -1.445  0.00  0.00    -0.032 A 
ATOM     16  C   UNL     1       0.086  -6.498  -2.257  0.00  0.00    +0.005 A 
ATOM     17  C   UNL     1       0.234  -6.928  -3.574  0.00  0.00    +0.001 A 
ATOM     18  C   UNL     1      -0.566  -7.902  -4.088  0.00  0.00    +0.008 A 
ATOM     19  C   UNL     1      -1.558  -8.484  -3.280  0.00  0.00    -0.018 A 
ATOM     20  C   UNL     1      -1.705  -8.051  -1.939  0.00  0.00    -0.014 A 
ATOM     21  C   UNL     1      -2.693  -8.638  -1.130  0.00  0.00    +0.009 A 
ATOM     22  C   UNL     1      -3.489  -9.615  -1.642  0.00  0.00    +0.001 A 
ATOM     23  C   UNL     1      -3.341 -10.046  -2.959  0.00  0.00    +0.001 A 
ATOM     24  C   UNL     1      -2.404  -9.491  -3.776  0.00  0.00    +0.008 A 
ENDBRANCH  13  15
BRANCH   1  25
ATOM     25  S   UNL     1      -1.580  -0.619   0.023  0.00  0.00    -0.088 S 
BRANCH  25  27
ATOM     26  C   UNL     1       0.144   1.504   0.034  0.00  0.00    +0.016 C 
ATOM     27  C   UNL     1       0.134  -0.026   0.023  0.00  0.00    +0.074 C 
ENDBRANCH  25  27
ENDBRANCH   1  25
TORSDOF 3
