REMARK  Name = ZINC41532934
REMARK  10 active torsions:
REMARK  status: ('A' for Active; 'I' for Inactive)
REMARK    1  A    between atoms: C_1  and  C_2
REMARK    2  A    between atoms: C_2  and  C_3
REMARK    3  A    between atoms: C_2  and  C_4
REMARK    4  A    between atoms: C_7  and  C_10
REMARK    5  A    between atoms: C_12  and  C_26
REMARK    6  A    between atoms: N_16  and  C_17
REMARK    7  A    between atoms: C_17  and  C_18
REMARK    8  A    between atoms: C_18  and  N_19
REMARK    9  A    between atoms: C_26  and  C_28
REMARK   10  A    between atoms: C_29  and  C_30
REMARK                            x       y       z     vdW  Elec       q    Type
REMARK                         _______ _______ _______ _____ _____    ______ ____
ROOT
ATOM      1  C   UNL     1      -5.419  -2.005   0.043  0.00  0.00    +0.145 C 
ATOM      2  C   UNL     1      -6.278  -1.199  -0.903  0.00  0.00    +0.076 C 
ATOM      3  C   UNL     1      -6.742  -2.061  -1.837  0.00  0.00    +0.249 C 
ATOM      4  C   UNL     1      -6.226  -3.413  -1.551  0.00  0.00    +0.288 C 
ATOM      5  O   UNL     1      -6.465  -4.404  -2.212  0.00  0.00    -0.266 OA
ATOM      6  N   UNL     1      -5.451  -3.386  -0.450  0.00  0.00    -0.285 N 
ATOM      7  O   UNL     1      -7.554  -1.733  -2.872  0.00  0.00    -0.282 OA
ENDROOT
BRANCH   1  11
ATOM      8  C   UNL     1      -1.412  -0.526   0.013  0.00  0.00    -0.045 A 
ATOM      9  C   UNL     1      -2.259  -0.204   1.056  0.00  0.00    +0.004 A 
ATOM     10  C   UNL     1      -3.556  -0.683   1.066  0.00  0.00    +0.006 A 
ATOM     11  C   UNL     1      -4.006  -1.482   0.032  0.00  0.00    -0.022 A 
ATOM     12  C   UNL     1      -3.159  -1.803  -1.012  0.00  0.00    +0.006 A 
ATOM     13  C   UNL     1      -1.863  -1.321  -1.024  0.00  0.00    +0.004 A 
BRANCH   8  15
ATOM     14  C   UNL     1      -0.019   1.526   0.010  0.00  0.00    +0.012 C 
ATOM     15  C   UNL     1       0.002  -0.004   0.002  0.00  0.00    +0.013 C 
ATOM     16  C   UNL     1       0.742  -0.511   1.242  0.00  0.00    +0.012 C 
ENDBRANCH   8  15
ENDBRANCH   1  11
BRANCH   2  17
ATOM     17  C   UNL     1      -6.556   0.240  -0.824  0.00  0.00    +0.188 C 
ATOM     18  O   UNL     1      -7.272   0.770  -1.658  0.00  0.00    -0.287 OA
BRANCH  17  19
ATOM     19  C   UNL     1      -5.995   1.013   0.219  0.00  0.00    +0.055 C 
ATOM     20  C   UNL     1      -6.252   2.346   0.292  0.00  0.00    +0.050 C 
BRANCH  20  21
ATOM     21  C   UNL     1      -5.691   3.118   1.335  0.00  0.00    +0.128 A 
ATOM     22  C   UNL     1      -5.872   4.473   1.533  0.00  0.00    +0.049 A 
ATOM     23  C   UNL     1      -5.136   4.811   2.677  0.00  0.00    +0.042 A 
ATOM     24  C   UNL     1      -4.548   3.677   3.124  0.00  0.00    +0.195 A 
ATOM     25  O   UNL     1      -4.887   2.661   2.318  0.00  0.00    -0.464 OA
ENDBRANCH  20  21
ENDBRANCH  17  19
ENDBRANCH   2  17
BRANCH   6  26
ATOM     26  C   UNL     1      -4.760  -4.532   0.148  0.00  0.00    +0.090 C 
BRANCH  26  27
ATOM     27  C   UNL     1      -5.676  -5.198   1.177  0.00  0.00    -0.060 C 
BRANCH  27  28
ATOM     28  N   UNL     1      -4.983  -6.347   1.777  0.00  0.00    +0.381 N 
ATOM     29  C   UNL     1      -4.741  -7.363   0.746  0.00  0.00    -0.079 C 
ATOM     30  C   UNL     1      -3.949  -8.526   1.347  0.00  0.00    -0.019 C 
ATOM     31  C   UNL     1      -4.752  -9.143   2.495  0.00  0.00    -0.004 C 
ATOM     32  C   UNL     1      -5.063  -8.057   3.530  0.00  0.00    -0.019 C 
ATOM     33  C   UNL     1      -5.814  -6.912   2.848  0.00  0.00    -0.079 C 
ATOM     34  H   UNL     1      -4.101  -6.043   2.162  0.00  0.00    -0.082 HD
ENDBRANCH  27  28
ENDBRANCH  26  27
ENDBRANCH   6  26
TORSDOF 8
