REMARK  Name = ZINC33809991
REMARK  8 active torsions:
REMARK  status: ('A' for Active; 'I' for Inactive)
REMARK    1  A    between atoms: C_1  and  O_2
REMARK    2  A    between atoms: O_2  and  C_3
REMARK    3  A    between atoms: C_6  and  O_30
REMARK    4  A    between atoms: C_7  and  C_9
REMARK    5  A    between atoms: C_14  and  S_18
REMARK    6  A    between atoms: S_18  and  C_19
REMARK    7  A    between atoms: C_19  and  C_20
REMARK    8  A    between atoms: O_30  and  C_31
REMARK                            x       y       z     vdW  Elec       q    Type
REMARK                         _______ _______ _______ _____ _____    ______ ____
ROOT
ATOM      1  C   UNL     1      -0.472   7.996   0.668  0.00  0.00    +0.096 C 
ATOM      2  C   UNL     1      -0.579   6.518   0.901  0.00  0.00    +0.069 A 
ATOM      3  C   UNL     1      -1.196   6.027   2.008  0.00  0.00    +0.135 A 
ATOM      4  N   UNL     1      -1.280   4.671   2.185  0.00  0.00    -0.208 NA
ATOM      5  C   UNL     1      -0.747   3.828   1.257  0.00  0.00    +0.171 A 
ATOM      6  N   UNL     1      -0.139   4.291   0.184  0.00  0.00    -0.302 N 
ATOM      7  C   UNL     1      -0.036   5.611  -0.035  0.00  0.00    +0.258 A 
ATOM      8  O   UNL     1       0.528   6.025  -1.037  0.00  0.00    -0.267 OA
ATOM      9  N   UNL     1      -1.728   6.886   2.942  0.00  0.00    -0.302 N 
ATOM     10  C   UNL     1      -1.324   8.192   2.998  0.00  0.00    +0.017 C 
ATOM     11  C   UNL     1      -0.715   8.769   1.940  0.00  0.00    +0.024 C 
ATOM     12  C   UNL     1      -0.295  10.110   1.989  0.00  0.00    +0.162 C 
ATOM     13  O   UNL     1       0.269  10.593   1.027  0.00  0.00    -0.292 OA
ATOM     14  C   UNL     1      -0.530  10.957   3.210  0.00  0.00    +0.080 C 
ATOM     15  C   UNL     1      -1.777  10.445   3.938  0.00  0.00    +0.014 C 
ATOM     16  C   UNL     1      -1.572   8.965   4.269  0.00  0.00    +0.051 C 
ATOM     17  H   UNL     1      -2.486   6.524   3.653  0.00  0.00    +0.153 HD
ATOM     18  H   UNL     1       0.293   3.593  -0.548  0.00  0.00    +0.171 HD
ENDROOT
BRANCH   1  23
ATOM     19  C   UNL     1      -3.777   8.606  -1.059  0.00  0.00    +0.121 A 
ATOM     20  C   UNL     1      -3.364   9.163  -2.260  0.00  0.00    +0.049 A 
ATOM     21  C   UNL     1      -2.018   9.342  -2.512  0.00  0.00    +0.049 A 
ATOM     22  C   UNL     1      -1.079   8.964  -1.563  0.00  0.00    +0.124 A 
ATOM     23  C   UNL     1      -1.492   8.407  -0.362  0.00  0.00    +0.010 A 
ATOM     24  C   UNL     1      -2.838   8.225  -0.112  0.00  0.00    +0.053 A 
BRANCH  19  26
ATOM     25  C   UNL     1      -6.013   8.842  -1.833  0.00  0.00    +0.277 C 
ATOM     26  O   UNL     1      -5.103   8.431  -0.811  0.00  0.00    -0.495 OA
ENDBRANCH  19  26
BRANCH  22  27
ATOM     27  O   UNL     1       0.247   9.139  -1.811  0.00  0.00    -0.495 OA
ATOM     28  C   UNL     1       0.601   9.718  -3.068  0.00  0.00    +0.277 C 
ENDBRANCH  22  27
ENDBRANCH   1  23
BRANCH   5  29
ATOM     29  S   UNL     1      -0.866   2.087   1.500  0.00  0.00    -0.084 S 
BRANCH  29  30
ATOM     30  C   UNL     1      -0.018   1.503   0.010  0.00  0.00    +0.104 C 
BRANCH  30  31
ATOM     31  C   UNL     1       0.002  -0.004   0.002  0.00  0.00    -0.023 C 
ATOM     32  C   UNL     1      -0.648  -0.663  -0.925  0.00  0.00    +0.005 C 
ENDBRANCH  30  31
ENDBRANCH  29  30
ENDBRANCH   5  29
TORSDOF 6
