REMARK  Name = ZINC32527432
REMARK  11 active torsions:
REMARK  status: ('A' for Active; 'I' for Inactive)
REMARK    1  A    between atoms: C_1  and  C_2
REMARK    2  A    between atoms: C_4  and  C_31
REMARK    3  A    between atoms: C_8  and  C_30
REMARK    4  A    between atoms: N_12  and  C_13
REMARK    5  A    between atoms: C_13  and  C_14
REMARK    6  A    between atoms: C_14  and  C_15
REMARK    7  A    between atoms: C_20  and  C_29
REMARK    8  A    between atoms: C_21  and  C_23
REMARK    9  A    between atoms: C_23  and  O_25
REMARK   10  A    between atoms: O_25  and  C_26
REMARK   11  A    between atoms: C_26  and  C_27
REMARK                            x       y       z     vdW  Elec       q    Type
REMARK                         _______ _______ _______ _____ _____    ______ ____
ROOT
ATOM      1  C   UNL     1      -1.366   2.450   1.073  0.00  0.00    +0.118 C 
ENDROOT
BRANCH   1   2
ATOM      2  C   UNL     1      -2.561   3.368   1.071  0.00  0.00    +0.220 C 
ATOM      3  O   UNL     1      -3.091   3.673   0.024  0.00  0.00    -0.275 OA
ATOM      4  N   UNL     1      -3.042   3.851   2.235  0.00  0.00    -0.265 N 
ATOM      5  C   UNL     1      -4.139   4.694   2.233  0.00  0.00    +0.165 A 
ATOM      6  N   UNL     1      -4.751   5.258   3.263  0.00  0.00    -0.229 NA
ATOM      7  C   UNL     1      -5.784   6.042   3.099  0.00  0.00    +0.062 A 
ATOM      8  C   UNL     1      -6.233   6.260   1.804  0.00  0.00    +0.120 A 
ATOM      9  S   UNL     1      -5.064   5.271   0.882  0.00  0.00    -0.045 S 
ATOM     10  C   UNL     1      -6.469   6.684   4.279  0.00  0.00    +0.067 C 
ATOM     11  H   UNL     1      -2.561   3.575   3.185  0.00  0.00    +0.157 HD
BRANCH   8  12
ATOM     12  C   UNL     1      -7.351   7.071   1.326  0.00  0.00    +0.348 C 
ATOM     13  O   UNL     1      -8.043   7.680   2.120  0.00  0.00    -0.244 OA
BRANCH  12  14
ATOM     14  O   UNL     1      -7.615   7.145   0.005  0.00  0.00    -0.457 OA
BRANCH  14  15
ATOM     15  C   UNL     1      -8.722   7.956  -0.391  0.00  0.00    +0.259 C 
BRANCH  15  16
ATOM     16  C   UNL     1      -8.863   7.918  -1.891  0.00  0.00    +0.006 C 
ATOM     17  C   UNL     1     -10.044   7.757  -2.434  0.00  0.00    +0.007 C 
ENDBRANCH  15  16
ENDBRANCH  14  15
ENDBRANCH  12  14
ENDBRANCH   8  12
ENDBRANCH   1   2
BRANCH   1  18
ATOM     18  C   UNL     1      -1.028   2.051  -0.365  0.00  0.00    +0.134 C 
BRANCH  18  30
ATOM     19  C   UNL     1      -0.250  -4.234   1.285  0.00  0.00    +0.044 C 
ATOM     20  C   UNL     1      -0.101  -2.848   0.714  0.00  0.00    -0.050 A 
ATOM     21  C   UNL     1      -1.117  -2.296  -0.046  0.00  0.00    +0.008 A 
ATOM     22  C   UNL     1      -1.024  -1.001  -0.533  0.00  0.00    -0.026 A 
ATOM     23  C   UNL     1       0.036  -0.195  -0.153  0.00  0.00    +0.055 A 
ATOM     24  C   UNL     1       1.148  -0.825   0.474  0.00  0.00    +0.002 A 
ATOM     25  C   UNL     1       1.040  -2.135   0.946  0.00  0.00    +0.013 A 
ATOM     26  C   UNL     1       2.418  -0.102   0.559  0.00  0.00    -0.036 A 
ATOM     27  C   UNL     1       2.506   1.136   0.011  0.00  0.00    +0.074 A 
ATOM     28  C   UNL     1       1.340   1.755  -0.480  0.00  0.00    +0.252 A 
ATOM     29  O   UNL     1       1.413   2.844  -1.019  0.00  0.00    -0.268 OA
ATOM     30  N   UNL     1       0.135   1.157  -0.363  0.00  0.00    -0.307 N 
ATOM     31  C   UNL     1       3.621  -0.706   1.240  0.00  0.00    +0.044 C 
ATOM     32  C   UNL     1      -2.133  -0.552  -1.452  0.00  0.00    +0.046 C 
ENDBRANCH  18  30
ENDBRANCH   1  18
TORSDOF 7
