REMARK  Name = ZINC09933021
REMARK  11 active torsions:
REMARK  status: ('A' for Active; 'I' for Inactive)
REMARK    1  A    between atoms: C_1  and  S_2
REMARK    2  A    between atoms: S_2  and  C_5
REMARK    3  A    between atoms: C_8  and  N_14
REMARK    4  A    between atoms: C_9  and  N_11
REMARK    5  A    between atoms: N_14  and  C_15
REMARK    6  A    between atoms: C_15  and  C_16
REMARK    7  A    between atoms: C_16  and  N_17
REMARK    8  A    between atoms: C_18  and  C_20
REMARK    9  A    between atoms: C_20  and  O_21
REMARK   10  A    between atoms: O_21  and  C_22
REMARK   11  A    between atoms: C_27  and  C_28
REMARK                            x       y       z     vdW  Elec       q    Type
REMARK                         _______ _______ _______ _____ _____    ______ ____
ROOT
ATOM      1  C   UNL     1      -3.176  -2.409  -1.001  0.00  0.00    +0.123 C 
ENDROOT
BRANCH   1   2
ATOM      2  N   UNL     1      -1.830  -1.897  -1.266  0.00  0.00    -0.311 N 
ATOM      3  C   UNL     1      -1.644  -0.584  -1.509  0.00  0.00    +0.251 C 
ATOM      4  O   UNL     1      -2.592   0.173  -1.509  0.00  0.00    -0.272 OA
ATOM      5  H   UNL     1      -1.072  -2.502  -1.265  0.00  0.00    +0.149 HD
BRANCH   3   6
ATOM      6  C   UNL     1      -0.259  -0.057  -1.781  0.00  0.00    +0.324 C 
BRANCH   6   7
ATOM      7  O   UNL     1      -0.321   1.353  -2.008  0.00  0.00    -0.482 OA
BRANCH   7   8
ATOM      8  C   UNL     1       0.851   1.988  -2.270  0.00  0.00    +0.126 A 
ATOM      9  C   UNL     1       2.038   1.271  -2.302  0.00  0.00    +0.046 A 
ATOM     10  C   UNL     1       3.228   1.918  -2.574  0.00  0.00    +0.004 A 
ATOM     11  C   UNL     1       3.237   3.282  -2.803  0.00  0.00    +0.001 A 
ATOM     12  C   UNL     1       2.057   4.000  -2.766  0.00  0.00    +0.009 A 
ATOM     13  C   UNL     1       0.863   3.356  -2.500  0.00  0.00    +0.017 A 
BRANCH  13  14
ATOM     14  C   UNL     1      -0.423   4.139  -2.459  0.00  0.00    +0.137 C 
ATOM     15  S   UNL     1      -1.807   3.163  -3.175  0.00  0.00    -0.141 S 
ATOM     16  C   UNL     1      -2.742   4.426  -4.123  0.00  0.00    +0.081 C 
ATOM     17  C   UNL     1      -1.661   5.287  -4.821  0.00  0.00    +0.081 C 
ATOM     18  S   UNL     1      -0.345   5.584  -3.587  0.00  0.00    -0.141 S 
ENDBRANCH  13  14
ENDBRANCH   7   8
ENDBRANCH   6   7
ENDBRANCH   3   6
ENDBRANCH   1   2
BRANCH   1  19
ATOM     19  C   UNL     1      -3.109  -3.918  -0.758  0.00  0.00    +0.120 C 
BRANCH  19  20
ATOM     20  N   UNL     1      -4.456  -4.431  -0.493  0.00  0.00    -0.341 N 
ATOM     21  H   UNL     1      -5.214  -3.825  -0.494  0.00  0.00    +0.146 HD
BRANCH  20  25
ATOM     22  C   UNL     1      -5.030  -8.485   0.259  0.00  0.00    +0.090 A 
ATOM     23  C   UNL     1      -3.780  -8.022  -0.109  0.00  0.00    +0.029 A 
ATOM     24  C   UNL     1      -3.586  -6.678  -0.360  0.00  0.00    +0.027 A 
ATOM     25  C   UNL     1      -4.648  -5.791  -0.241  0.00  0.00    +0.058 A 
ATOM     26  C   UNL     1      -5.901  -6.258   0.135  0.00  0.00    +0.149 A 
ATOM     27  C   UNL     1      -6.089  -7.605   0.379  0.00  0.00    +0.061 A 
BRANCH  22  29
ATOM     28  C   UNL     1      -4.934 -10.400   2.348  0.00  0.00    +0.200 C 
ATOM     29  S   UNL     1      -5.273 -10.201   0.577  0.00  0.00    -0.006 S 
ATOM     30  O   UNL     1      -6.651 -10.427   0.314  0.00  0.00    -0.170 OA
ATOM     31  O   UNL     1      -4.272 -10.857  -0.189  0.00  0.00    -0.170 OA
ENDBRANCH  22  29
BRANCH  26  32
ATOM     32  N   UNL     1      -7.034  -5.316   0.269  0.00  0.00    +0.058 N 
ATOM     33  O   UNL     1      -6.849  -4.202   0.727  0.00  0.00    -0.126 OA
ATOM     34  O   UNL     1      -8.152  -5.654  -0.078  0.00  0.00    -0.126 OA
ENDBRANCH  26  32
ENDBRANCH  20  25
ENDBRANCH  19  20
ENDBRANCH   1  19
TORSDOF 10
