REMARK  Name = ZINC09962830
REMARK  17 active torsions:
REMARK  status: ('A' for Active; 'I' for Inactive)
REMARK    1  A    between atoms: C_1  and  C_2
REMARK    2  A    between atoms: N_5  and  S_8
REMARK    3  A    between atoms: S_8  and  C_11
REMARK    4  A    between atoms: N_17  and  C_22
REMARK    5  A    between atoms: C_22  and  C_23
REMARK    6  A    between atoms: N_25  and  C_26
REMARK    7  A    between atoms: C_26  and  C_27
REMARK    8  A    between atoms: C_27  and  C_28
REMARK    9  A    between atoms: C_28  and  N_29
REMARK   10  A    between atoms: N_29  and  C_30
REMARK   11  A    between atoms: N_29  and  C_34
REMARK   12  A    between atoms: C_30  and  C_31
REMARK   13  A    between atoms: C_31  and  C_32
REMARK   14  A    between atoms: C_31  and  C_33
REMARK   15  A    between atoms: C_34  and  C_35
REMARK   16  A    between atoms: C_35  and  C_36
REMARK   17  A    between atoms: C_35  and  C_37
REMARK                            x       y       z     vdW  Elec       q    Type
REMARK                         _______ _______ _______ _____ _____    ______ ____
ROOT
ATOM      1  C   UNL     1      -2.107  -3.196   3.179  0.00  0.00    +0.107 A 
ATOM      2  C   UNL     1      -2.876  -3.714   2.153  0.00  0.00    +0.032 A 
ATOM      3  C   UNL     1      -2.346  -4.662   1.297  0.00  0.00    +0.049 A 
ATOM      4  C   UNL     1      -1.043  -5.094   1.467  0.00  0.00    +0.143 A 
ATOM      5  C   UNL     1      -0.268  -4.572   2.502  0.00  0.00    +0.081 A 
ATOM      6  C   UNL     1      -0.802  -3.618   3.353  0.00  0.00    +0.055 A 
ATOM      7  N   UNL     1       1.050  -5.019   2.665  0.00  0.00    -0.256 N 
ATOM      8  C   UNL     1       1.643  -5.693   1.654  0.00  0.00    +0.258 C 
ATOM      9  O   UNL     1       2.771  -6.117   1.784  0.00  0.00    -0.271 OA
ATOM     10  C   UNL     1       0.894  -5.915   0.364  0.00  0.00    +0.325 C 
ATOM     11  O   UNL     1      -0.506  -6.025   0.634  0.00  0.00    -0.481 OA
ENDROOT
BRANCH   1  12
ATOM     12  S   UNL     1      -2.791  -1.988   4.265  0.00  0.00    +0.061 S 
ATOM     13  O   UNL     1      -2.045  -2.058   5.472  0.00  0.00    -0.153 OA
ATOM     14  O   UNL     1      -4.201  -2.162   4.229  0.00  0.00    -0.153 OA
BRANCH  12  19
ATOM     15  C   UNL     1      -2.830   3.731   3.853  0.00  0.00    +0.007 C 
ATOM     16  C   UNL     1      -2.488   2.317   3.378  0.00  0.00    -0.012 C 
ATOM     17  C   UNL     1      -3.779   1.520   3.180  0.00  0.00    +0.020 C 
ATOM     18  C   UNL     1      -3.435   0.117   2.672  0.00  0.00    +0.110 C 
ATOM     19  N   UNL     1      -2.481  -0.502   3.602  0.00  0.00    -0.177 NA
ATOM     20  C   UNL     1      -1.246   0.222   3.934  0.00  0.00    +0.110 C 
ATOM     21  C   UNL     1      -1.615   1.625   4.428  0.00  0.00    +0.020 C 
ENDBRANCH  12  19
ENDBRANCH   1  12
BRANCH   7  22
ATOM     22  C   UNL     1       1.775  -4.761   3.911  0.00  0.00    +0.209 C 
BRANCH  22  23
ATOM     23  C   UNL     1       1.541  -5.897   4.873  0.00  0.00    +0.231 C 
ATOM     24  O   UNL     1       0.839  -6.831   4.550  0.00  0.00    -0.274 OA
ATOM     25  N   UNL     1       2.113  -5.875   6.093  0.00  0.00    -0.314 N 
ATOM     26  H   UNL     1       2.675  -5.128   6.353  0.00  0.00    +0.149 HD
BRANCH  25  27
ATOM     27  C   UNL     1       1.886  -6.980   7.029  0.00  0.00    +0.102 C 
BRANCH  27  28
ATOM     28  C   UNL     1       2.643  -6.709   8.331  0.00  0.00    +0.000 C 
BRANCH  28  29
ATOM     29  C   UNL     1       2.406  -7.863   9.307  0.00  0.00    -0.077 C 
BRANCH  29  30
ATOM     30  N   UNL     1       3.140  -7.608  10.554  0.00  0.00    +0.380 N 
ATOM     31  H   UNL     1       2.940  -6.673  10.877  0.00  0.00    -0.082 HD
BRANCH  30  32
ATOM     32  C   UNL     1       2.723  -8.578  11.575  0.00  0.00    -0.076 C 
BRANCH  32  33
ATOM     33  C   UNL     1       3.247  -9.967  11.203  0.00  0.00    -0.034 C 
ATOM     34  C   UNL     1       2.999 -10.933  12.364  0.00  0.00    +0.005 C 
ATOM     35  C   UNL     1       2.518 -10.470   9.956  0.00  0.00    +0.005 C 
ENDBRANCH  32  33
ENDBRANCH  30  32
BRANCH  30  36
ATOM     36  C   UNL     1       4.582  -7.743  10.310  0.00  0.00    -0.076 C 
BRANCH  36  37
ATOM     37  C   UNL     1       5.352  -7.363  11.576  0.00  0.00    -0.034 C 
ATOM     38  C   UNL     1       5.481  -8.589  12.482  0.00  0.00    +0.005 C 
ATOM     39  C   UNL     1       6.746  -6.861  11.194  0.00  0.00    +0.005 C 
ENDBRANCH  36  37
ENDBRANCH  30  36
ENDBRANCH  29  30
ENDBRANCH  28  29
ENDBRANCH  27  28
ENDBRANCH  25  27
ENDBRANCH  22  23
ENDBRANCH   7  22
TORSDOF 12
