REMARK  Name = ZINC13498503
REMARK  16 active torsions:
REMARK  status: ('A' for Active; 'I' for Inactive)
REMARK    1  A    between atoms: C_1  and  C_2
REMARK    2  A    between atoms: C_2  and  C_3
REMARK    3  A    between atoms: C_3  and  C_4
REMARK    4  A    between atoms: C_3  and  C_5
REMARK    5  A    between atoms: C_3  and  N_6
REMARK    6  A    between atoms: C_7  and  C_11
REMARK    7  A    between atoms: C_11  and  C_13
REMARK    8  A    between atoms: C_11  and  N_74
REMARK    9  A    between atoms: C_13  and  C_14
REMARK   10  A    between atoms: C_13  and  C_15
REMARK   11  A    between atoms: C_16  and  C_17
REMARK   12  A    between atoms: C_16  and  N_74
REMARK   13  A    between atoms: C_17  and  C_18
REMARK   14  A    between atoms: C_24  and  C_25
REMARK   15  A    between atoms: C_24  and  N_74
REMARK   16  A    between atoms: C_30  and  C_37
REMARK                            x       y       z     vdW  Elec       q    Type
REMARK                         _______ _______ _______ _____ _____    ______ ____
ROOT
ATOM      1  N   UNL     1      -0.828   1.177   0.846  0.00  0.00    +0.390 N 
ATOM      2  H   UNL     1      -1.838   1.308   0.972  0.00  0.00    -0.080 HD
ENDROOT
BRANCH   1   3
ATOM      3  C   UNL     1      -0.322   0.286   1.911  0.00  0.00    +0.006 C 
BRANCH   3   5
ATOM      4  N   UNL     1      -2.180  -0.441   3.500  0.00  0.00    -0.225 N 
ATOM      5  C   UNL     1      -1.220   0.420   3.114  0.00  0.00    +0.139 A 
ATOM      6  N   UNL     1      -1.214   1.395   3.990  0.00  0.00    -0.115 NA
ATOM      7  N   UNL     1      -2.128   1.150   4.864  0.00  0.00    -0.023 NA
ATOM      8  N   UNL     1      -2.712   0.040   4.573  0.00  0.00    -0.043 NA
BRANCH   4   9
ATOM      9  C   UNL     1      -2.550  -1.690   2.829  0.00  0.00    +0.061 C 
ATOM     10  C   UNL     1      -2.884  -1.401   1.364  0.00  0.00    +0.036 C 
ATOM     11  C   UNL     1      -1.381  -2.674   2.902  0.00  0.00    +0.036 C 
BRANCH   9  13
ATOM     12  C   UNL     1      -4.159  -3.601   2.821  0.00  0.00    +0.006 C 
ATOM     13  C   UNL     1      -3.772  -2.297   3.521  0.00  0.00    +0.026 C 
ENDBRANCH   9  13
ENDBRANCH   4   9
ENDBRANCH   3   5
BRANCH   3  14
ATOM     14  C   UNL     1       1.107   0.674   2.296  0.00  0.00    -0.024 C 
ATOM     15  C   UNL     1       1.548  -0.145   3.510  0.00  0.00    +0.006 C 
ATOM     16  C   UNL     1       2.046   0.391   1.121  0.00  0.00    +0.006 C 
ENDBRANCH   3  14
ENDBRANCH   1   3
BRANCH   1  17
ATOM     17  C   UNL     1      -0.159   2.493   0.928  0.00  0.00    -0.073 C 
BRANCH  17  18
ATOM     18  C   UNL     1      -0.634   3.208   2.194  0.00  0.00    +0.016 C 
BRANCH  18  19
ATOM     19  C   UNL     1      -0.105   4.619   2.202  0.00  0.00    -0.049 A 
ATOM     20  C   UNL     1       1.116   4.896   2.788  0.00  0.00    +0.003 A 
ATOM     21  C   UNL     1       1.603   6.190   2.791  0.00  0.00    +0.000 A 
ATOM     22  C   UNL     1       0.865   7.208   2.217  0.00  0.00    +0.000 A 
ATOM     23  C   UNL     1      -0.358   6.932   1.636  0.00  0.00    +0.000 A 
ATOM     24  C   UNL     1      -0.843   5.638   1.628  0.00  0.00    +0.003 A 
ENDBRANCH  18  19
ENDBRANCH  17  18
ENDBRANCH   1  17
BRANCH   1  25
ATOM     25  C   UNL     1      -0.584   0.569  -0.479  0.00  0.00    -0.037 C 
BRANCH  25  26
ATOM     26  C   UNL     1      -1.342   1.352  -1.520  0.00  0.00    +0.001 A 
ATOM     27  C   UNL     1      -0.713   2.328  -2.221  0.00  0.00    +0.017 A 
ATOM     28  C   UNL     1      -1.478   3.071  -3.225  0.00  0.00    -0.001 A 
ATOM     29  C   UNL     1      -0.884   4.088  -3.980  0.00  0.00    +0.010 A 
ATOM     30  C   UNL     1      -1.625   4.761  -4.909  0.00  0.00    +0.004 A 
ATOM     31  C   UNL     1      -2.962   4.446  -5.111  0.00  0.00    -0.048 A 
ATOM     32  C   UNL     1      -3.567   3.448  -4.379  0.00  0.00    +0.029 A 
ATOM     33  C   UNL     1      -2.833   2.748  -3.427  0.00  0.00    +0.049 A 
ATOM     34  N   UNL     1      -3.413   1.744  -2.681  0.00  0.00    -0.322 N 
ATOM     35  H   UNL     1      -4.347   1.523  -2.821  0.00  0.00    +0.169 HD
ATOM     36  C   UNL     1      -2.701   1.064  -1.765  0.00  0.00    +0.251 A 
ATOM     37  O   UNL     1      -3.246   0.180  -1.127  0.00  0.00    -0.268 OA
ATOM     38  C   UNL     1      -3.759   5.203  -6.142  0.00  0.00    +0.044 C 
ENDBRANCH  25  26
ENDBRANCH   1  25
TORSDOF 10
