REMARK  Name = ZINC39633680
REMARK  6 active torsions:
REMARK  status: ('A' for Active; 'I' for Inactive)
REMARK    1  A    between atoms: C_1  and  C_2
REMARK    2  A    between atoms: C_4  and  C_7
REMARK    3  A    between atoms: C_8  and  C_13
REMARK    4  A    between atoms: C_9  and  C_12
REMARK    5  A    between atoms: C_17  and  C_26
REMARK    6  A    between atoms: N_28  and  C_29
REMARK                            x       y       z     vdW  Elec       q    Type
REMARK                         _______ _______ _______ _____ _____    ______ ____
ROOT
ATOM      1  C   UNL     1       1.058  -5.003   0.275  0.00  0.00    +0.252 C 
ATOM      2  O   UNL     1      -0.057  -4.576   0.509  0.00  0.00    -0.270 OA
ATOM      3  N   UNL     1       1.423  -5.274  -0.994  0.00  0.00    -0.296 N 
ATOM      4  C   UNL     1       0.585  -5.210  -2.214  0.00  0.00    +0.121 C 
ATOM      5  C   UNL     1       1.516  -4.621  -3.297  0.00  0.00    +0.100 C 
ATOM      6  C   UNL     1       2.938  -4.951  -2.813  0.00  0.00    -0.004 C 
ATOM      7  C   UNL     1       2.756  -5.699  -1.484  0.00  0.00    +0.115 C 
ATOM      8  C   UNL     1       3.729  -3.666  -2.584  0.00  0.00    -0.010 C 
ATOM      9  C   UNL     1       5.157  -4.021  -2.159  0.00  0.00    -0.082 C 
ATOM     10  N   UNL     1       5.794  -4.832  -3.203  0.00  0.00    +0.379 N 
ATOM     11  C   UNL     1       5.080  -6.106  -3.352  0.00  0.00    -0.082 C 
ATOM     12  C   UNL     1       3.650  -5.840  -3.828  0.00  0.00    -0.010 C 
ATOM     13  H   UNL     1       5.769  -4.330  -4.079  0.00  0.00    -0.086 HD
ATOM     14  H   UNL     1       6.753  -5.013  -2.949  0.00  0.00    -0.086 HD
ENDROOT
BRANCH   1  16
ATOM     15  C   UNL     1       2.233  -6.418   2.045  0.00  0.00    +0.201 A 
ATOM     16  C   UNL     1       2.009  -5.222   1.378  0.00  0.00    +0.108 A 
ATOM     17  C   UNL     1       2.865  -4.252   1.955  0.00  0.00    +0.093 A 
ATOM     18  N   UNL     1       3.550  -4.826   2.898  0.00  0.00    -0.082 NA
ATOM     19  O   UNL     1       3.169  -6.186   2.979  0.00  0.00    -0.352 OA
ATOM     20  C   UNL     1       2.963  -2.805   1.546  0.00  0.00    +0.070 C 
BRANCH  15  24
ATOM     21  C   UNL     1       0.818 -11.275   2.439  0.00  0.00    +0.089 C 
ATOM     22  C   UNL     1       0.947  -9.850   1.968  0.00  0.00    +0.135 A 
ATOM     23  C   UNL     1       1.728  -8.905   2.521  0.00  0.00    +0.079 A 
ATOM     24  C   UNL     1       1.561  -7.708   1.780  0.00  0.00    +0.152 A 
ATOM     25  N   UNL     1       0.702  -7.951   0.817  0.00  0.00    -0.075 NA
ATOM     26  O   UNL     1       0.308  -9.307   0.920  0.00  0.00    -0.359 OA
ENDBRANCH  15  24
ENDBRANCH   1  16
BRANCH   5  27
ATOM     27  C   UNL     1       1.326  -3.130  -3.398  0.00  0.00    +0.218 C 
ATOM     28  O   UNL     1       1.000  -2.492  -2.419  0.00  0.00    -0.275 OA
ATOM     29  N   UNL     1       1.518  -2.504  -4.576  0.00  0.00    -0.312 N 
ATOM     30  H   UNL     1       1.710  -3.021  -5.374  0.00  0.00    +0.149 HD
BRANCH  29  31
ATOM     31  C   UNL     1       1.437  -1.043  -4.652  0.00  0.00    +0.073 C 
ATOM     32  C   UNL     1      -0.041  -0.633  -4.817  0.00  0.00    +0.022 C 
ATOM     33  C   UNL     1      -0.189   0.802  -4.389  0.00  0.00    +0.002 C 
ATOM     34  C   UNL     1      -0.082   1.784  -5.572  0.00  0.00    +0.000 C 
ATOM     35  C   UNL     1       1.037   1.407  -6.561  0.00  0.00    +0.000 C 
ATOM     36  C   UNL     1       2.294   0.957  -5.866  0.00  0.00    +0.002 C 
ATOM     37  C   UNL     1       2.267  -0.582  -5.754  0.00  0.00    +0.022 C 
ENDBRANCH  29  31
ENDBRANCH   5  27
TORSDOF 4
