REMARK  Name = ZINC39658412
REMARK  9 active torsions:
REMARK  status: ('A' for Active; 'I' for Inactive)
REMARK    1  A    between atoms: C_4  and  C_7
REMARK    2  A    between atoms: C_7  and  S_8
REMARK    3  A    between atoms: S_8  and  C_9
REMARK    4  A    between atoms: C_9  and  C_10
REMARK    5  A    between atoms: C_10  and  N_11
REMARK    6  A    between atoms: C_12  and  C_14
REMARK    7  A    between atoms: C_25  and  C_27
REMARK    8  A    between atoms: C_30  and  O_33
REMARK    9  A    between atoms: O_33  and  C_34
REMARK                            x       y       z     vdW  Elec       q    Type
REMARK                         _______ _______ _______ _____ _____    ______ ____
ROOT
ATOM      1  C   UNL     1      10.199  -4.354   3.298  0.00  0.00    +0.100 C 
ATOM      2  C   UNL     1      10.977  -3.235   2.571  0.00  0.00    +0.121 C 
ATOM      3  N   UNL     1      11.716  -2.532   3.646  0.00  0.00    -0.296 N 
ATOM      4  C   UNL     1      12.170  -3.615   4.550  0.00  0.00    +0.115 C 
ATOM      5  C   UNL     1      10.986  -4.603   4.596  0.00  0.00    -0.004 C 
ATOM      6  C   UNL     1      10.108  -4.317   5.810  0.00  0.00    -0.010 C 
ATOM      7  C   UNL     1      10.895  -4.627   7.087  0.00  0.00    -0.082 C 
ATOM      8  N   UNL     1      11.311  -6.034   7.079  0.00  0.00    +0.379 N 
ATOM      9  C   UNL     1      12.229  -6.279   5.960  0.00  0.00    -0.082 C 
ATOM     10  C   UNL     1      11.499  -6.039   4.636  0.00  0.00    -0.010 C 
ATOM     11  C   UNL     1      11.928  -1.207   3.773  0.00  0.00    +0.247 C 
ATOM     12  O   UNL     1      11.383  -0.429   3.014  0.00  0.00    -0.270 OA
ATOM     13  H   UNL     1      11.776  -6.252   7.947  0.00  0.00    -0.086 HD
ATOM     14  H   UNL     1      10.497  -6.623   6.979  0.00  0.00    -0.086 HD
ENDROOT
BRANCH  11  15
ATOM     15  C   UNL     1      12.821  -0.701   4.833  0.00  0.00    +0.037 A 
ATOM     16  C   UNL     1      13.772  -1.546   5.411  0.00  0.00    +0.016 A 
ATOM     17  C   UNL     1      14.604  -1.070   6.399  0.00  0.00    +0.047 A 
ATOM     18  C   UNL     1      14.498   0.250   6.823  0.00  0.00    +0.130 A 
ATOM     19  C   UNL     1      13.554   1.094   6.251  0.00  0.00    +0.047 A 
ATOM     20  C   UNL     1      12.722   0.627   5.258  0.00  0.00    +0.016 A 
BRANCH  18  21
ATOM     21  O   UNL     1      15.319   0.715   7.798  0.00  0.00    -0.406 OA
BRANCH  21  22
ATOM     22  C   UNL     1      15.157   2.081   8.186  0.00  0.00    +0.575 C 
ATOM     23  F   UNL     1      13.857   2.279   8.663  0.00  0.00    -0.133 F 
ATOM     24  F   UNL     1      16.076   2.392   9.194  0.00  0.00    -0.133 F 
ATOM     25  F   UNL     1      15.379   2.909   7.081  0.00  0.00    -0.133 F 
ENDBRANCH  21  22
ENDBRANCH  18  21
ENDBRANCH  11  15
BRANCH   1  27
ATOM     26  N   UNL     1       7.819  -4.806   3.797  0.00  0.00    -0.314 N 
ATOM     27  C   UNL     1       8.798  -3.898   3.615  0.00  0.00    +0.218 C 
ATOM     28  O   UNL     1       8.551  -2.714   3.705  0.00  0.00    -0.275 OA
ATOM     29  H   UNL     1       8.016  -5.753   3.724  0.00  0.00    +0.149 HD
BRANCH  26  30
ATOM     30  C   UNL     1       6.457  -4.363   4.104  0.00  0.00    +0.115 C 
BRANCH  30  31
ATOM     31  C   UNL     1       5.547  -5.583   4.261  0.00  0.00    +0.088 C 
BRANCH  31  32
ATOM     32  S   UNL     1       3.860  -5.034   4.642  0.00  0.00    -0.155 S 
BRANCH  32  33
ATOM     33  C   UNL     1       2.920  -6.578   4.795  0.00  0.00    +0.104 C 
BRANCH  33  37
ATOM     34  C   UNL     1      -1.157  -5.682   5.702  0.00  0.00    +0.000 A 
ATOM     35  C   UNL     1      -0.749  -5.789   4.386  0.00  0.00    +0.000 A 
ATOM     36  C   UNL     1       0.571  -6.079   4.092  0.00  0.00    +0.004 A 
ATOM     37  C   UNL     1       1.482  -6.261   5.115  0.00  0.00    -0.038 A 
ATOM     38  C   UNL     1       1.074  -6.154   6.432  0.00  0.00    +0.004 A 
ATOM     39  C   UNL     1      -0.245  -5.865   6.725  0.00  0.00    +0.000 A 
ENDBRANCH  33  37
ENDBRANCH  32  33
ENDBRANCH  31  32
ENDBRANCH  30  31
ENDBRANCH  26  30
ENDBRANCH   1  27
TORSDOF 9
