REMARK  Name = ZINC42086513
REMARK  11 active torsions:
REMARK  status: ('A' for Active; 'I' for Inactive)
REMARK    1  A    between atoms: C_1  and  C_2
REMARK    2  A    between atoms: C_2  and  C_3
REMARK    3  A    between atoms: C_3  and  C_4
REMARK    4  A    between atoms: C_4  and  C_6
REMARK    5  A    between atoms: C_4  and  N_7
REMARK    6  A    between atoms: C_8  and  C_10
REMARK    7  A    between atoms: C_10  and  C_12
REMARK    8  A    between atoms: C_10  and  S_13
REMARK    9  A    between atoms: S_13  and  C_14
REMARK   10  A    between atoms: C_18  and  C_24
REMARK   11  A    between atoms: C_20  and  C_23
REMARK                            x       y       z     vdW  Elec       q    Type
REMARK                         _______ _______ _______ _____ _____    ______ ____
ROOT
ATOM      1  S   UNL     1       0.553  -6.071   2.491  0.00  0.00    -0.072 S 
ENDROOT
BRANCH   1   2
ATOM      2  C   UNL     1       1.144  -6.511   4.091  0.00  0.00    +0.212 A 
ATOM      3  N   UNL     1       1.389  -5.657   5.082  0.00  0.00    -0.183 NA
ATOM      4  C   UNL     1       1.823  -6.320   6.149  0.00  0.00    +0.254 A 
ATOM      5  N   UNL     1       2.194  -5.919   7.370  0.00  0.00    -0.216 NA
ATOM      6  C   UNL     1       2.594  -6.787   8.272  0.00  0.00    +0.044 A 
ATOM      7  C   UNL     1       2.638  -8.152   7.968  0.00  0.00    +0.046 A 
ATOM      8  C   UNL     1       2.262  -8.568   6.730  0.00  0.00    +0.045 A 
ATOM      9  N   UNL     1       1.853  -7.646   5.820  0.00  0.00    -0.200 N 
ATOM     10  N   UNL     1       1.407  -7.738   4.495  0.00  0.00    -0.137 NA
ATOM     11  C   UNL     1       2.298 -10.032   6.371  0.00  0.00    +0.066 C 
ATOM     12  C   UNL     1       3.007  -6.310   9.640  0.00  0.00    +0.066 C 
ENDBRANCH   1   2
BRANCH   1  13
ATOM     13  C   UNL     1       0.393  -4.266   2.563  0.00  0.00    +0.137 C 
ATOM     14  C   UNL     1       1.777  -3.638   2.739  0.00  0.00    +0.029 C 
BRANCH  13  16
ATOM     15  N   UNL     1      -0.810  -2.550   1.248  0.00  0.00    -0.312 N 
ATOM     16  C   UNL     1      -0.227  -3.765   1.284  0.00  0.00    +0.226 C 
ATOM     17  O   UNL     1      -0.200  -4.455   0.286  0.00  0.00    -0.275 OA
ATOM     18  H   UNL     1      -0.832  -1.999   2.046  0.00  0.00    +0.149 HD
BRANCH  15  19
ATOM     19  C   UNL     1      -1.413  -2.063   0.004  0.00  0.00    +0.070 C 
ATOM     20  C   UNL     1      -2.844  -2.592  -0.110  0.00  0.00    +0.028 C 
BRANCH  19  21
ATOM     21  C   UNL     1      -1.433  -0.534   0.013  0.00  0.00    +0.022 C 
BRANCH  21  23
ATOM     22  C   UNL     1      -0.019   1.526   0.010  0.00  0.00    +0.004 C 
ATOM     23  C   UNL     1       0.002  -0.004   0.002  0.00  0.00    -0.002 C 
ENDBRANCH  21  23
ENDBRANCH  19  21
ENDBRANCH  15  19
ENDBRANCH  13  16
ENDBRANCH   1  13
TORSDOF 6
