REMARK  Name = ZINC28791180
REMARK  3 active torsions:
REMARK  status: ('A' for Active; 'I' for Inactive)
REMARK    1  A    between atoms: C_4  and  S_8
REMARK    2  A    between atoms: S_8  and  N_11
REMARK    3  A    between atoms: N_11  and  C_12
REMARK                            x       y       z     vdW  Elec       q    Type
REMARK                         _______ _______ _______ _____ _____    ______ ____
ROOT
ATOM      1  C   UNL     1       1.928  -0.669   1.693  0.00  0.00    +0.052 A 
ATOM      2  C   UNL     1       1.626  -1.611   0.718  0.00  0.00    +0.028 A 
ATOM      3  C   UNL     1       0.740  -2.634   0.995  0.00  0.00    +0.051 A 
ATOM      4  C   UNL     1       0.150  -2.723   2.246  0.00  0.00    +0.167 A 
ATOM      5  C   UNL     1       0.450  -1.779   3.225  0.00  0.00    +0.169 A 
ATOM      6  C   UNL     1       1.343  -0.757   2.948  0.00  0.00    +0.074 A 
ATOM      7  O   UNL     1      -0.255  -2.083   4.355  0.00  0.00    -0.447 OA
ATOM      8  C   UNL     1      -1.282  -2.990   3.932  0.00  0.00    +0.254 C 
ATOM      9  O   UNL     1      -0.741  -3.622   2.763  0.00  0.00    -0.448 OA
ATOM     10  C   UNL     1      -1.557  -4.026   5.017  0.00  0.00    +0.093 C 
ATOM     11  C   UNL     1      -2.631  -5.003   4.532  0.00  0.00    +0.008 C 
ATOM     12  C   UNL     1      -3.911  -4.230   4.205  0.00  0.00    +0.000 C 
ATOM     13  C   UNL     1      -3.626  -3.210   3.101  0.00  0.00    +0.008 C 
ATOM     14  C   UNL     1      -2.555  -2.227   3.582  0.00  0.00    +0.093 C 
ENDROOT
BRANCH   1  15
ATOM     15  N   UNL     1       2.826   0.366   1.411  0.00  0.00    -0.216 N 
ATOM     16  H   UNL     1       3.609   0.629   2.138  0.00  0.00    +0.174 HD
BRANCH  15  17
ATOM     17  S   UNL     1       2.711   1.197  -0.017  0.00  0.00    +0.075 S 
ATOM     18  O   UNL     1       2.619   0.222  -1.047  0.00  0.00    -0.150 OA
ATOM     19  O   UNL     1       3.730   2.187   0.005  0.00  0.00    -0.150 OA
BRANCH  17  23
ATOM     20  C   UNL     1      -1.242   3.405   0.031  0.00  0.00    +0.003 A 
ATOM     21  C   UNL     1      -0.054   4.112   0.023  0.00  0.00    +0.002 A 
ATOM     22  C   UNL     1       1.153   3.438   0.009  0.00  0.00    +0.032 A 
ATOM     23  C   UNL     1       1.173   2.056   0.002  0.00  0.00    +0.143 A 
ATOM     24  C   UNL     1      -0.016   1.347   0.009  0.00  0.00    +0.150 A 
ATOM     25  C   UNL     1      -1.224   2.023   0.019  0.00  0.00    +0.040 A 
ATOM     26  F   UNL     1       0.002  -0.004   0.002  0.00  0.00    -0.203 F 
ENDBRANCH  17  23
ENDBRANCH  15  17
ENDBRANCH   1  15
TORSDOF 3
