REMARK  Name = ZINC04712898
REMARK  3 active torsions:
REMARK  status: ('A' for Active; 'I' for Inactive)
REMARK    1  A    between atoms: C_10  and  N_21
REMARK    2  A    between atoms: C_12  and  C_18
REMARK    3  A    between atoms: C_13  and  N_17
REMARK                            x       y       z     vdW  Elec       q    Type
REMARK                         _______ _______ _______ _____ _____    ______ ____
ROOT
ATOM      1  C   UNL     1       0.152   1.096   1.935  0.00  0.00    +0.001 A 
ATOM      2  C   UNL     1       1.357   1.743   2.139  0.00  0.00    +0.001 A 
ATOM      3  C   UNL     1       2.551   1.113   1.838  0.00  0.00    +0.012 A 
ATOM      4  C   UNL     1       2.542  -0.182   1.326  0.00  0.00    +0.033 A 
ATOM      5  C   UNL     1       1.317  -0.840   1.119  0.00  0.00    +0.033 A 
ATOM      6  C   UNL     1       0.125  -0.191   1.428  0.00  0.00    +0.012 A 
ATOM      7  C   UNL     1       1.299  -2.215   0.577  0.00  0.00    +0.196 C 
ATOM      8  O   UNL     1       0.240  -2.784   0.398  0.00  0.00    -0.287 OA
ATOM      9  C   UNL     1       2.567  -2.893   0.253  0.00  0.00    +0.055 A 
ATOM     10  C   UNL     1       2.556  -4.195  -0.261  0.00  0.00    +0.037 A 
ATOM     11  C   UNL     1       3.755  -4.837  -0.568  0.00  0.00    +0.038 A 
ATOM     12  C   UNL     1       4.969  -4.191  -0.365  0.00  0.00    +0.060 A 
ATOM     13  C   UNL     1       4.995  -2.882   0.153  0.00  0.00    +0.049 A 
ATOM     14  C   UNL     1       3.794  -2.232   0.462  0.00  0.00    +0.056 A 
ATOM     15  C   UNL     1       3.812  -0.863   1.001  0.00  0.00    +0.196 C 
ATOM     16  O   UNL     1       4.872  -0.293   1.180  0.00  0.00    -0.287 OA
ENDROOT
BRANCH  12  17
ATOM     17  C   UNL     1       6.234  -4.880  -0.692  0.00  0.00    +0.243 C 
ATOM     18  O   UNL     1       7.289  -4.282  -0.615  0.00  0.00    -0.270 OA
ATOM     19  N   UNL     1       6.218  -6.172  -1.076  0.00  0.00    -0.325 N 
ATOM     20  H   UNL     1       5.376  -6.649  -1.138  0.00  0.00    +0.145 HD
ATOM     21  H   UNL     1       7.049  -6.624  -1.291  0.00  0.00    +0.145 HD
ENDBRANCH  12  17
BRANCH  13  22
ATOM     22  N   UNL     1       6.202  -2.241   0.355  0.00  0.00    -0.357 N 
ATOM     23  H   UNL     1       6.272  -1.284   0.214  0.00  0.00    +0.142 HD
ATOM     24  H   UNL     1       6.978  -2.748   0.639  0.00  0.00    +0.142 HD
ENDBRANCH  13  22
BRANCH  10  25
ATOM     25  N   UNL     1       1.349  -4.848  -0.466  0.00  0.00    -0.357 N 
ATOM     26  H   UNL     1       0.548  -4.337  -0.666  0.00  0.00    +0.142 HD
ATOM     27  H   UNL     1       1.305  -5.815  -0.410  0.00  0.00    +0.142 HD
ENDBRANCH  10  25
TORSDOF 3
