REMARK  Name = ZINC32530710
REMARK  10 active torsions:
REMARK  status: ('A' for Active; 'I' for Inactive)
REMARK    1  A    between atoms: C_1  and  C_2
REMARK    2  A    between atoms: C_2  and  O_3
REMARK    3  A    between atoms: O_3  and  C_4
REMARK    4  A    between atoms: C_4  and  C_6
REMARK    5  A    between atoms: C_7  and  C_29
REMARK    6  A    between atoms: C_12  and  C_14
REMARK    7  A    between atoms: C_14  and  N_15
REMARK    8  A    between atoms: C_19  and  C_28
REMARK    9  A    between atoms: C_22  and  C_27
REMARK   10  A    between atoms: C_24  and  C_26
REMARK                            x       y       z     vdW  Elec       q    Type
REMARK                         _______ _______ _______ _____ _____    ______ ____
ROOT
ATOM      1  C   UNL     1       2.884   2.501   1.217  0.00  0.00    +0.120 A 
ATOM      2  C   UNL     1       3.067   1.146   0.975  0.00  0.00    +0.062 A 
ATOM      3  N   UNL     1       2.012   0.434   0.675  0.00  0.00    -0.229 NA
ATOM      4  C   UNL     1       0.808   0.978   0.593  0.00  0.00    +0.165 A 
ATOM      5  S   UNL     1       1.119   2.643   0.973  0.00  0.00    -0.045 S 
ATOM      6  N   UNL     1      -0.397   0.370   0.287  0.00  0.00    -0.263 N 
ATOM      7  C   UNL     1      -1.530   1.100   0.252  0.00  0.00    +0.239 C 
ATOM      8  O   UNL     1      -1.494   2.288   0.494  0.00  0.00    -0.273 OA
ATOM      9  C   UNL     1       4.433   0.517   1.060  0.00  0.00    +0.067 C 
ATOM     10  H   UNL     1      -0.430  -0.708   0.071  0.00  0.00    +0.157 HD
ENDROOT
BRANCH   1  11
ATOM     11  C   UNL     1       3.863   3.526   1.573  0.00  0.00    +0.348 C 
ATOM     12  O   UNL     1       5.037   3.230   1.695  0.00  0.00    -0.244 OA
BRANCH  11  13
ATOM     13  O   UNL     1       3.465   4.801   1.765  0.00  0.00    -0.461 OA
BRANCH  13  15
ATOM     14  C   UNL     1       3.839   7.131   2.287  0.00  0.00    +0.048 C 
ATOM     15  C   UNL     1       4.476   5.751   2.111  0.00  0.00    +0.229 C 
ENDBRANCH  13  15
ENDBRANCH  11  13
ENDBRANCH   1  11
BRANCH   7  16
ATOM     16  C   UNL     1      -2.841   0.440  -0.087  0.00  0.00    +0.221 C 
BRANCH  16  17
ATOM     17  N   UNL     1      -3.914   1.440  -0.059  0.00  0.00    -0.299 N 
ATOM     18  C   UNL     1      -4.508   1.531   1.157  0.00  0.00    +0.252 A 
ATOM     19  O   UNL     1      -4.096   0.806   2.049  0.00  0.00    -0.268 OA
ATOM     20  C   UNL     1      -5.564   2.414   1.420  0.00  0.00    +0.074 A 
ATOM     21  C   UNL     1      -6.013   3.215   0.424  0.00  0.00    -0.036 A 
ATOM     22  C   UNL     1      -5.380   3.131  -0.893  0.00  0.00    +0.002 A 
ATOM     23  C   UNL     1      -4.307   2.220  -1.121  0.00  0.00    +0.056 A 
ATOM     24  C   UNL     1      -3.757   2.204  -2.394  0.00  0.00    -0.026 A 
ATOM     25  C   UNL     1      -4.247   3.040  -3.390  0.00  0.00    +0.008 A 
ATOM     26  C   UNL     1      -5.287   3.914  -3.156  0.00  0.00    -0.050 A 
ATOM     27  C   UNL     1      -5.851   3.961  -1.915  0.00  0.00    +0.013 A 
ATOM     28  C   UNL     1      -5.798   4.809  -4.253  0.00  0.00    +0.044 C 
ATOM     29  C   UNL     1      -2.615   1.328  -2.850  0.00  0.00    +0.046 C 
ATOM     30  C   UNL     1      -7.149   4.169   0.696  0.00  0.00    +0.044 C 
ENDBRANCH  16  17
ENDBRANCH   7  16
TORSDOF 5
