REMARK  Name = ZINC32527519
REMARK  10 active torsions:
REMARK  status: ('A' for Active; 'I' for Inactive)
REMARK    1  A    between atoms: C_1  and  C_2
REMARK    2  A    between atoms: C_4  and  C_28
REMARK    3  A    between atoms: C_8  and  C_27
REMARK    4  A    between atoms: N_12  and  C_13
REMARK    5  A    between atoms: C_13  and  C_14
REMARK    6  A    between atoms: C_14  and  C_15
REMARK    7  A    between atoms: N_17  and  C_18
REMARK    8  A    between atoms: C_19  and  C_25
REMARK    9  A    between atoms: C_20  and  C_24
REMARK   10  A    between atoms: C_21  and  C_23
REMARK                            x       y       z     vdW  Elec       q    Type
REMARK                         _______ _______ _______ _____ _____    ______ ____
ROOT
ATOM      1  C   UNL     1       5.689   4.617   0.083  0.00  0.00    +0.134 C 
ENDROOT
BRANCH   1  13
ATOM      2  C   UNL     1       6.030   9.839   4.302  0.00  0.00    +0.044 C 
ATOM      3  C   UNL     1       6.041   8.820   3.194  0.00  0.00    -0.050 A 
ATOM      4  C   UNL     1       5.590   7.536   3.416  0.00  0.00    +0.008 A 
ATOM      5  C   UNL     1       5.590   6.577   2.410  0.00  0.00    -0.026 A 
ATOM      6  C   UNL     1       6.052   6.884   1.138  0.00  0.00    +0.055 A 
ATOM      7  C   UNL     1       6.512   8.216   0.923  0.00  0.00    +0.002 A 
ATOM      8  C   UNL     1       6.499   9.160   1.956  0.00  0.00    +0.013 A 
ATOM      9  C   UNL     1       7.011   8.624  -0.392  0.00  0.00    -0.036 A 
ATOM     10  C   UNL     1       7.027   7.717  -1.397  0.00  0.00    +0.074 A 
ATOM     11  C   UNL     1       6.569   6.416  -1.146  0.00  0.00    +0.252 A 
ATOM     12  O   UNL     1       6.579   5.591  -2.046  0.00  0.00    -0.268 OA
ATOM     13  N   UNL     1       6.106   6.024   0.067  0.00  0.00    -0.307 N 
ATOM     14  C   UNL     1       7.504  10.026  -0.650  0.00  0.00    +0.044 C 
ATOM     15  C   UNL     1       5.053   5.238   2.854  0.00  0.00    +0.046 C 
ENDBRANCH   1  13
BRANCH   1  16
ATOM     16  C   UNL     1       4.234   4.512  -0.377  0.00  0.00    +0.118 C 
BRANCH  16  17
ATOM     17  C   UNL     1       3.805   3.067  -0.361  0.00  0.00    +0.221 C 
ATOM     18  O   UNL     1       4.587   2.207  -0.016  0.00  0.00    -0.275 OA
ATOM     19  N   UNL     1       2.554   2.731  -0.731  0.00  0.00    -0.255 N 
ATOM     20  H   UNL     1       1.845   3.512  -1.044  0.00  0.00    +0.158 HD
BRANCH  19  21
ATOM     21  C   UNL     1       2.160   1.404  -0.716  0.00  0.00    +0.210 A 
ATOM     22  C   UNL     1       0.911   0.921  -1.069  0.00  0.00    +0.115 A 
ATOM     23  C   UNL     1       0.991  -0.537  -0.887  0.00  0.00    +0.010 A 
ATOM     24  C   UNL     1       2.235  -0.791  -0.458  0.00  0.00    +0.109 A 
ATOM     25  O   UNL     1       2.921   0.361  -0.358  0.00  0.00    -0.445 OA
ATOM     26  C   UNL     1       2.780  -2.158  -0.134  0.00  0.00    +0.086 C 
ATOM     27  C   UNL     1      -0.105  -1.542  -1.134  0.00  0.00    +0.049 C 
BRANCH  22  28
ATOM     28  C   UNL     1      -0.217   1.679  -1.521  0.00  0.00    +0.105 C 
ATOM     29  N   UNL     1      -1.112   2.280  -1.879  0.00  0.00    -0.191 NA
ENDBRANCH  22  28
ENDBRANCH  19  21
ENDBRANCH  16  17
ENDBRANCH   1  16
TORSDOF 5
