REMARK  Name = ZINC06564014
REMARK  13 active torsions:
REMARK  status: ('A' for Active; 'I' for Inactive)
REMARK    1  A    between atoms: C_1  and  C_2
REMARK    2  A    between atoms: C_2  and  C_3
REMARK    3  A    between atoms: C_2  and  O_4
REMARK    4  A    between atoms: O_4  and  P_5
REMARK    5  A    between atoms: P_5  and  C_7
REMARK    6  A    between atoms: P_5  and  O_22
REMARK    7  A    between atoms: C_7  and  C_9
REMARK    8  A    between atoms: C_7  and  N_57
REMARK    9  A    between atoms: C_12  and  O_15
REMARK   10  A    between atoms: O_15  and  C_16
REMARK   11  A    between atoms: O_22  and  C_23
REMARK   12  A    between atoms: C_23  and  C_24
REMARK   13  A    between atoms: C_23  and  C_25
REMARK                            x       y       z     vdW  Elec       q    Type
REMARK                         _______ _______ _______ _____ _____    ______ ____
ROOT
ATOM      1  C   UNL     1      -2.531   1.180   0.300  0.00  0.00    +0.079 C 
ENDROOT
BRANCH   1   7
ATOM      2  C   UNL     1      -4.908   1.637   0.335  0.00  0.00    -0.077 C 
ATOM      3  C   UNL     1      -5.973   2.665  -0.052  0.00  0.00    -0.019 C 
ATOM      4  C   UNL     1      -6.015   2.800  -1.576  0.00  0.00    -0.004 C 
ATOM      5  C   UNL     1      -4.628   3.207  -2.083  0.00  0.00    -0.019 C 
ATOM      6  C   UNL     1      -3.601   2.163  -1.637  0.00  0.00    -0.077 C 
ATOM      7  N   UNL     1      -3.593   2.098  -0.160  0.00  0.00    +0.392 N 
ATOM      8  H   UNL     1      -3.408   3.037   0.214  0.00  0.00    -0.080 HD
ENDBRANCH   1   7
BRANCH   1   9
ATOM      9  C   UNL     1      -1.191   1.770  -0.059  0.00  0.00    -0.049 A 
ATOM     10  C   UNL     1      -0.142   0.940  -0.408  0.00  0.00    +0.006 A 
ATOM     11  C   UNL     1       1.085   1.478  -0.743  0.00  0.00    +0.046 A 
ATOM     12  C   UNL     1       1.266   2.853  -0.724  0.00  0.00    +0.120 A 
ATOM     13  C   UNL     1       0.214   3.684  -0.368  0.00  0.00    +0.046 A 
ATOM     14  C   UNL     1      -1.011   3.141  -0.034  0.00  0.00    +0.006 A 
BRANCH  12  15
ATOM     15  O   UNL     1       2.473   3.386  -1.053  0.00  0.00    -0.495 OA
ATOM     16  C   UNL     1       2.587   4.809  -1.012  0.00  0.00    +0.277 C 
ENDBRANCH  12  15
ENDBRANCH   1   9
BRANCH   1  17
ATOM     17  P   UNL     1      -2.648   0.994   2.109  0.00  0.00    +0.324 P 
ATOM     18  O   UNL     1      -2.902   2.315   2.726  0.00  0.00    -0.260 OA
BRANCH  17  19
ATOM     19  O   UNL     1      -3.856  -0.008   2.468  0.00  0.00    -0.306 OA
BRANCH  19  21
ATOM     20  C   UNL     1      -5.706   0.296   3.992  0.00  0.00    +0.038 C 
ATOM     21  C   UNL     1      -4.291  -0.254   3.807  0.00  0.00    +0.122 C 
ATOM     22  C   UNL     1      -4.290  -1.761   4.075  0.00  0.00    +0.038 C 
ENDBRANCH  19  21
ENDBRANCH  17  19
BRANCH  17  23
ATOM     23  O   UNL     1      -1.266   0.394   2.677  0.00  0.00    -0.306 OA
BRANCH  23  24
ATOM     24  C   UNL     1      -0.991   0.259   4.073  0.00  0.00    +0.122 C 
ATOM     25  C   UNL     1      -0.596  -1.187   4.378  0.00  0.00    +0.038 C 
ATOM     26  C   UNL     1       0.157   1.194   4.459  0.00  0.00    +0.038 C 
ENDBRANCH  23  24
ENDBRANCH  17  23
ENDBRANCH   1  17
TORSDOF 8
