REMARK  Name = ZINC47044054
REMARK  10 active torsions:
REMARK  status: ('A' for Active; 'I' for Inactive)
REMARK    1  A    between atoms: C_1  and  C_2
REMARK    2  A    between atoms: C_2  and  C_3
REMARK    3  A    between atoms: C_2  and  C_4
REMARK    4  A    between atoms: C_4  and  C_6
REMARK    5  A    between atoms: C_4  and  C_25
REMARK    6  A    between atoms: C_6  and  N_7
REMARK    7  A    between atoms: N_10  and  N_11
REMARK    8  A    between atoms: C_12  and  C_14
REMARK    9  A    between atoms: C_14  and  C_15
REMARK   10  A    between atoms: N_23  and  C_24
REMARK                            x       y       z     vdW  Elec       q    Type
REMARK                         _______ _______ _______ _____ _____    ______ ____
ROOT
ATOM      1  N   UNL     1      -0.029  -2.198   1.031  0.00  0.00    -0.298 N 
ATOM      2  C   UNL     1       0.362  -3.473   1.220  0.00  0.00    +0.316 C 
ATOM      3  O   UNL     1       0.105  -4.319   0.385  0.00  0.00    -0.251 OA
ATOM      4  N   UNL     1       1.038  -3.813   2.336  0.00  0.00    -0.218 N 
ATOM      5  H   UNL     1       0.176  -1.523   1.697  0.00  0.00    +0.150 HD
ATOM      6  H   UNL     1       1.319  -4.731   2.472  0.00  0.00    +0.174 HD
ENDROOT
BRANCH   4   7
ATOM      7  N   UNL     1       1.334  -2.839   3.299  0.00  0.00    -0.233 N 
ATOM      8  C   UNL     1       2.010  -3.178   4.414  0.00  0.00    +0.236 C 
ATOM      9  O   UNL     1       2.362  -4.326   4.585  0.00  0.00    -0.274 OA
ATOM     10  H   UNL     1       1.053  -1.921   3.162  0.00  0.00    +0.173 HD
BRANCH   8  11
ATOM     11  C   UNL     1       2.329  -2.131   5.450  0.00  0.00    +0.171 C 
BRANCH  11  12
ATOM     12  C   UNL     1       3.084  -2.764   6.589  0.00  0.00    +0.119 A 
ATOM     13  N   UNL     1       2.536  -3.292   7.645  0.00  0.00    -0.232 NA
ATOM     14  C   UNL     1       3.503  -3.771   8.470  0.00  0.00    +0.089 A 
ATOM     15  C   UNL     1       3.479  -4.418   9.708  0.00  0.00    +0.030 A 
ATOM     16  C   UNL     1       4.651  -4.788  10.306  0.00  0.00    +0.002 A 
ATOM     17  C   UNL     1       5.870  -4.526   9.696  0.00  0.00    +0.002 A 
ATOM     18  C   UNL     1       5.917  -3.888   8.475  0.00  0.00    +0.028 A 
ATOM     19  C   UNL     1       4.737  -3.506   7.852  0.00  0.00    +0.069 A 
ATOM     20  N   UNL     1       4.438  -2.874   6.661  0.00  0.00    -0.330 N 
ATOM     21  C   UNL     1       5.402  -2.405   5.662  0.00  0.00    +0.150 C 
ENDBRANCH  11  12
ENDBRANCH   8  11
ENDBRANCH   4   7
BRANCH   1  22
ATOM     22  C   UNL     1      -0.763  -1.829  -0.182  0.00  0.00    +0.114 C 
BRANCH  22  23
ATOM     23  C   UNL     1      -1.192  -0.363  -0.093  0.00  0.00    +0.039 C 
BRANCH  23  24
ATOM     24  C   UNL     1      -2.183  -0.196   1.030  0.00  0.00    -0.043 A 
ATOM     25  C   UNL     1      -3.375  -0.896   1.009  0.00  0.00    +0.004 A 
ATOM     26  C   UNL     1      -4.284  -0.743   2.039  0.00  0.00    +0.000 A 
ATOM     27  C   UNL     1      -4.002   0.109   3.090  0.00  0.00    +0.000 A 
ATOM     28  C   UNL     1      -2.809   0.809   3.111  0.00  0.00    +0.000 A 
ATOM     29  C   UNL     1      -1.898   0.652   2.083  0.00  0.00    +0.004 A 
ENDBRANCH  23  24
BRANCH  23  31
ATOM     30  C   UNL     1      -2.360   1.494  -1.289  0.00  0.00    +0.008 C 
ATOM     31  C   UNL     1      -1.840   0.060  -1.413  0.00  0.00    -0.008 C 
ATOM     32  C   UNL     1      -0.803  -0.011  -2.536  0.00  0.00    +0.008 C 
ENDBRANCH  23  31
ENDBRANCH  22  23
ENDBRANCH   1  22
TORSDOF 7
