REMARK  Name = ZINC02147638
REMARK  9 active torsions:
REMARK  status: ('A' for Active; 'I' for Inactive)
REMARK    1  A    between atoms: C_1  and  C_2
REMARK    2  A    between atoms: C_6  and  N_9
REMARK    3  A    between atoms: C_7  and  C_8
REMARK    4  A    between atoms: C_10  and  C_12
REMARK    5  A    between atoms: C_12  and  C_13
REMARK    6  A    between atoms: C_13  and  C_14
REMARK    7  A    between atoms: N_16  and  N_17
REMARK    8  A    between atoms: C_18  and  C_19
REMARK    9  A    between atoms: C_22  and  N_25
REMARK                            x       y       z     vdW  Elec       q    Type
REMARK                         _______ _______ _______ _____ _____    ______ ____
ROOT
ATOM      1  C   UNL     1      -1.475   7.649  -0.375  0.00  0.00    +0.233 C 
ATOM      2  O   UNL     1      -0.429   8.263  -0.382  0.00  0.00    -0.274 OA
ATOM      3  N   UNL     1      -2.646   8.310  -0.463  0.00  0.00    -0.207 N 
ATOM      4  H   UNL     1      -3.482   7.818  -0.458  0.00  0.00    +0.177 HD
ENDROOT
BRANCH   3   5
ATOM      5  N   UNL     1      -2.656   9.707  -0.561  0.00  0.00    -0.188 NA
ATOM      6  C   UNL     1      -3.783  10.344  -0.645  0.00  0.00    +0.138 C 
BRANCH   6   7
ATOM      7  C   UNL     1      -3.793  11.815  -0.749  0.00  0.00    -0.005 A 
ATOM      8  C   UNL     1      -2.591  12.527  -0.751  0.00  0.00    +0.012 A 
ATOM      9  C   UNL     1      -2.608  13.902  -0.854  0.00  0.00    +0.033 A 
ATOM     10  C   UNL     1      -3.812  14.578  -0.944  0.00  0.00    +0.126 A 
ATOM     11  C   UNL     1      -5.007  13.880  -0.936  0.00  0.00    +0.033 A 
ATOM     12  C   UNL     1      -5.005  12.504  -0.840  0.00  0.00    +0.012 A 
BRANCH  10  13
ATOM     13  N   UNL     1      -3.822  16.055  -1.047  0.00  0.00    +0.056 N 
ATOM     14  O   UNL     1      -4.881  16.652  -1.126  0.00  0.00    -0.126 OA
ATOM     15  O   UNL     1      -2.772  16.672  -1.054  0.00  0.00    -0.126 OA
ENDBRANCH  10  13
ENDBRANCH   6   7
ENDBRANCH   3   5
BRANCH   1  16
ATOM     16  C   UNL     1      -1.465   6.145  -0.270  0.00  0.00    +0.107 C 
BRANCH  16  17
ATOM     17  C   UNL     1      -0.020   5.650  -0.184  0.00  0.00    +0.105 C 
BRANCH  17  19
ATOM     18  N   UNL     1       1.162   3.485   0.009  0.00  0.00    -0.285 N 
ATOM     19  C   UNL     1      -0.009   4.147  -0.078  0.00  0.00    +0.218 C 
ATOM     20  O   UNL     1      -1.055   3.532  -0.072  0.00  0.00    -0.275 OA
ATOM     21  H   UNL     1       1.993   3.979   0.085  0.00  0.00    +0.155 HD
BRANCH  18  27
ATOM     22  C   UNL     1       3.389  -0.737   1.187  0.00  0.00    +0.044 C 
ATOM     23  C   UNL     1       2.245   0.014   0.554  0.00  0.00    -0.046 A 
ATOM     24  C   UNL     1       1.211  -0.680  -0.045  0.00  0.00    +0.004 A 
ATOM     25  C   UNL     1       0.160   0.005  -0.627  0.00  0.00    +0.002 A 
ATOM     26  C   UNL     1       0.141   1.386  -0.611  0.00  0.00    +0.023 A 
ATOM     27  C   UNL     1       1.178   2.086  -0.009  0.00  0.00    +0.037 A 
ATOM     28  C   UNL     1       2.232   1.395   0.575  0.00  0.00    -0.026 A 
ATOM     29  C   UNL     1       3.359   2.151   1.229  0.00  0.00    +0.046 C 
ENDBRANCH  18  27
ENDBRANCH  17  19
ENDBRANCH  16  17
ENDBRANCH   1  16
TORSDOF 7
