REMARK  Name = ZINC57934669
REMARK  4 active torsions:
REMARK  status: ('A' for Active; 'I' for Inactive)
REMARK    1  A    between atoms: C_1  and  C_2
REMARK    2  A    between atoms: C_7  and  C_8
REMARK    3  A    between atoms: C_8  and  N_9
REMARK    4  A    between atoms: C_17  and  C_21
REMARK                            x       y       z     vdW  Elec       q    Type
REMARK                         _______ _______ _______ _____ _____    ______ ____
ROOT
ATOM      1  N   UNL     1      -1.388   0.091   3.019  0.00  0.00    -0.264 N 
ATOM      2  C   UNL     1      -2.048   1.255   2.599  0.00  0.00    +0.061 A 
ATOM      3  C   UNL     1      -1.529   2.031   1.575  0.00  0.00    +0.075 A 
ATOM      4  C   UNL     1      -2.190   3.182   1.176  0.00  0.00    +0.168 A 
ATOM      5  C   UNL     1      -3.375   3.560   1.802  0.00  0.00    +0.168 A 
ATOM      6  C   UNL     1      -3.897   2.784   2.826  0.00  0.00    +0.074 A 
ATOM      7  C   UNL     1      -3.238   1.634   3.221  0.00  0.00    +0.053 A 
ATOM      8  N   UNL     1      -3.750   0.822   4.247  0.00  0.00    -0.332 N 
ATOM      9  C   UNL     1      -3.455  -0.618   4.197  0.00  0.00    +0.154 C 
ATOM     10  C   UNL     1      -2.016  -0.813   3.795  0.00  0.00    +0.240 C 
ATOM     11  O   UNL     1      -1.415  -1.795   4.177  0.00  0.00    -0.273 OA
ATOM     12  C   UNL     1      -4.367  -1.292   3.170  0.00  0.00    +0.038 C 
ATOM     13  O   UNL     1      -3.820   4.718   1.231  0.00  0.00    -0.453 OA
ATOM     14  C   UNL     1      -2.687   5.261   0.528  0.00  0.00    +0.466 C 
ATOM     15  O   UNL     1      -1.894   4.103   0.210  0.00  0.00    -0.453 OA
ATOM     16  H   UNL     1      -4.282   1.200   4.965  0.00  0.00    +0.147 HD
ENDROOT
BRANCH   1  17
ATOM     17  C   UNL     1      -0.004  -0.147   2.604  0.00  0.00    +0.149 C 
BRANCH  17  24
ATOM     18  C   UNL     1       2.508  -0.970   1.438  0.00  0.00    +0.044 C 
ATOM     19  C   UNL     1       1.210  -1.342   0.770  0.00  0.00    -0.046 A 
ATOM     20  C   UNL     1       1.220  -2.082  -0.398  0.00  0.00    +0.003 A 
ATOM     21  C   UNL     1       0.029  -2.424  -1.010  0.00  0.00    +0.000 A 
ATOM     22  C   UNL     1      -1.173  -2.025  -0.455  0.00  0.00    +0.000 A 
ATOM     23  C   UNL     1      -1.183  -1.286   0.713  0.00  0.00    +0.005 A 
ATOM     24  C   UNL     1       0.008  -0.948   1.328  0.00  0.00    -0.027 A 
ENDBRANCH  17  24
ENDBRANCH   1  17
TORSDOF 2
