REMARK  Name = ZINC11612252
REMARK  7 active torsions:
REMARK  status: ('A' for Active; 'I' for Inactive)
REMARK    1  A    between atoms: C_1  and  C_2
REMARK    2  A    between atoms: C_2  and  O_3
REMARK    3  A    between atoms: O_3  and  C_4
REMARK    4  A    between atoms: C_7  and  N_10
REMARK    5  A    between atoms: C_15  and  C_30
REMARK    6  A    between atoms: N_17  and  C_23
REMARK    7  A    between atoms: C_33  and  C_36
REMARK                            x       y       z     vdW  Elec       q    Type
REMARK                         _______ _______ _______ _____ _____    ______ ____
ROOT
ATOM      1  N   UNL     1      -1.989  -5.992  -0.010  0.00  0.00    -0.208 N 
ATOM      2  C   UNL     1      -3.213  -6.612  -0.012  0.00  0.00    +0.235 C 
ATOM      3  O   UNL     1      -4.295  -6.111  -0.226  0.00  0.00    -0.274 OA
ATOM      4  C   UNL     1      -2.929  -7.993   0.296  0.00  0.00    +0.145 C 
ATOM      5  C   UNL     1      -3.530  -9.328   0.145  0.00  0.00    +0.157 C 
ATOM      6  N   UNL     1      -2.332 -10.226   0.209  0.00  0.00    -0.244 N 
ATOM      7  O   UNL     1      -1.161  -9.384   0.305  0.00  0.00    -0.257 OA
ATOM      8  C   UNL     1      -1.536  -8.202  -0.424  0.00  0.00    +0.249 C 
ATOM      9  C   UNL     1      -0.949  -6.876  -0.020  0.00  0.00    +0.259 C 
ATOM     10  O   UNL     1       0.211  -6.643   0.244  0.00  0.00    -0.272 OA
ENDROOT
BRANCH   6  11
ATOM     11  C   UNL     1      -2.345 -11.623   0.181  0.00  0.00    +0.065 A 
ATOM     12  C   UNL     1      -3.550 -12.306   0.081  0.00  0.00    +0.029 A 
ATOM     13  C   UNL     1      -3.560 -13.686   0.054  0.00  0.00    +0.022 A 
ATOM     14  C   UNL     1      -2.370 -14.390   0.127  0.00  0.00    +0.041 A 
ATOM     15  C   UNL     1      -1.168 -13.712   0.227  0.00  0.00    +0.022 A 
ATOM     16  C   UNL     1      -1.152 -12.331   0.249  0.00  0.00    +0.029 A 
ATOM     17 CL   UNL     1      -2.386 -16.125   0.093  0.00  0.00    -0.084 Cl
ENDBRANCH   6  11
BRANCH   1  21
ATOM     18  C   UNL     1      -1.498  -1.849   0.006  0.00  0.00    +0.121 A 
ATOM     19  C   UNL     1      -0.387  -2.679  -0.003  0.00  0.00    +0.047 A 
ATOM     20  C   UNL     1      -0.548  -4.050  -0.008  0.00  0.00    +0.027 A 
ATOM     21  C   UNL     1      -1.824  -4.598  -0.004  0.00  0.00    +0.044 A 
ATOM     22  C   UNL     1      -2.936  -3.767   0.005  0.00  0.00    +0.027 A 
ATOM     23  C   UNL     1      -2.773  -2.396   0.016  0.00  0.00    +0.047 A 
BRANCH  18  24
ATOM     24  O   UNL     1      -1.339  -0.499   0.012  0.00  0.00    -0.492 OA
BRANCH  24  26
ATOM     25  C   UNL     1      -0.019   1.526   0.010  0.00  0.00    +0.048 C 
ATOM     26  C   UNL     1       0.002  -0.004   0.002  0.00  0.00    +0.225 C 
ENDBRANCH  24  26
ENDBRANCH  18  24
ENDBRANCH   1  21
BRANCH   5  27
ATOM     27  C   UNL     1      -4.483  -9.618   1.275  0.00  0.00    -0.022 A 
ATOM     28  C   UNL     1      -3.997 -10.027   2.502  0.00  0.00    +0.006 A 
ATOM     29  C   UNL     1      -4.872 -10.293   3.539  0.00  0.00    +0.013 A 
ATOM     30  C   UNL     1      -6.233 -10.149   3.348  0.00  0.00    +0.055 A 
ATOM     31  C   UNL     1      -6.720  -9.739   2.121  0.00  0.00    +0.013 A 
ATOM     32  C   UNL     1      -5.845  -9.469   1.086  0.00  0.00    +0.006 A 
BRANCH  30  33
ATOM     33  C   UNL     1      -7.187 -10.440   4.478  0.00  0.00    +0.417 C 
ATOM     34  F   UNL     1      -7.404  -9.272   5.217  0.00  0.00    -0.166 F 
ATOM     35  F   UNL     1      -8.403 -10.894   3.956  0.00  0.00    -0.166 F 
ATOM     36  F   UNL     1      -6.640 -11.423   5.309  0.00  0.00    -0.166 F 
ENDBRANCH  30  33
ENDBRANCH   5  27
TORSDOF 6
