REMARK  Name = ZINC40172020
REMARK  8 active torsions:
REMARK  status: ('A' for Active; 'I' for Inactive)
REMARK    1  A    between atoms: C_1  and  C_2
REMARK    2  A    between atoms: C_2  and  C_4
REMARK    3  A    between atoms: C_2  and  N_20
REMARK    4  A    between atoms: C_9  and  C_12
REMARK    5  A    between atoms: C_15  and  O_18
REMARK    6  A    between atoms: O_18  and  C_19
REMARK    7  A    between atoms: C_24  and  S_25
REMARK    8  A    between atoms: S_25  and  C_26
REMARK                            x       y       z     vdW  Elec       q    Type
REMARK                         _______ _______ _______ _____ _____    ______ ____
ROOT
ATOM      1  C   UNL     1      -1.412  -0.526   0.013  0.00  0.00    +0.241 C 
ATOM      2  O   UNL     1      -1.790  -1.233   0.922  0.00  0.00    -0.273 OA
ATOM      3  N   UNL     1      -2.256  -0.206  -0.988  0.00  0.00    -0.263 N 
ATOM      4  C   UNL     1      -3.559  -0.687  -0.979  0.00  0.00    +0.165 A 
ATOM      5  N   UNL     1      -4.527  -0.496  -1.856  0.00  0.00    -0.225 NA
ATOM      6  C   UNL     1      -5.724  -1.037  -1.688  0.00  0.00    +0.080 A 
ATOM      7  C   UNL     1      -5.963  -1.808  -0.585  0.00  0.00    +0.076 A 
ATOM      8  S   UNL     1      -4.369  -1.735   0.222  0.00  0.00    -0.060 S 
ATOM      9  H   UNL     1      -1.953   0.360  -1.716  0.00  0.00    +0.157 HD
ENDROOT
BRANCH   6  10
ATOM     10  C   UNL     1      -6.795  -0.808  -2.688  0.00  0.00    +0.001 A 
ATOM     11  C   UNL     1      -8.056  -1.375  -2.503  0.00  0.00    +0.013 A 
ATOM     12  C   UNL     1      -9.050  -1.159  -3.435  0.00  0.00    +0.046 A 
ATOM     13  C   UNL     1      -8.797  -0.380  -4.555  0.00  0.00    +0.120 A 
ATOM     14  C   UNL     1      -7.543   0.186  -4.742  0.00  0.00    +0.046 A 
ATOM     15  C   UNL     1      -6.546  -0.021  -3.812  0.00  0.00    +0.013 A 
BRANCH  13  16
ATOM     16  O   UNL     1      -9.779  -0.170  -5.471  0.00  0.00    -0.495 OA
ATOM     17  C   UNL     1      -9.450   0.642  -6.600  0.00  0.00    +0.277 C 
ENDBRANCH  13  16
ENDBRANCH   6  10
BRANCH   1  19
ATOM     18  C   UNL     1      -0.019   1.526   0.010  0.00  0.00    +0.041 C 
ATOM     19  C   UNL     1       0.002  -0.004   0.002  0.00  0.00    +0.175 C 
BRANCH  19  20
ATOM     20  N   UNL     1       0.711  -0.489   1.189  0.00  0.00    -0.279 N 
ATOM     21  C   UNL     1       0.358  -0.253   2.487  0.00  0.00    +0.216 A 
ATOM     22  N   UNL     1       1.232  -0.850   3.260  0.00  0.00    -0.113 NA
ATOM     23  N   UNL     1       2.171  -1.488   2.439  0.00  0.00    -0.121 NA
ATOM     24  C   UNL     1       1.837  -1.263   1.192  0.00  0.00    +0.193 A 
ATOM     25  N   UNL     1      -0.735   0.491   2.914  0.00  0.00    -0.328 N 
ATOM     26  H   UNL     1      -1.328   0.898   2.263  0.00  0.00    +0.145 HD
ATOM     27  H   UNL     1      -0.904   0.604   3.862  0.00  0.00    +0.145 HD
BRANCH  24  28
ATOM     28  S   UNL     1       2.693  -1.852  -0.232  0.00  0.00    -0.089 S 
ATOM     29  C   UNL     1       4.078  -2.803   0.451  0.00  0.00    +0.093 C 
ENDBRANCH  24  28
ENDBRANCH  19  20
ENDBRANCH   1  19
TORSDOF 5
