REMARK  Name = ZINC30867669
REMARK  9 active torsions:
REMARK  status: ('A' for Active; 'I' for Inactive)
REMARK    1  A    between atoms: C_1  and  C_2
REMARK    2  A    between atoms: N_6  and  C_7
REMARK    3  A    between atoms: C_10  and  C_13
REMARK    4  A    between atoms: C_13  and  N_14
REMARK    5  A    between atoms: C_15  and  C_17
REMARK    6  A    between atoms: C_17  and  N_18
REMARK    7  A    between atoms: N_18  and  C_19
REMARK    8  A    between atoms: N_18  and  S_25
REMARK    9  A    between atoms: S_25  and  C_28
REMARK                            x       y       z     vdW  Elec       q    Type
REMARK                         _______ _______ _______ _____ _____    ______ ____
ROOT
ATOM      1  N   UNL     1       4.036  -5.135  -2.506  0.00  0.00    -0.310 N 
ATOM      2  C   UNL     1       2.893  -4.641  -1.992  0.00  0.00    +0.232 C 
ATOM      3  O   UNL     1       2.184  -5.344  -1.302  0.00  0.00    -0.274 OA
ATOM      4  H   UNL     1       4.679  -4.498  -3.131  0.00  0.00    +0.149 HD
ENDROOT
BRANCH   1   5
ATOM      5  C   UNL     1       4.423  -6.521  -2.233  0.00  0.00    +0.139 C 
BRANCH   5   9
ATOM      6  C   UNL     1       8.132  -7.375  -4.177  0.00  0.00    +0.048 A 
ATOM      7  C   UNL     1       8.125  -6.876  -2.882  0.00  0.00    +0.026 A 
ATOM      8  C   UNL     1       6.925  -6.601  -2.256  0.00  0.00    +0.007 A 
ATOM      9  C   UNL     1       5.731  -6.822  -2.918  0.00  0.00    -0.030 A 
ATOM     10  C   UNL     1       5.735  -7.324  -4.207  0.00  0.00    +0.007 A 
ATOM     11  C   UNL     1       6.933  -7.596  -4.840  0.00  0.00    +0.026 A 
BRANCH   6  17
ATOM     12  C   UNL     1       8.797 -10.022  -5.591  0.00  0.00    +0.084 C 
ATOM     13  C   UNL     1       9.681  -8.809  -5.449  0.00  0.00    +0.088 A 
ATOM     14  N   UNL     1      10.894  -8.692  -5.919  0.00  0.00    -0.350 N 
ATOM     15  C   UNL     1      11.378  -7.482  -5.601  0.00  0.00    +0.102 A 
ATOM     16  C   UNL     1      10.430  -6.818  -4.912  0.00  0.00    +0.110 A 
ATOM     17  N   UNL     1       9.349  -7.655  -4.815  0.00  0.00    -0.305 N 
ATOM     18  H   UNL     1      11.351  -9.522  -6.476  0.00  0.00    +0.166 HD
ENDBRANCH   6  17
ENDBRANCH   5   9
ENDBRANCH   1   5
BRANCH   2  19
ATOM     19  C   UNL     1       2.494  -3.215  -2.273  0.00  0.00    +0.227 C 
BRANCH  19  20
ATOM     20  N   UNL     1       1.223  -2.923  -1.606  0.00  0.00    -0.194 N 
BRANCH  20  21
ATOM     21  C   UNL     1       0.016  -3.242  -2.232  0.00  0.00    +0.052 A 
ATOM     22  C   UNL     1      -0.301  -2.678  -3.462  0.00  0.00    +0.025 A 
ATOM     23  C   UNL     1      -1.493  -3.000  -4.080  0.00  0.00    +0.002 A 
ATOM     24  C   UNL     1      -2.375  -3.875  -3.473  0.00  0.00    +0.000 A 
ATOM     25  C   UNL     1      -2.064  -4.435  -2.247  0.00  0.00    +0.002 A 
ATOM     26  C   UNL     1      -0.872  -4.121  -1.625  0.00  0.00    +0.025 A 
ENDBRANCH  20  21
BRANCH  20  27
ATOM     27  S   UNL     1       1.217  -2.213  -0.110  0.00  0.00    +0.075 S 
ATOM     28  O   UNL     1       2.413  -2.623   0.539  0.00  0.00    -0.150 OA
ATOM     29  O   UNL     1      -0.070  -2.447   0.445  0.00  0.00    -0.150 OA
BRANCH  27  30
ATOM     30  C   UNL     1       1.349  -0.473  -0.358  0.00  0.00    +0.109 A 
ATOM     31  C   UNL     1       0.207   0.293  -0.500  0.00  0.00    +0.030 A 
ATOM     32  C   UNL     1       0.311   1.658  -0.694  0.00  0.00    +0.022 A 
ATOM     33  C   UNL     1       1.557   2.256  -0.747  0.00  0.00    +0.041 A 
ATOM     34  C   UNL     1       2.699   1.488  -0.605  0.00  0.00    +0.022 A 
ATOM     35  C   UNL     1       2.595   0.124  -0.410  0.00  0.00    +0.030 A 
ATOM     36 CL   UNL     1       1.687   3.970  -0.991  0.00  0.00    -0.084 Cl
ENDBRANCH  27  30
ENDBRANCH  20  27
ENDBRANCH  19  20
ENDBRANCH   2  19
TORSDOF 8
