REMARK  Name = ZINC01353953
REMARK  12 active torsions:
REMARK  status: ('A' for Active; 'I' for Inactive)
REMARK    1  A    between atoms: C_1  and  C_2
REMARK    2  A    between atoms: C_5  and  N_9
REMARK    3  A    between atoms: C_6  and  C_8
REMARK    4  A    between atoms: N_9  and  C_10
REMARK    5  A    between atoms: C_10  and  C_12
REMARK    6  A    between atoms: C_10  and  C_17
REMARK    7  A    between atoms: N_19  and  C_20
REMARK    8  A    between atoms: C_20  and  C_21
REMARK    9  A    between atoms: C_24  and  O_27
REMARK   10  A    between atoms: O_27  and  C_28
REMARK   11  A    between atoms: C_29  and  C_31
REMARK   12  A    between atoms: C_31  and  C_32
REMARK                            x       y       z     vdW  Elec       q    Type
REMARK                         _______ _______ _______ _____ _____    ______ ____
ROOT
ATOM      1  C   UNL     1       5.030   0.473  -2.991  0.00  0.00    +0.233 C 
ENDROOT
BRANCH   1   2
ATOM      2  C   UNL     1       6.016   1.587  -3.227  0.00  0.00    +0.135 A 
ATOM      3  C   UNL     1       6.058   2.385  -4.309  0.00  0.00    +0.047 A 
ATOM      4  C   UNL     1       7.132   3.284  -4.114  0.00  0.00    +0.041 A 
ATOM      5  C   UNL     1       7.683   2.981  -2.925  0.00  0.00    +0.195 A 
ATOM      6  O   UNL     1       6.999   1.957  -2.389  0.00  0.00    -0.465 OA
ENDBRANCH   1   2
BRANCH   1   7
ATOM      7  C   UNL     1       5.745  -0.852  -3.056  0.00  0.00    +0.242 C 
ATOM      8  O   UNL     1       5.743  -1.590  -2.093  0.00  0.00    -0.273 OA
ATOM      9  N   UNL     1       6.386  -1.218  -4.184  0.00  0.00    -0.309 N 
ATOM     10  H   UNL     1       6.387  -0.628  -4.954  0.00  0.00    +0.149 HD
BRANCH   9  11
ATOM     11  C   UNL     1       7.081  -2.506  -4.247  0.00  0.00    +0.139 C 
BRANCH  11  12
ATOM     12  C   UNL     1       7.710  -2.671  -5.606  0.00  0.00    -0.030 A 
ATOM     13  C   UNL     1       6.999  -3.273  -6.628  0.00  0.00    +0.009 A 
ATOM     14  C   UNL     1       7.572  -3.420  -7.876  0.00  0.00    +0.046 A 
ATOM     15  C   UNL     1       8.866  -2.975  -8.101  0.00  0.00    +0.120 A 
ATOM     16  C   UNL     1       9.580  -2.376  -7.073  0.00  0.00    +0.046 A 
ATOM     17  C   UNL     1       9.001  -2.226  -5.828  0.00  0.00    +0.009 A 
BRANCH  15  18
ATOM     18  O   UNL     1       9.434  -3.123  -9.327  0.00  0.00    -0.495 OA
ATOM     19  C   UNL     1       8.640  -3.748 -10.338  0.00  0.00    +0.277 C 
ENDBRANCH  15  18
ENDBRANCH  11  12
ENDBRANCH   9  11
ENDBRANCH   1   7
BRANCH   1  20
ATOM     20  N   UNL     1       4.418   0.633  -1.670  0.00  0.00    -0.252 N 
ATOM     21  C   UNL     1       3.076   0.644  -1.546  0.00  0.00    +0.226 C 
ATOM     22  O   UNL     1       2.375   0.521  -2.528  0.00  0.00    -0.275 OA
BRANCH  20  27
ATOM     23  C   UNL     1       7.696   1.210   2.924  0.00  0.00    +0.044 C 
ATOM     24  C   UNL     1       6.825   1.057   1.704  0.00  0.00    -0.050 A 
ATOM     25  C   UNL     1       6.482  -0.206   1.255  0.00  0.00    +0.005 A 
ATOM     26  C   UNL     1       5.680  -0.349   0.140  0.00  0.00    +0.024 A 
ATOM     27  C   UNL     1       5.227   0.775  -0.537  0.00  0.00    +0.040 A 
ATOM     28  C   UNL     1       5.573   2.042  -0.084  0.00  0.00    -0.029 A 
ATOM     29  C   UNL     1       6.372   2.179   1.035  0.00  0.00    +0.008 A 
ATOM     30  C   UNL     1       5.079   3.265  -0.812  0.00  0.00    +0.045 C 
ENDBRANCH  20  27
BRANCH  21  31
ATOM     31  C   UNL     1       2.446   0.809  -0.186  0.00  0.00    +0.138 C 
BRANCH  31  32
ATOM     32  C   UNL     1       0.946   0.788  -0.322  0.00  0.00    -0.001 A 
ATOM     33  C   UNL     1       0.099  -0.270  -0.270  0.00  0.00    +0.011 A 
ATOM     34  C   UNL     1      -1.257  -0.051  -0.427  0.00  0.00    +0.008 A 
ATOM     35  C   UNL     1      -1.701   1.215  -0.618  0.00  0.00    +0.045 A 
ATOM     36  S   UNL     1      -0.179   2.148  -0.592  0.00  0.00    -0.101 S 
ENDBRANCH  31  32
ENDBRANCH  21  31
ENDBRANCH   1  20
TORSDOF 9
