REMARK  Name = ZINC39933182
REMARK  4 active torsions:
REMARK  status: ('A' for Active; 'I' for Inactive)
REMARK    1  A    between atoms: C_1  and  C_2
REMARK    2  A    between atoms: C_4  and  N_9
REMARK    3  A    between atoms: N_9  and  C_10
REMARK    4  A    between atoms: C_15  and  C_16
REMARK                            x       y       z     vdW  Elec       q    Type
REMARK                         _______ _______ _______ _____ _____    ______ ____
ROOT
ATOM      1  C   UNL     1       0.057  -4.141  -2.436  0.00  0.00    +0.175 C 
ATOM      2  N   UNL     1       0.176  -4.956  -1.400  0.00  0.00    -0.152 NA
ATOM      3  C   UNL     1       0.340  -6.253  -1.536  0.00  0.00    +0.276 C 
ATOM      4  O   UNL     1       0.449  -6.994  -0.575  0.00  0.00    -0.267 OA
ATOM      5  C   UNL     1       0.385  -6.764  -2.934  0.00  0.00    +0.079 C 
ATOM      6  C   UNL     1       0.542  -8.052  -3.399  0.00  0.00    +0.026 C 
ATOM      7  S   UNL     1       0.168  -5.238  -3.841  0.00  0.00    -0.050 S 
ENDROOT
BRANCH   6   8
ATOM      8  C   UNL     1       0.492  -9.129  -2.506  0.00  0.00    -0.018 C 
ATOM      9  C   UNL     1       0.515 -10.485  -2.821  0.00  0.00    +0.003 A 
ATOM     10  C   UNL     1       0.589 -11.180  -4.048  0.00  0.00    +0.010 A 
ATOM     11  C   UNL     1       0.594 -12.536  -4.053  0.00  0.00    +0.001 A 
ATOM     12  C   UNL     1       0.526 -13.276  -2.867  0.00  0.00    +0.002 A 
ATOM     13  C   UNL     1       0.453 -12.680  -1.655  0.00  0.00    +0.026 A 
ATOM     14  C   UNL     1       0.443 -11.259  -1.566  0.00  0.00    +0.043 A 
ATOM     15  N   UNL     1       0.380 -10.453  -0.532  0.00  0.00    -0.380 N 
ATOM     16  C   UNL     1       0.409  -9.063  -0.997  0.00  0.00    +0.149 C 
ATOM     17  H   UNL     1       0.325 -10.734   0.395  0.00  0.00    +0.160 HD
ENDBRANCH   6   8
BRANCH   1  18
ATOM     18  N   UNL     1      -0.117  -2.784  -2.431  0.00  0.00    -0.192 NA
BRANCH  18  22
ATOM     19  C   UNL     1       1.762  -2.407   2.095  0.00  0.00    +0.045 C 
ATOM     20  C   UNL     1       0.918  -1.861   0.973  0.00  0.00    -0.030 A 
ATOM     21  C   UNL     1       0.791  -2.572  -0.204  0.00  0.00    +0.030 A 
ATOM     22  C   UNL     1       0.013  -2.067  -1.239  0.00  0.00    +0.056 A 
ATOM     23  C   UNL     1      -0.635  -0.848  -1.085  0.00  0.00    +0.026 A 
ATOM     24  C   UNL     1      -0.505  -0.141   0.094  0.00  0.00    +0.022 A 
ATOM     25  C   UNL     1       0.267  -0.649   1.125  0.00  0.00    +0.044 A 
ATOM     26 CL   UNL     1       0.423   0.238   2.608  0.00  0.00    -0.083 Cl
ENDBRANCH  18  22
ENDBRANCH   1  18
TORSDOF 3
