REMARK  Name = ZINC33937046
REMARK  14 active torsions:
REMARK  status: ('A' for Active; 'I' for Inactive)
REMARK    1  A    between atoms: C_1  and  C_2
REMARK    2  A    between atoms: C_2  and  C_3
REMARK    3  A    between atoms: C_3  and  C_5
REMARK    4  A    between atoms: C_3  and  N_17
REMARK    5  A    between atoms: N_9  and  C_10
REMARK    6  A    between atoms: C_10  and  C_11
REMARK    7  A    between atoms: N_17  and  C_18
REMARK    8  A    between atoms: N_17  and  C_27
REMARK    9  A    between atoms: C_18  and  C_19
REMARK   10  A    between atoms: C_22  and  O_25
REMARK   11  A    between atoms: O_25  and  C_26
REMARK   12  A    between atoms: C_27  and  C_28
REMARK   13  A    between atoms: C_31  and  C_41
REMARK   14  A    between atoms: C_33  and  C_40
REMARK                            x       y       z     vdW  Elec       q    Type
REMARK                         _______ _______ _______ _____ _____    ______ ____
ROOT
ATOM      1  N   UNL     1       2.837   0.164   0.966  0.00  0.00    +0.392 N 
ATOM      2  H   UNL     1       3.177  -0.247   0.110  0.00  0.00    -0.080 HD
ENDROOT
BRANCH   1   3
ATOM      3  C   UNL     1       1.392  -0.072   1.084  0.00  0.00    +0.003 C 
BRANCH   3   4
ATOM      4  C   UNL     1       0.879   0.572   2.346  0.00  0.00    +0.138 A 
ATOM      5  N   UNL     1       1.453   0.551   3.524  0.00  0.00    -0.115 NA
ATOM      6  N   UNL     1       0.708   1.212   4.341  0.00  0.00    -0.023 NA
ATOM      7  N   UNL     1      -0.327   1.654   3.715  0.00  0.00    -0.044 NA
ATOM      8  N   UNL     1      -0.255   1.284   2.481  0.00  0.00    -0.228 N 
BRANCH   8   9
ATOM      9  C   UNL     1      -1.227   1.581   1.426  0.00  0.00    +0.178 C 
BRANCH   9  10
ATOM     10  C   UNL     1      -2.372   0.568   1.488  0.00  0.00    +0.140 C 
ATOM     11  C   UNL     1      -3.457   0.918   0.438  0.00  0.00    +0.035 C 
ATOM     12  C   UNL     1      -4.112  -0.472   0.216  0.00  0.00    +0.031 C 
ATOM     13  C   UNL     1      -2.911  -1.429   0.374  0.00  0.00    +0.160 C 
ATOM     14  O   UNL     1      -1.902  -0.739   1.122  0.00  0.00    -0.375 OA
ENDBRANCH   9  10
ENDBRANCH   8   9
ENDBRANCH   3   4
BRANCH   3  16
ATOM     15  C   UNL     1       1.579  -2.220  -0.178  0.00  0.00    +0.002 C 
ATOM     16  C   UNL     1       1.124  -1.577   1.133  0.00  0.00    -0.011 C 
ENDBRANCH   3  16
ENDBRANCH   1   3
BRANCH   1  17
ATOM     17  C   UNL     1       3.098   1.610   0.951  0.00  0.00    -0.042 C 
BRANCH  17  18
ATOM     18  C   UNL     1       2.522   2.211  -0.305  0.00  0.00    -0.064 A 
ATOM     19  C   UNL     1       3.244   2.170  -1.483  0.00  0.00    +0.005 A 
ATOM     20  C   UNL     1       2.718   2.721  -2.636  0.00  0.00    +0.046 A 
ATOM     21  C   UNL     1       1.465   3.315  -2.611  0.00  0.00    +0.120 A 
ATOM     22  C   UNL     1       0.742   3.354  -1.427  0.00  0.00    +0.046 A 
ATOM     23  C   UNL     1       1.270   2.797  -0.278  0.00  0.00    +0.005 A 
BRANCH  21  24
ATOM     24  O   UNL     1       0.946   3.858  -3.743  0.00  0.00    -0.495 OA
ATOM     25  C   UNL     1      -0.350   4.453  -3.643  0.00  0.00    +0.277 C 
ENDBRANCH  21  24
ENDBRANCH  17  18
ENDBRANCH   1  17
BRANCH   1  26
ATOM     26  C   UNL     1       3.528  -0.446   2.110  0.00  0.00    -0.036 C 
BRANCH  26  27
ATOM     27  C   UNL     1       5.018  -0.335   1.915  0.00  0.00    +0.001 A 
ATOM     28  C   UNL     1       5.701   0.684   2.494  0.00  0.00    +0.017 A 
ATOM     29  C   UNL     1       7.148   0.763   2.285  0.00  0.00    +0.002 A 
ATOM     30  C   UNL     1       7.906   1.791   2.857  0.00  0.00    -0.041 A 
ATOM     31  C   UNL     1       9.254   1.836   2.643  0.00  0.00    +0.007 A 
ATOM     32  C   UNL     1       9.879   0.872   1.864  0.00  0.00    -0.048 A 
ATOM     33  C   UNL     1       9.152  -0.148   1.291  0.00  0.00    +0.029 A 
ATOM     34  C   UNL     1       7.778  -0.216   1.495  0.00  0.00    +0.050 A 
ATOM     35  N   UNL     1       7.026  -1.227   0.934  0.00  0.00    -0.322 N 
ATOM     36  H   UNL     1       7.462  -1.901   0.390  0.00  0.00    +0.169 HD
ATOM     37  C   UNL     1       5.699  -1.294   1.136  0.00  0.00    +0.251 A 
ATOM     38  O   UNL     1       5.066  -2.205   0.629  0.00  0.00    -0.268 OA
ATOM     39  C   UNL     1      11.368   0.943   1.642  0.00  0.00    +0.044 C 
ATOM     40  C   UNL     1       7.238   2.843   3.704  0.00  0.00    +0.044 C 
ENDBRANCH  26  27
ENDBRANCH   1  26
TORSDOF 10
