REMARK  Name = ZINC66559370
REMARK  10 active torsions:
REMARK  status: ('A' for Active; 'I' for Inactive)
REMARK    1  A    between atoms: C_1  and  C_2
REMARK    2  A    between atoms: C_2  and  C_3
REMARK    3  A    between atoms: C_3  and  C_4
REMARK    4  A    between atoms: C_4  and  N_5
REMARK    5  A    between atoms: N_5  and  C_6
REMARK    6  A    between atoms: N_5  and  C_21
REMARK    7  A    between atoms: C_6  and  C_7
REMARK    8  A    between atoms: N_12  and  C_13
REMARK    9  A    between atoms: C_16  and  C_20
REMARK   10  A    between atoms: C_17  and  C_19
REMARK                            x       y       z     vdW  Elec       q    Type
REMARK                         _______ _______ _______ _____ _____    ______ ____
ROOT
ATOM      1  C   UNL     1       2.376  -4.487   3.534  0.00  0.00    +0.204 C 
ATOM      2  O   UNL     1       2.713  -3.701   4.394  0.00  0.00    -0.277 OA
ATOM      3  N   UNL     1       2.676  -5.795   3.661  0.00  0.00    -0.241 N 
ATOM      4  C   UNL     1       3.352  -6.229   4.743  0.00  0.00    +0.310 C 
ATOM      5  O   UNL     1       3.691  -5.441   5.604  0.00  0.00    -0.252 OA
ATOM      6  N   UNL     1       3.653  -7.536   4.870  0.00  0.00    -0.269 N 
ATOM      7  H   UNL     1       2.406  -6.423   2.974  0.00  0.00    +0.159 HD
ATOM      8  H   UNL     1       3.449  -8.153   4.149  0.00  0.00    +0.156 HD
ENDROOT
BRANCH   6   9
ATOM      9  C   UNL     1       4.260  -8.005   6.041  0.00  0.00    +0.035 A 
ATOM     10  C   UNL     1       3.941  -7.433   7.266  0.00  0.00    +0.023 A 
ATOM     11  C   UNL     1       4.541  -7.898   8.420  0.00  0.00    +0.005 A 
ATOM     12  C   UNL     1       5.459  -8.930   8.356  0.00  0.00    -0.047 A 
ATOM     13  C   UNL     1       5.779  -9.500   7.138  0.00  0.00    -0.046 A 
ATOM     14  C   UNL     1       5.177  -9.045   5.981  0.00  0.00    +0.027 A 
ATOM     15  C   UNL     1       6.781 -10.624   7.073  0.00  0.00    +0.044 C 
ATOM     16  C   UNL     1       6.112  -9.434   9.617  0.00  0.00    +0.044 C 
ENDBRANCH   6   9
BRANCH   1  17
ATOM     17  C   UNL     1       1.619  -4.001   2.325  0.00  0.00    +0.019 C 
BRANCH  17  18
ATOM     18  N   UNL     1       1.257  -2.590   2.507  0.00  0.00    +0.388 N 
ATOM     19  H   UNL     1       1.986  -2.119   3.023  0.00  0.00    -0.081 HD
BRANCH  18  20
ATOM     20  C   UNL     1      -0.005  -2.500   3.253  0.00  0.00    -0.045 C 
ATOM     21  C   UNL     1       0.119  -3.295   4.564  0.00  0.00    +0.009 C 
ATOM     22  C   UNL     1      -1.094  -2.931   5.467  0.00  0.00    +0.164 C 
ATOM     23  S   UNL     1      -1.203  -1.115   5.170  0.00  0.00    -0.033 S 
ATOM     24  O   UNL     1      -0.442  -0.439   6.162  0.00  0.00    -0.174 OA
ATOM     25  O   UNL     1      -2.564  -0.760   4.971  0.00  0.00    -0.174 OA
ATOM     26  C   UNL     1      -0.314  -1.016   3.564  0.00  0.00    +0.151 C 
ENDBRANCH  18  20
BRANCH  18  27
ATOM     27  C   UNL     1       1.097  -1.951   1.194  0.00  0.00    -0.078 C 
BRANCH  27  28
ATOM     28  C   UNL     1       1.149  -0.431   1.356  0.00  0.00    -0.019 C 
BRANCH  28  30
ATOM     29  C   UNL     1       1.186   1.751   0.139  0.00  0.00    +0.004 C 
ATOM     30  C   UNL     1       1.133   0.230  -0.023  0.00  0.00    -0.005 C 
ENDBRANCH  28  30
ENDBRANCH  27  28
ENDBRANCH  18  27
ENDBRANCH  17  18
ENDBRANCH   1  17
TORSDOF 7
