REMARK  Name = ZINC39914383
REMARK  17 active torsions:
REMARK  status: ('A' for Active; 'I' for Inactive)
REMARK    1  A    between atoms: C_1  and  C_2
REMARK    2  A    between atoms: C_2  and  C_3
REMARK    3  A    between atoms: C_3  and  C_4
REMARK    4  A    between atoms: C_4  and  N_5
REMARK    5  A    between atoms: C_6  and  C_25
REMARK    6  A    between atoms: C_9  and  C_16
REMARK    7  A    between atoms: C_19  and  C_23
REMARK    8  A    between atoms: C_21  and  O_22
REMARK    9  A    between atoms: C_28  and  O_34
REMARK   10  A    between atoms: C_29  and  O_31
REMARK   11  A    between atoms: O_31  and  C_32
REMARK   12  A    between atoms: C_32  and  C_33
REMARK   13  A    between atoms: O_34  and  C_35
REMARK   14  A    between atoms: C_35  and  C_36
REMARK   15  A    between atoms: C_36  and  C_37
REMARK   16  A    between atoms: C_37  and  C_38
REMARK   17  A    between atoms: C_37  and  C_39
REMARK                            x       y       z     vdW  Elec       q    Type
REMARK                         _______ _______ _______ _____ _____    ______ ____
ROOT
ATOM      1  N   UNL     1       1.794  -1.645   2.958  0.00  0.00    -0.285 N 
ATOM      2  C   UNL     1       3.135  -2.214   2.772  0.00  0.00    +0.141 C 
ATOM      3  C   UNL     1       3.400  -3.061   3.986  0.00  0.00    +0.035 A 
ATOM      4  C   UNL     1       4.285  -3.907   4.664  0.00  0.00    +0.102 A 
ATOM      5  N   UNL     1       3.700  -4.271   5.787  0.00  0.00    -0.173 NA
ATOM      6  N   UNL     1       2.534  -3.740   5.887  0.00  0.00    -0.272 N 
ATOM      7  H   UNL     1       1.925  -3.868   6.630  0.00  0.00    +0.189 HD
ATOM      8  C   UNL     1       2.280  -2.967   4.789  0.00  0.00    +0.126 A 
ATOM      9  C   UNL     1       1.309  -2.083   4.134  0.00  0.00    +0.265 C 
ATOM     10  O   UNL     1       0.219  -1.791   4.588  0.00  0.00    -0.268 OA
ENDROOT
BRANCH   4  11
ATOM     11  C   UNL     1       5.634  -4.319   4.202  0.00  0.00    +0.045 A 
ATOM     12  C   UNL     1       6.082  -3.953   2.935  0.00  0.00    +0.034 A 
ATOM     13  C   UNL     1       7.338  -4.338   2.510  0.00  0.00    +0.045 A 
ATOM     14  C   UNL     1       8.155  -5.087   3.340  0.00  0.00    -0.029 A 
ATOM     15  C   UNL     1       7.720  -5.455   4.599  0.00  0.00    +0.050 A 
ATOM     16  C   UNL     1       6.463  -5.070   5.039  0.00  0.00    +0.126 A 
ATOM     17  C   UNL     1       9.524  -5.504   2.868  0.00  0.00    +0.045 C 
ATOM     18 CL   UNL     1       7.895  -3.881   0.930  0.00  0.00    -0.083 Cl
BRANCH  16  19
ATOM     19  O   UNL     1       6.037  -5.426   6.279  0.00  0.00    -0.506 OA
ATOM     20  H   UNL     1       5.573  -6.274   6.307  0.00  0.00    +0.292 HD
ENDBRANCH  16  19
ENDBRANCH   4  11
BRANCH   2  21
ATOM     21  C   UNL     1       4.157  -1.111   2.674  0.00  0.00    -0.019 A 
ATOM     22  C   UNL     1       5.102  -1.133   1.665  0.00  0.00    +0.009 A 
ATOM     23  C   UNL     1       6.042  -0.124   1.571  0.00  0.00    +0.050 A 
ATOM     24  C   UNL     1       6.038   0.914   2.490  0.00  0.00    +0.162 A 
ATOM     25  C   UNL     1       5.087   0.937   3.505  0.00  0.00    +0.162 A 
ATOM     26  C   UNL     1       4.144  -0.076   3.591  0.00  0.00    +0.055 A 
BRANCH  25  27
ATOM     27  O   UNL     1       5.079   1.953   4.408  0.00  0.00    -0.489 OA
BRANCH  27  28
ATOM     28  C   UNL     1       4.152   1.851   5.492  0.00  0.00    +0.226 C 
ATOM     29  C   UNL     1       4.364   3.020   6.456  0.00  0.00    +0.048 C 
ENDBRANCH  27  28
ENDBRANCH  25  27
BRANCH  24  30
ATOM     30  O   UNL     1       6.962   1.907   2.399  0.00  0.00    -0.488 OA
BRANCH  30  31
ATOM     31  C   UNL     1       7.908   1.818   1.331  0.00  0.00    +0.229 C 
BRANCH  31  32
ATOM     32  C   UNL     1       8.859   3.015   1.391  0.00  0.00    +0.044 C 
BRANCH  32  33
ATOM     33  C   UNL     1       9.872   2.920   0.249  0.00  0.00    -0.014 C 
ATOM     34  C   UNL     1      10.743   4.177   0.233  0.00  0.00    +0.007 C 
ATOM     35  C   UNL     1      10.757   1.688   0.453  0.00  0.00    +0.007 C 
ENDBRANCH  32  33
ENDBRANCH  31  32
ENDBRANCH  30  31
ENDBRANCH  24  30
ENDBRANCH   2  21
BRANCH   1  36
ATOM     36  C   UNL     1       1.105  -0.749   2.027  0.00  0.00    +0.109 C 
BRANCH  36  37
ATOM     37  C   UNL     1       1.447   0.703   2.368  0.00  0.00    +0.019 C 
BRANCH  37  39
ATOM     38  C   UNL     1       1.069   3.090   1.736  0.00  0.00    +0.004 C 
ATOM     39  C   UNL     1       0.727   1.639   1.395  0.00  0.00    -0.002 C 
ENDBRANCH  37  39
ENDBRANCH  36  37
ENDBRANCH   1  36
TORSDOF 12
