REMARK  Name = ZINC57780144
REMARK  9 active torsions:
REMARK  status: ('A' for Active; 'I' for Inactive)
REMARK    1  A    between atoms: C_1  and  C_2
REMARK    2  A    between atoms: C_2  and  N_3
REMARK    3  A    between atoms: C_11  and  S_12
REMARK    4  A    between atoms: S_12  and  C_13
REMARK    5  A    between atoms: C_13  and  C_15
REMARK    6  A    between atoms: C_13  and  C_16
REMARK    7  A    between atoms: N_18  and  C_19
REMARK    8  A    between atoms: C_19  and  C_20
REMARK    9  A    between atoms: C_20  and  C_21
REMARK                            x       y       z     vdW  Elec       q    Type
REMARK                         _______ _______ _______ _____ _____    ______ ____
ROOT
ATOM      1  C   UNL     1      -3.078  -1.105  -3.721  0.00  0.00    +0.137 C 
ATOM      2  C   UNL     1      -4.239  -0.143  -3.465  0.00  0.00    +0.029 C 
ENDROOT
BRANCH   1   3
ATOM      3  C   UNL     1      -2.733  -1.096  -5.188  0.00  0.00    +0.226 C 
ATOM      4  O   UNL     1      -1.788  -0.447  -5.584  0.00  0.00    -0.275 OA
ATOM      5  N   UNL     1      -3.473  -1.810  -6.059  0.00  0.00    -0.314 N 
ATOM      6  H   UNL     1      -4.228  -2.330  -5.742  0.00  0.00    +0.149 HD
BRANCH   5   7
ATOM      7  C   UNL     1      -3.137  -1.801  -7.485  0.00  0.00    +0.109 C 
BRANCH   7   8
ATOM      8  C   UNL     1      -4.126  -2.685  -8.247  0.00  0.00    +0.061 C 
BRANCH   8   9
ATOM      9  C   UNL     1      -3.780  -2.676  -9.714  0.00  0.00    -0.009 A 
ATOM     10  C   UNL     1      -2.957  -3.505 -10.402  0.00  0.00    +0.011 A 
ATOM     11  C   UNL     1      -2.789  -3.306 -11.760  0.00  0.00    +0.008 A 
ATOM     12  C   UNL     1      -3.452  -2.289 -12.363  0.00  0.00    +0.045 A 
ATOM     13  S   UNL     1      -4.354  -1.576 -10.998  0.00  0.00    -0.102 S 
ENDBRANCH   8   9
ENDBRANCH   7   8
ENDBRANCH   5   7
ENDBRANCH   1   3
BRANCH   1  14
ATOM     14  S   UNL     1      -1.634  -0.582  -2.756  0.00  0.00    -0.075 S 
BRANCH  14  23
ATOM     15  N   UNL     1      -1.372  -0.511   0.012  0.00  0.00    -0.319 N 
ATOM     16  C   UNL     1      -2.135  -0.796   1.134  0.00  0.00    +0.069 A 
ATOM     17  C   UNL     1      -1.904  -0.716   2.498  0.00  0.00    +0.028 A 
ATOM     18  C   UNL     1      -2.895  -1.085   3.385  0.00  0.00    +0.002 A 
ATOM     19  C   UNL     1      -4.121  -1.536   2.921  0.00  0.00    +0.002 A 
ATOM     20  C   UNL     1      -4.367  -1.623   1.569  0.00  0.00    +0.030 A 
ATOM     21  C   UNL     1      -3.375  -1.252   0.657  0.00  0.00    +0.090 A 
ATOM     22  N   UNL     1      -3.317  -1.226  -0.700  0.00  0.00    -0.222 NA
ATOM     23  C   UNL     1      -2.143  -0.785  -1.082  0.00  0.00    +0.171 A 
BRANCH  15  25
ATOM     24  C   UNL     1      -0.019   1.526   0.010  0.00  0.00    +0.027 C 
ATOM     25  C   UNL     1       0.002  -0.004   0.002  0.00  0.00    +0.121 C 
ENDBRANCH  15  25
ENDBRANCH  14  23
ENDBRANCH   1  14
TORSDOF 7
