REMARK  Name = ZINC43255004
REMARK  6 active torsions:
REMARK  status: ('A' for Active; 'I' for Inactive)
REMARK    1  A    between atoms: C_6  and  C_11
REMARK    2  A    between atoms: C_11  and  N_12
REMARK    3  A    between atoms: C_20  and  C_21
REMARK    4  A    between atoms: C_21  and  C_23
REMARK    5  A    between atoms: C_21  and  N_34
REMARK    6  A    between atoms: C_23  and  C_24
REMARK                            x       y       z     vdW  Elec       q    Type
REMARK                         _______ _______ _______ _____ _____    ______ ____
ROOT
ATOM      1  N   UNL     1       5.450  -2.942   1.315  0.00  0.00    -0.324 N 
ATOM      2  C   UNL     1       6.226  -2.099   2.085  0.00  0.00    +0.069 A 
ATOM      3  C   UNL     1       6.809  -0.857   1.872  0.00  0.00    +0.028 A 
ATOM      4  C   UNL     1       7.546  -0.268   2.877  0.00  0.00    +0.002 A 
ATOM      5  C   UNL     1       7.709  -0.907   4.097  0.00  0.00    +0.002 A 
ATOM      6  C   UNL     1       7.144  -2.129   4.325  0.00  0.00    +0.030 A 
ATOM      7  C   UNL     1       6.391  -2.746   3.322  0.00  0.00    +0.089 A 
ATOM      8  N   UNL     1       5.722  -3.924   3.244  0.00  0.00    -0.234 NA
ATOM      9  C   UNL     1       5.167  -4.036   2.073  0.00  0.00    +0.097 A 
ENDROOT
BRANCH   1  10
ATOM     10  C   UNL     1       5.008  -2.700  -0.060  0.00  0.00    +0.158 C 
BRANCH  10  16
ATOM     11  C   UNL     1      -0.016   1.357   0.009  0.00  0.00    +0.001 A 
ATOM     12  C   UNL     1       1.169   2.091   0.002  0.00  0.00    +0.001 A 
ATOM     13  C   UNL     1       2.378   1.468  -0.013  0.00  0.00    +0.008 A 
ATOM     14  C   UNL     1       2.438   0.063  -0.021  0.00  0.00    -0.018 A 
ATOM     15  C   UNL     1       3.668  -0.615  -0.036  0.00  0.00    +0.014 A 
ATOM     16  C   UNL     1       3.687  -1.976  -0.043  0.00  0.00    -0.027 A 
ATOM     17  C   UNL     1       2.502  -2.710  -0.036  0.00  0.00    +0.006 A 
ATOM     18  C   UNL     1       1.292  -2.087  -0.021  0.00  0.00    +0.009 A 
ATOM     19  C   UNL     1       1.233  -0.683  -0.013  0.00  0.00    -0.018 A 
ATOM     20  C   UNL     1       0.002  -0.004   0.002  0.00  0.00    +0.008 A 
ENDBRANCH  10  16
ENDBRANCH   1  10
BRANCH   9  21
ATOM     21  C   UNL     1       4.334  -5.207   1.620  0.00  0.00    -0.003 C 
BRANCH  21  22
ATOM     22  N   UNL     1       3.387  -5.574   2.681  0.00  0.00    +0.385 N 
ATOM     23  H   UNL     1       2.829  -6.359   2.378  0.00  0.00    -0.089 HD
ATOM     24  H   UNL     1       3.896  -5.826   3.515  0.00  0.00    -0.089 HD
ATOM     25  H   UNL     1       2.784  -4.790   2.880  0.00  0.00    -0.089 HD
ENDBRANCH  21  22
BRANCH  21  26
ATOM     26  C   UNL     1       5.248  -6.397   1.319  0.00  0.00    +0.028 C 
BRANCH  26  27
ATOM     27  C   UNL     1       4.431  -7.528   0.750  0.00  0.00    -0.024 A 
ATOM     28  C   UNL     1       3.904  -8.555   1.435  0.00  0.00    +0.087 A 
ATOM     29  N   UNL     1       3.226  -9.384   0.583  0.00  0.00    -0.360 N 
ATOM     30  H   UNL     1       2.761 -10.194   0.846  0.00  0.00    +0.165 HD
ATOM     31  C   UNL     1       3.302  -8.899  -0.703  0.00  0.00    +0.047 A 
ATOM     32  C   UNL     1       4.054  -7.711  -0.654  0.00  0.00    +0.003 A 
ATOM     33  C   UNL     1       4.292  -6.988  -1.824  0.00  0.00    +0.010 A 
ATOM     34  C   UNL     1       3.789  -7.437  -3.013  0.00  0.00    +0.001 A 
ATOM     35  C   UNL     1       3.043  -8.606  -3.066  0.00  0.00    +0.002 A 
ATOM     36  C   UNL     1       2.804  -9.339  -1.924  0.00  0.00    +0.026 A 
ENDBRANCH  26  27
ENDBRANCH  21  26
ENDBRANCH   9  21
TORSDOF 6
