REMARK  Name = ZINC12186427
REMARK  7 active torsions:
REMARK  status: ('A' for Active; 'I' for Inactive)
REMARK    1  A    between atoms: C_1  and  C_2
REMARK    2  A    between atoms: C_5  and  C_19
REMARK    3  A    between atoms: N_11  and  C_13
REMARK    4  A    between atoms: C_19  and  N_48
REMARK    5  A    between atoms: C_20  and  C_21
REMARK    6  A    between atoms: C_20  and  N_48
REMARK    7  A    between atoms: C_24  and  C_27
REMARK                            x       y       z     vdW  Elec       q    Type
REMARK                         _______ _______ _______ _____ _____    ______ ____
ROOT
ATOM      1  C   UNL     1       4.792   7.207   5.439  0.00  0.00    +0.068 C 
ATOM      2  C   UNL     1       3.317   7.142   5.738  0.00  0.00    +0.070 A 
ATOM      3  C   UNL     1       2.304   6.746   4.834  0.00  0.00    +0.040 A 
ATOM      4  C   UNL     1       2.319   6.314   3.487  0.00  0.00    +0.020 A 
ATOM      5  C   UNL     1       1.144   6.000   2.880  0.00  0.00    +0.001 A 
ATOM      6  C   UNL     1      -0.064   6.096   3.594  0.00  0.00    +0.252 A 
ATOM      7  O   UNL     1      -1.113   5.807   3.043  0.00  0.00    -0.268 OA
ATOM      8  N   UNL     1      -0.077   6.502   4.877  0.00  0.00    -0.307 N 
ATOM      9  H   UNL     1      -0.920   6.562   5.354  0.00  0.00    +0.170 HD
ATOM     10  C   UNL     1       1.088   6.831   5.515  0.00  0.00    +0.145 A 
ATOM     11  N   UNL     1       1.371   7.261   6.773  0.00  0.00    -0.216 N 
ATOM     12  N   UNL     1       2.755   7.442   6.875  0.00  0.00    -0.169 NA
ENDROOT
BRANCH  11  13
ATOM     13  C   UNL     1       0.436   7.483   7.793  0.00  0.00    +0.068 A 
ATOM     14  C   UNL     1      -0.823   7.982   7.487  0.00  0.00    +0.028 A 
ATOM     15  C   UNL     1      -1.743   8.196   8.494  0.00  0.00    +0.002 A 
ATOM     16  C   UNL     1      -1.408   7.925   9.808  0.00  0.00    +0.000 A 
ATOM     17  C   UNL     1      -0.153   7.433  10.117  0.00  0.00    +0.002 A 
ATOM     18  C   UNL     1       0.769   7.211   9.114  0.00  0.00    +0.028 A 
ENDBRANCH  11  13
BRANCH   5  19
ATOM     19  C   UNL     1       1.137   5.543   1.444  0.00  0.00    -0.041 C 
BRANCH  19  20
ATOM     20  N   UNL     1       1.157   4.069   1.406  0.00  0.00    +0.384 N 
ATOM     21  H   UNL     1       0.328   3.706   1.891  0.00  0.00    -0.085 HD
ATOM     22  H   UNL     1       2.004   3.729   1.876  0.00  0.00    -0.085 HD
BRANCH  20  23
ATOM     23  C   UNL     1       1.151   3.592   0.010  0.00  0.00    -0.046 C 
BRANCH  23  24
ATOM     24  C   UNL     1       1.171   2.086   0.002  0.00  0.00    -0.064 A 
ATOM     25  C   UNL     1      -0.017   1.378   0.010  0.00  0.00    +0.002 A 
ATOM     26  C   UNL     1       0.002  -0.004   0.002  0.00  0.00    +0.012 A 
ATOM     27  C   UNL     1       1.208  -0.679  -0.014  0.00  0.00    +0.055 A 
ATOM     28  C   UNL     1       2.396   0.029  -0.021  0.00  0.00    +0.012 A 
ATOM     29  C   UNL     1       2.377   1.411  -0.014  0.00  0.00    +0.002 A 
BRANCH  27  30
ATOM     30  C   UNL     1       1.229  -2.186  -0.022  0.00  0.00    +0.417 C 
ATOM     31  F   UNL     1       1.222  -2.645  -1.343  0.00  0.00    -0.166 F 
ATOM     32  F   UNL     1       2.384  -2.640   0.624  0.00  0.00    -0.166 F 
ATOM     33  F   UNL     1       0.100  -2.671   0.646  0.00  0.00    -0.166 F 
ENDBRANCH  27  30
ENDBRANCH  23  24
ENDBRANCH  20  23
ENDBRANCH  19  20
ENDBRANCH   5  19
TORSDOF 6
