REMARK  Name = ZINC06964513
REMARK  8 active torsions:
REMARK  status: ('A' for Active; 'I' for Inactive)
REMARK    1  A    between atoms: C_1  and  C_2
REMARK    2  A    between atoms: C_5  and  C_9
REMARK    3  A    between atoms: C_6  and  C_8
REMARK    4  A    between atoms: N_11  and  C_12
REMARK    5  A    between atoms: C_12  and  N_14
REMARK    6  A    between atoms: N_14  and  C_15
REMARK    7  A    between atoms: C_18  and  C_24
REMARK    8  A    between atoms: C_20  and  N_21
REMARK                            x       y       z     vdW  Elec       q    Type
REMARK                         _______ _______ _______ _____ _____    ______ ____
ROOT
ATOM      1  C   UNL     1      -3.629   2.102   0.976  0.00  0.00    +0.141 C 
ATOM      2  S   UNL     1      -3.677   3.800   0.764  0.00  0.00    -0.018 S 
ENDROOT
BRANCH   1   5
ATOM      3  C   UNL     1      -1.416   2.071   0.233  0.00  0.00    +0.250 C 
ATOM      4  O   UNL     1      -1.450   3.277   0.082  0.00  0.00    -0.270 OA
ATOM      5  N   UNL     1      -2.504   1.418   0.688  0.00  0.00    -0.264 N 
ATOM      6  H   UNL     1      -2.477   0.456   0.808  0.00  0.00    +0.157 HD
BRANCH   3  11
ATOM      7  C   UNL     1       3.380  -0.852  -1.016  0.00  0.00    +0.044 C 
ATOM      8  C   UNL     1       2.125  -0.086  -0.687  0.00  0.00    -0.050 A 
ATOM      9  C   UNL     1       1.048  -0.741  -0.117  0.00  0.00    +0.004 A 
ATOM     10  C   UNL     1      -0.105  -0.046   0.186  0.00  0.00    +0.013 A 
ATOM     11  C   UNL     1      -0.183   1.321  -0.084  0.00  0.00    +0.040 A 
ATOM     12  C   UNL     1       0.908   1.976  -0.658  0.00  0.00    -0.038 A 
ATOM     13  C   UNL     1       2.054   1.269  -0.957  0.00  0.00    +0.007 A 
ATOM     14  C   UNL     1       0.833   3.452  -0.953  0.00  0.00    +0.044 C 
ENDBRANCH   3  11
ENDBRANCH   1   5
BRANCH   1  15
ATOM     15  N   UNL     1      -4.716   1.449   1.431  0.00  0.00    -0.295 N 
ATOM     16  H   UNL     1      -4.667   0.499   1.622  0.00  0.00    +0.154 HD
BRANCH  15  17
ATOM     17  C   UNL     1      -5.916   2.140   1.629  0.00  0.00    +0.063 A 
ATOM     18  C   UNL     1      -5.922   3.336   2.336  0.00  0.00    +0.026 A 
ATOM     19  C   UNL     1      -7.108   4.017   2.529  0.00  0.00    +0.005 A 
ATOM     20  C   UNL     1      -8.289   3.510   2.018  0.00  0.00    -0.048 A 
ATOM     21  C   UNL     1      -8.286   2.320   1.313  0.00  0.00    +0.038 A 
ATOM     22  C   UNL     1      -7.103   1.637   1.113  0.00  0.00    +0.147 A 
ATOM     23  C   UNL     1      -9.581   4.255   2.230  0.00  0.00    +0.044 C 
BRANCH  22  24
ATOM     24  N   UNL     1      -7.100   0.366   0.353  0.00  0.00    +0.058 N 
ATOM     25  O   UNL     1      -8.125  -0.031  -0.172  0.00  0.00    -0.126 OA
ATOM     26  O   UNL     1      -6.074  -0.281   0.253  0.00  0.00    -0.126 OA
ENDBRANCH  22  24
ENDBRANCH  15  17
ENDBRANCH   1  15
TORSDOF 5
