REMARK  Name = ZINC03315905
REMARK  7 active torsions:
REMARK  status: ('A' for Active; 'I' for Inactive)
REMARK    1  A    between atoms: C_7  and  C_11
REMARK    2  A    between atoms: C_11  and  C_12
REMARK    3  A    between atoms: C_12  and  C_13
REMARK    4  A    between atoms: C_13  and  O_15
REMARK    5  A    between atoms: O_15  and  C_16
REMARK    6  A    between atoms: C_16  and  C_17
REMARK    7  A    between atoms: C_17  and  C_19
REMARK                            x       y       z     vdW  Elec       q    Type
REMARK                         _______ _______ _______ _____ _____    ______ ____
ROOT
ATOM      1  C   UNL     1       8.554   0.293  -0.079  0.00  0.00    +0.125 C 
ENDROOT
BRANCH   1   2
ATOM      2  C   UNL     1       7.177   0.905  -0.062  0.00  0.00    +0.308 C 
ATOM      3  O   UNL     1       7.050   2.106  -0.054  0.00  0.00    -0.251 OA
BRANCH   2   4
ATOM      4  O   UNL     1       6.092   0.115  -0.056  0.00  0.00    -0.457 OA
BRANCH   4   5
ATOM      5  C   UNL     1       4.797   0.773  -0.040  0.00  0.00    +0.312 C 
BRANCH   5   6
ATOM      6  C   UNL     1       3.706  -0.266  -0.035  0.00  0.00    +0.207 C 
ATOM      7  O   UNL     1       3.991  -1.447  -0.045  0.00  0.00    -0.288 OA
BRANCH   6   8
ATOM      8  C   UNL     1       2.353   0.132  -0.020  0.00  0.00    +0.059 A 
ATOM      9  C   UNL     1       1.206  -0.656  -0.013  0.00  0.00    +0.020 A 
ATOM     10  C   UNL     1       0.002  -0.004   0.002  0.00  0.00    +0.028 A 
ATOM     11  C   UNL     1      -0.016   1.359   0.009  0.00  0.00    +0.079 A 
ATOM     12  S   UNL     1       1.665   1.779  -0.004  0.00  0.00    -0.074 S 
ATOM     13 CL   UNL     1      -1.392   2.418   0.022  0.00  0.00    -0.076 Cl
ENDBRANCH   6   8
ENDBRANCH   5   6
ENDBRANCH   4   5
ENDBRANCH   2   4
ENDBRANCH   1   2
BRANCH   1  14
ATOM     14  C   UNL     1       9.606   1.404  -0.083  0.00  0.00    +0.048 C 
BRANCH  14  21
ATOM     15  C   UNL     1      12.382  -0.150  -3.525  0.00  0.00    +0.001 A 
ATOM     16  C   UNL     1      13.594  -0.643  -3.061  0.00  0.00    +0.002 A 
ATOM     17  C   UNL     1      13.883  -0.644  -1.715  0.00  0.00    +0.026 A 
ATOM     18  C   UNL     1      12.953  -0.146  -0.808  0.00  0.00    +0.047 A 
ATOM     19  C   UNL     1      11.726   0.352  -1.283  0.00  0.00    +0.003 A 
ATOM     20  C   UNL     1      11.454   0.343  -2.652  0.00  0.00    +0.010 A 
ATOM     21  C   UNL     1      10.983   0.793  -0.100  0.00  0.00    -0.022 A 
ATOM     22  C   UNL     1      11.764   0.554   0.965  0.00  0.00    +0.087 A 
ATOM     23  N   UNL     1      12.943  -0.012   0.562  0.00  0.00    -0.360 N 
ATOM     24  H   UNL     1      13.665  -0.275   1.154  0.00  0.00    +0.165 HD
ENDBRANCH  14  21
ENDBRANCH   1  14
TORSDOF 7
