REMARK  Name = ZINC00936556
REMARK  8 active torsions:
REMARK  status: ('A' for Active; 'I' for Inactive)
REMARK    1  A    between atoms: C_1  and  C_2
REMARK    2  A    between atoms: C_6  and  N_9
REMARK    3  A    between atoms: C_7  and  C_8
REMARK    4  A    between atoms: C_10  and  C_24
REMARK    5  A    between atoms: C_13  and  S_14
REMARK    6  A    between atoms: S_14  and  C_15
REMARK    7  A    between atoms: C_15  and  C_16
REMARK    8  A    between atoms: C_16  and  C_18
REMARK                            x       y       z     vdW  Elec       q    Type
REMARK                         _______ _______ _______ _____ _____    ______ ____
ROOT
ATOM      1  N   UNL     1       2.057   0.675  -0.014  0.00  0.00    -0.270 N 
ATOM      2  C   UNL     1       1.242  -0.436  -0.012  0.00  0.00    +0.169 A 
ATOM      3  N   UNL     1       0.002  -0.004   0.002  0.00  0.00    -0.128 NA
ATOM      4  N   UNL     1      -0.015   1.281   0.009  0.00  0.00    -0.122 NA
ATOM      5  C   UNL     1       1.214   1.750  -0.000  0.00  0.00    +0.197 A 
ENDROOT
BRANCH   1  11
ATOM      6  C   UNL     1       6.314   0.730   2.449  0.00  0.00    +0.044 C 
ATOM      7  C   UNL     1       5.546   0.725   1.153  0.00  0.00    -0.046 A 
ATOM      8  C   UNL     1       6.225   0.743  -0.052  0.00  0.00    +0.004 A 
ATOM      9  C   UNL     1       5.524   0.737  -1.244  0.00  0.00    +0.002 A 
ATOM     10  C   UNL     1       4.143   0.709  -1.234  0.00  0.00    +0.026 A 
ATOM     11  C   UNL     1       3.459   0.697  -0.027  0.00  0.00    +0.054 A 
ATOM     12  C   UNL     1       4.165   0.702   1.168  0.00  0.00    -0.024 A 
ATOM     13  C   UNL     1       3.426   0.684   2.482  0.00  0.00    +0.046 C 
ENDBRANCH   1  11
BRANCH   2  14
ATOM     14  C   UNL     1       1.680  -1.847  -0.023  0.00  0.00    +0.022 A 
ATOM     15  C   UNL     1       3.006  -2.192   0.268  0.00  0.00    +0.031 A 
ATOM     16  C   UNL     1       3.370  -3.522   0.251  0.00  0.00    +0.111 A 
ATOM     17  N   UNL     1       2.492  -4.461  -0.044  0.00  0.00    -0.263 NA
ATOM     18  C   UNL     1       1.234  -4.180  -0.330  0.00  0.00    +0.111 A 
ATOM     19  C   UNL     1       0.782  -2.877  -0.331  0.00  0.00    +0.031 A 
ENDBRANCH   2  14
BRANCH   5  20
ATOM     20  S   UNL     1       1.684   3.448   0.004  0.00  0.00    -0.078 S 
BRANCH  20  21
ATOM     21  C   UNL     1       0.050   4.227   0.025  0.00  0.00    +0.157 C 
BRANCH  21  22
ATOM     22  C   UNL     1       0.208   5.726   0.032  0.00  0.00    +0.173 C 
ATOM     23  O   UNL     1       1.316   6.219   0.023  0.00  0.00    -0.291 OA
BRANCH  22  24
ATOM     24  C   UNL     1      -0.982   6.591   0.048  0.00  0.00    +0.018 A 
ATOM     25  C   UNL     1      -2.261   6.026   0.052  0.00  0.00    +0.011 A 
ATOM     26  C   UNL     1      -3.372   6.844   0.073  0.00  0.00    +0.001 A 
ATOM     27  C   UNL     1      -3.222   8.220   0.079  0.00  0.00    +0.000 A 
ATOM     28  C   UNL     1      -1.960   8.786   0.070  0.00  0.00    +0.001 A 
ATOM     29  C   UNL     1      -0.839   7.982   0.054  0.00  0.00    +0.011 A 
ENDBRANCH  22  24
ENDBRANCH  21  22
ENDBRANCH  20  21
ENDBRANCH   5  20
TORSDOF 6
