REMARK  Name = ZINC01228165
REMARK  7 active torsions:
REMARK  status: ('A' for Active; 'I' for Inactive)
REMARK    1  A    between atoms: C_1  and  C_2
REMARK    2  A    between atoms: C_5  and  O_11
REMARK    3  A    between atoms: C_6  and  N_8
REMARK    4  A    between atoms: O_11  and  C_12
REMARK    5  A    between atoms: C_12  and  C_13
REMARK    6  A    between atoms: N_15  and  N_16
REMARK    7  A    between atoms: C_17  and  C_18
REMARK                            x       y       z     vdW  Elec       q    Type
REMARK                         _______ _______ _______ _____ _____    ______ ____
ROOT
ATOM      1  C   UNL     1       0.081  -6.266  -1.108  0.00  0.00    +0.270 C 
ATOM      2  O   UNL     1       0.093  -6.736   0.010  0.00  0.00    -0.270 OA
ATOM      3  N   UNL     1       0.086  -7.081  -2.182  0.00  0.00    -0.204 N 
ATOM      4  H   UNL     1       0.076  -6.705  -3.076  0.00  0.00    +0.177 HD
ENDROOT
BRANCH   3   5
ATOM      5  N   UNL     1       0.105  -8.471  -2.006  0.00  0.00    -0.188 NA
ATOM      6  C   UNL     1       0.110  -9.256  -3.040  0.00  0.00    +0.140 C 
BRANCH   6   7
ATOM      7  C   UNL     1       0.131 -10.716  -2.855  0.00  0.00    +0.020 A 
ATOM      8  C   UNL     1       0.144 -11.660  -3.835  0.00  0.00    +0.093 A 
ATOM      9  N   UNL     1       0.161 -12.903  -3.276  0.00  0.00    -0.360 N 
ATOM     10  H   UNL     1       0.173 -13.735  -3.775  0.00  0.00    +0.165 HD
ATOM     11  C   UNL     1       0.160 -12.808  -1.901  0.00  0.00    +0.047 A 
ATOM     12  C   UNL     1       0.147 -11.442  -1.573  0.00  0.00    +0.008 A 
ATOM     13  C   UNL     1       0.149 -11.044  -0.237  0.00  0.00    +0.010 A 
ATOM     14  C   UNL     1       0.166 -11.997   0.757  0.00  0.00    +0.001 A 
ATOM     15  C   UNL     1       0.182 -13.346   0.435  0.00  0.00    +0.002 A 
ATOM     16  C   UNL     1       0.172 -13.754  -0.881  0.00  0.00    +0.026 A 
ENDBRANCH   6   7
ENDBRANCH   3   5
BRANCH   1  17
ATOM     17  C   UNL     1       0.060  -4.771  -1.298  0.00  0.00    +0.326 C 
BRANCH  17  18
ATOM     18  O   UNL     1       0.058  -4.129  -0.021  0.00  0.00    -0.480 OA
BRANCH  18  23
ATOM     19  C   UNL     1      -0.018   1.503   0.010  0.00  0.00    +0.044 C 
ATOM     20  C   UNL     1       0.002  -0.004   0.002  0.00  0.00    -0.048 A 
ATOM     21  C   UNL     1       0.006  -0.688  -1.200  0.00  0.00    +0.007 A 
ATOM     22  C   UNL     1       0.025  -2.069  -1.210  0.00  0.00    +0.048 A 
ATOM     23  C   UNL     1       0.040  -2.770  -0.013  0.00  0.00    +0.151 A 
ATOM     24  C   UNL     1       0.037  -2.082   1.191  0.00  0.00    +0.168 A 
ATOM     25  C   UNL     1       0.023  -0.701   1.196  0.00  0.00    +0.039 A 
BRANCH  24  26
ATOM     26  N   UNL     1       0.053  -2.827   2.470  0.00  0.00    +0.060 N 
ATOM     27  O   UNL     1       0.050  -2.227   3.519  0.00  0.00    -0.126 OA
ATOM     28  O   UNL     1       0.069  -4.036   2.465  0.00  0.00    -0.126 OA
ENDBRANCH  24  26
ENDBRANCH  18  23
ENDBRANCH  17  18
ENDBRANCH   1  17
TORSDOF 6
