REMARK  Name = ZINC12499593
REMARK  11 active torsions:
REMARK  status: ('A' for Active; 'I' for Inactive)
REMARK    1  A    between atoms: C_1  and  C_2
REMARK    2  A    between atoms: C_5  and  C_32
REMARK    3  A    between atoms: C_6  and  O_8
REMARK    4  A    between atoms: O_8  and  C_9
REMARK    5  A    between atoms: C_9  and  C_10
REMARK    6  A    between atoms: N_12  and  C_13
REMARK    7  A    between atoms: C_13  and  N_15
REMARK    8  A    between atoms: N_15  and  C_16
REMARK    9  A    between atoms: C_19  and  S_22
REMARK   10  A    between atoms: S_22  and  N_25
REMARK   11  A    between atoms: C_28  and  C_31
REMARK                            x       y       z     vdW  Elec       q    Type
REMARK                         _______ _______ _______ _____ _____    ______ ____
ROOT
ATOM      1  N   UNL     1       5.160   9.100   0.003  0.00  0.00    -0.297 N 
ATOM      2  H   UNL     1       4.382   9.636   0.222  0.00  0.00    +0.154 HD
ENDROOT
BRANCH   1   3
ATOM      3  C   UNL     1       6.441   9.654   0.100  0.00  0.00    +0.033 A 
ATOM      4  C   UNL     1       6.791  10.406   1.214  0.00  0.00    +0.025 A 
ATOM      5  C   UNL     1       8.058  10.947   1.309  0.00  0.00    +0.030 A 
ATOM      6  C   UNL     1       8.974  10.750   0.292  0.00  0.00    +0.109 A 
ATOM      7  C   UNL     1       8.626  10.007  -0.821  0.00  0.00    +0.030 A 
ATOM      8  C   UNL     1       7.362   9.458  -0.920  0.00  0.00    +0.025 A 
BRANCH   6   9
ATOM      9  S   UNL     1      10.587  11.448   0.413  0.00  0.00    +0.074 S 
ATOM     10  O   UNL     1      10.843  11.640   1.798  0.00  0.00    -0.150 OA
ATOM     11  O   UNL     1      11.433  10.664  -0.416  0.00  0.00    -0.150 OA
BRANCH   9  12
ATOM     12  N   UNL     1      10.521  12.956  -0.269  0.00  0.00    -0.197 N 
ATOM     13  C   UNL     1       9.740  13.949   0.313  0.00  0.00    +0.181 A 
ATOM     14  C   UNL     1       9.577  15.284  -0.146  0.00  0.00    +0.092 A 
ATOM     15  C   UNL     1       8.732  15.836   0.753  0.00  0.00    +0.136 A 
ATOM     16  O   UNL     1       8.444  14.880   1.648  0.00  0.00    -0.358 OA
ATOM     17  N   UNL     1       9.005  13.840   1.388  0.00  0.00    -0.062 NA
ATOM     18  C   UNL     1       8.213  17.252   0.750  0.00  0.00    +0.089 C 
ATOM     19  H   UNL     1      11.027  13.146  -1.075  0.00  0.00    +0.175 HD
ENDBRANCH   9  12
ENDBRANCH   6   9
ENDBRANCH   1   3
BRANCH   1  20
ATOM     20  C   UNL     1       5.007   7.821  -0.394  0.00  0.00    +0.141 C 
ATOM     21  S   UNL     1       6.370   6.909  -0.884  0.00  0.00    -0.018 S 
BRANCH  20  24
ATOM     22  C   UNL     1       3.628   5.982  -0.803  0.00  0.00    +0.256 C 
ATOM     23  O   UNL     1       4.594   5.336  -1.150  0.00  0.00    -0.272 OA
ATOM     24  N   UNL     1       3.781   7.261  -0.406  0.00  0.00    -0.265 N 
ATOM     25  H   UNL     1       3.009   7.778  -0.128  0.00  0.00    +0.157 HD
BRANCH  22  26
ATOM     26  C   UNL     1       2.258   5.356  -0.816  0.00  0.00    +0.325 C 
BRANCH  26  27
ATOM     27  O   UNL     1       2.356   4.005  -1.272  0.00  0.00    -0.482 OA
BRANCH  27  33
ATOM     28  C   UNL     1      -2.482   3.795  -0.662  0.00  0.00    +0.044 C 
ATOM     29  C   UNL     1      -1.175   3.156  -1.054  0.00  0.00    -0.047 A 
ATOM     30  C   UNL     1      -1.151   1.844  -1.493  0.00  0.00    +0.004 A 
ATOM     31  C   UNL     1       0.047   1.254  -1.849  0.00  0.00    +0.007 A 
ATOM     32  C   UNL     1       1.222   1.976  -1.777  0.00  0.00    -0.009 A 
ATOM     33  C   UNL     1       1.201   3.293  -1.343  0.00  0.00    +0.124 A 
ATOM     34  C   UNL     1      -0.003   3.882  -0.981  0.00  0.00    +0.049 A 
ATOM     35  C   UNL     1       2.527   1.333  -2.171  0.00  0.00    +0.047 C 
ENDBRANCH  27  33
ENDBRANCH  26  27
ENDBRANCH  22  26
ENDBRANCH  20  24
ENDBRANCH   1  20
TORSDOF 8
