REMARK  Name = ZINC15015654
REMARK  6 active torsions:
REMARK  status: ('A' for Active; 'I' for Inactive)
REMARK    1  A    between atoms: C_1  and  C_2
REMARK    2  A    between atoms: C_2  and  O_3
REMARK    3  A    between atoms: O_3  and  C_4
REMARK    4  A    between atoms: C_6  and  C_12
REMARK    5  A    between atoms: C_9  and  O_10
REMARK    6  A    between atoms: N_18  and  C_19
REMARK                            x       y       z     vdW  Elec       q    Type
REMARK                         _______ _______ _______ _____ _____    ______ ____
ROOT
ATOM      1  C   UNL     1      -0.198  -4.957  -0.500  0.00  0.00    +0.028 C 
ATOM      2  C   UNL     1       0.001  -6.296  -0.403  0.00  0.00    +0.078 C 
ATOM      3  C   UNL     1      -0.382  -7.370  -1.341  0.00  0.00    +0.256 C 
ATOM      4  O   UNL     1      -0.964  -7.127  -2.382  0.00  0.00    -0.269 OA
ATOM      5  N   UNL     1      -0.064  -8.607  -0.999  0.00  0.00    -0.260 N 
ATOM      6  C   UNL     1       0.595  -8.860   0.185  0.00  0.00    +0.166 C 
ATOM      7  N   UNL     1       0.982 -10.018   0.672  0.00  0.00    -0.226 NA
ATOM      8  S   UNL     1       0.803  -7.233   0.890  0.00  0.00    -0.049 S 
ATOM      9  H   UNL     1      -0.297  -9.342  -1.586  0.00  0.00    +0.157 HD
ENDROOT
BRANCH   1  12
ATOM     10  C   UNL     1       0.585  -1.886   1.506  0.00  0.00    +0.164 A 
ATOM     11  C   UNL     1       0.277  -2.704   0.437  0.00  0.00    +0.057 A 
ATOM     12  C   UNL     1       0.131  -4.082   0.633  0.00  0.00    -0.019 A 
ATOM     13  C   UNL     1       0.299  -4.625   1.913  0.00  0.00    +0.032 A 
ATOM     14  C   UNL     1       0.607  -3.801   2.975  0.00  0.00    +0.087 A 
ATOM     15  C   UNL     1       0.757  -2.434   2.777  0.00  0.00    +0.177 A 
ATOM     16 CL   UNL     1       0.816  -4.474   4.561  0.00  0.00    -0.080 Cl
BRANCH  15  17
ATOM     17  O   UNL     1       1.067  -1.627   3.826  0.00  0.00    -0.502 OA
ATOM     18  H   UNL     1       0.296  -1.279   4.295  0.00  0.00    +0.292 HD
ENDBRANCH  15  17
BRANCH  10  19
ATOM     19  O   UNL     1       0.727  -0.547   1.319  0.00  0.00    -0.489 OA
BRANCH  19  21
ATOM     20  C   UNL     1       0.736   1.463  -0.023  0.00  0.00    +0.048 C 
ATOM     21  C   UNL     1       0.537  -0.054  -0.009  0.00  0.00    +0.226 C 
ENDBRANCH  19  21
ENDBRANCH  10  19
ENDBRANCH   1  12
BRANCH   7  22
ATOM     22  C   UNL     1       1.630 -10.071   1.877  0.00  0.00    +0.067 A 
ATOM     23  C   UNL     1       2.652  -9.163   2.163  0.00  0.00    +0.029 A 
ATOM     24  C   UNL     1       3.301  -9.221   3.379  0.00  0.00    +0.017 A 
ATOM     25  C   UNL     1       2.942 -10.178   4.314  0.00  0.00    +0.018 A 
ATOM     26  C   UNL     1       1.930 -11.081   4.035  0.00  0.00    +0.017 A 
ATOM     27  C   UNL     1       1.269 -11.029   2.826  0.00  0.00    +0.029 A 
ATOM     28 BR   UNL     1       3.838 -10.251   5.977  0.00  0.00    -0.050 Br
ENDBRANCH   7  22
TORSDOF 5
