REMARK  Name = ZINC20366819
REMARK  8 active torsions:
REMARK  status: ('A' for Active; 'I' for Inactive)
REMARK    1  A    between atoms: C_1  and  C_2
REMARK    2  A    between atoms: C_5  and  C_8
REMARK    3  A    between atoms: C_8  and  C_10
REMARK    4  A    between atoms: C_8  and  N_11
REMARK    5  A    between atoms: N_11  and  C_12
REMARK    6  A    between atoms: C_12  and  C_13
REMARK    7  A    between atoms: C_13  and  N_15
REMARK    8  A    between atoms: C_18  and  C_21
REMARK                            x       y       z     vdW  Elec       q    Type
REMARK                         _______ _______ _______ _____ _____    ______ ____
ROOT
ATOM      1  C   UNL     1       1.842  -6.735   2.167  0.00  0.00    +0.221 C 
ATOM      2  O   UNL     1       2.456  -5.935   2.848  0.00  0.00    -0.276 OA
ENDROOT
BRANCH   1   3
ATOM      3  N   UNL     1       2.071  -8.035   2.301  0.00  0.00    -0.158 NA
ATOM      4  C   UNL     1       2.977  -8.465   3.182  0.00  0.00    +0.163 A 
ATOM      5  N   UNL     1       3.347  -9.746   3.450  0.00  0.00    -0.335 N 
ATOM      6  C   UNL     1       4.303  -9.970   4.400  0.00  0.00    +0.056 A 
ATOM      7  C   UNL     1       4.821  -8.881   5.013  0.00  0.00    +0.074 A 
ATOM      8  S   UNL     1       3.936  -7.553   4.217  0.00  0.00    -0.060 S 
ATOM      9  H   UNL     1       2.939 -10.487   2.977  0.00  0.00    +0.168 HD
BRANCH   6  10
ATOM     10  C   UNL     1       4.752 -11.338   4.741  0.00  0.00    +0.017 A 
ATOM     11  C   UNL     1       4.671 -11.793   6.058  0.00  0.00    +0.013 A 
ATOM     12  C   UNL     1       5.090 -13.070   6.370  0.00  0.00    +0.021 A 
ATOM     13  C   UNL     1       5.590 -13.899   5.380  0.00  0.00    +0.042 A 
ATOM     14  C   UNL     1       5.673 -13.454   4.072  0.00  0.00    +0.040 A 
ATOM     15  C   UNL     1       5.251 -12.180   3.746  0.00  0.00    +0.051 A 
ATOM     16 CL   UNL     1       5.349 -11.625   2.104  0.00  0.00    -0.083 Cl
ATOM     17 CL   UNL     1       6.116 -15.504   5.782  0.00  0.00    -0.083 Cl
ENDBRANCH   6  10
ENDBRANCH   1   3
BRANCH   1  18
ATOM     18  C   UNL     1       0.819  -6.249   1.173  0.00  0.00    +0.018 C 
BRANCH  18  19
ATOM     19  N   UNL     1       0.752  -4.782   1.216  0.00  0.00    +0.389 N 
ATOM     20  H   UNL     1       1.656  -4.397   0.985  0.00  0.00    -0.084 HD
ATOM     21  H   UNL     1       0.488  -4.484   2.143  0.00  0.00    -0.084 HD
BRANCH  19  22
ATOM     22  C   UNL     1      -0.244  -4.308   0.247  0.00  0.00    -0.043 C 
ATOM     23  C   UNL     1      -1.634  -4.789   0.668  0.00  0.00    -0.009 C 
BRANCH  22  28
ATOM     24  C   UNL     1      -0.177   1.468   0.079  0.00  0.00    +0.044 C 
ATOM     25  C   UNL     1      -0.194  -0.038   0.123  0.00  0.00    -0.050 A 
ATOM     26  C   UNL     1      -0.335  -0.762  -1.047  0.00  0.00    +0.003 A 
ATOM     27  C   UNL     1      -0.350  -2.144  -1.007  0.00  0.00    +0.002 A 
ATOM     28  C   UNL     1      -0.226  -2.802   0.203  0.00  0.00    -0.062 A 
ATOM     29  C   UNL     1      -0.085  -2.078   1.372  0.00  0.00    +0.002 A 
ATOM     30  C   UNL     1      -0.064  -0.696   1.331  0.00  0.00    +0.003 A 
ENDBRANCH  22  28
ENDBRANCH  19  22
ENDBRANCH  18  19
ENDBRANCH   1  18
TORSDOF 6
