REMARK  Name = ZINC13150996
REMARK  16 active torsions:
REMARK  status: ('A' for Active; 'I' for Inactive)
REMARK    1  A    between atoms: C_1  and  C_2
REMARK    2  A    between atoms: C_2  and  C_3
REMARK    3  A    between atoms: C_3  and  C_4
REMARK    4  A    between atoms: C_3  and  C_5
REMARK    5  A    between atoms: C_3  and  N_6
REMARK    6  A    between atoms: C_7  and  C_9
REMARK    7  A    between atoms: C_9  and  C_11
REMARK    8  A    between atoms: C_9  and  N_14
REMARK    9  A    between atoms: C_11  and  C_12
REMARK   10  A    between atoms: C_11  and  C_13
REMARK   11  A    between atoms: N_14  and  C_15
REMARK   12  A    between atoms: C_15  and  C_16
REMARK   13  A    between atoms: C_22  and  C_24
REMARK   14  A    between atoms: C_24  and  N_25
REMARK   15  A    between atoms: N_25  and  S_26
REMARK   16  A    between atoms: S_26  and  C_29
REMARK                            x       y       z     vdW  Elec       q    Type
REMARK                         _______ _______ _______ _____ _____    ______ ____
ROOT
ATOM      1  N   UNL     1       2.021  -4.831   3.783  0.00  0.00    -0.286 N 
ATOM      2  C   UNL     1       1.569  -5.627   4.773  0.00  0.00    +0.232 C 
ATOM      3  O   UNL     1       0.397  -5.939   4.813  0.00  0.00    -0.274 OA
ENDROOT
BRANCH   1   4
ATOM      4  C   UNL     1       1.098  -4.344   2.756  0.00  0.00    +0.165 C 
BRANCH   4   6
ATOM      5  N   UNL     1       0.091  -2.085   2.829  0.00  0.00    -0.309 N 
ATOM      6  C   UNL     1       1.194  -2.843   2.665  0.00  0.00    +0.234 C 
ATOM      7  O   UNL     1       2.264  -2.316   2.445  0.00  0.00    -0.274 OA
ATOM      8  H   UNL     1      -0.776  -2.508   2.934  0.00  0.00    +0.149 HD
BRANCH   5   9
ATOM      9  C   UNL     1       0.202  -0.625   2.849  0.00  0.00    +0.029 C 
ATOM     10  C   UNL     1       0.789  -0.139   1.523  0.00  0.00    +0.031 C 
ATOM     11  C   UNL     1       1.117  -0.199   3.999  0.00  0.00    +0.031 C 
BRANCH   9  13
ATOM     12  C   UNL     1      -1.070   1.515   3.069  0.00  0.00    +0.006 C 
ATOM     13  C   UNL     1      -1.186  -0.011   3.047  0.00  0.00    +0.022 C 
ENDBRANCH   9  13
ENDBRANCH   5   9
ENDBRANCH   4   6
BRANCH   4  14
ATOM     14  C   UNL     1       1.466  -4.961   1.405  0.00  0.00    +0.012 C 
ATOM     15  C   UNL     1       1.334  -6.483   1.486  0.00  0.00    +0.009 C 
ATOM     16  C   UNL     1       0.524  -4.424   0.325  0.00  0.00    +0.009 C 
ENDBRANCH   4  14
ENDBRANCH   1   4
BRANCH   1  17
ATOM     17  C   UNL     1       3.436  -4.454   3.735  0.00  0.00    +0.140 C 
BRANCH  17  18
ATOM     18  C   UNL     1       3.661  -3.208   4.593  0.00  0.00    +0.136 C 
ATOM     19  C   UNL     1       5.160  -2.839   4.598  0.00  0.00    +0.035 C 
ATOM     20  C   UNL     1       5.385  -2.396   6.070  0.00  0.00    +0.031 C 
ATOM     21  C   UNL     1       4.412  -3.344   6.815  0.00  0.00    +0.160 C 
ATOM     22  O   UNL     1       3.273  -3.472   5.946  0.00  0.00    -0.375 OA
ENDBRANCH  17  18
ENDBRANCH   1  17
BRANCH   2  23
ATOM     23  C   UNL     1       2.518  -6.128   5.830  0.00  0.00    +0.201 C 
BRANCH  23  24
ATOM     24  N   UNL     1       1.788  -6.966   6.785  0.00  0.00    -0.181 NA
ATOM     25  H   UNL     1       0.819  -6.946   6.805  0.00  0.00    +0.149 HD
BRANCH  24  26
ATOM     26  S   UNL     1       2.619  -7.948   7.828  0.00  0.00    +0.059 S 
ATOM     27  O   UNL     1       1.645  -8.602   8.631  0.00  0.00    -0.153 OA
ATOM     28  O   UNL     1       3.567  -8.662   7.047  0.00  0.00    -0.153 OA
BRANCH  26  29
ATOM     29  C   UNL     1       3.540  -6.902   8.906  0.00  0.00    +0.105 A 
ATOM     30  C   UNL     1       4.822  -6.516   8.564  0.00  0.00    +0.031 A 
ATOM     31  C   UNL     1       5.546  -5.695   9.408  0.00  0.00    +0.040 A 
ATOM     32  C   UNL     1       4.985  -5.259  10.597  0.00  0.00    +0.124 A 
ATOM     33  C   UNL     1       3.701  -5.646  10.938  0.00  0.00    +0.040 A 
ATOM     34  C   UNL     1       2.977  -6.463  10.090  0.00  0.00    +0.031 A 
ATOM     35  F   UNL     1       5.692  -4.457  11.423  0.00  0.00    -0.205 F 
ENDBRANCH  26  29
ENDBRANCH  24  26
ENDBRANCH  23  24
ENDBRANCH   2  23
TORSDOF 11
