REMARK  Name = ZINC44084101
REMARK  8 active torsions:
REMARK  status: ('A' for Active; 'I' for Inactive)
REMARK    1  A    between atoms: C_1  and  C_2
REMARK    2  A    between atoms: C_2  and  C_4
REMARK    3  A    between atoms: C_2  and  N_13
REMARK    4  A    between atoms: N_16  and  C_17
REMARK    5  A    between atoms: C_21  and  N_23
REMARK    6  A    between atoms: C_24  and  C_26
REMARK    7  A    between atoms: C_26  and  C_27
REMARK    8  A    between atoms: C_26  and  C_28
REMARK                            x       y       z     vdW  Elec       q    Type
REMARK                         _______ _______ _______ _____ _____    ______ ____
ROOT
ATOM      1  N   UNL     1       0.693  -0.474  -1.226  0.00  0.00    -0.290 N 
ATOM      2  C   UNL     1       2.036  -0.580  -1.235  0.00  0.00    +0.304 C 
ATOM      3  O   UNL     1       2.678  -0.275  -0.249  0.00  0.00    -0.252 OA
ATOM      4  N   UNL     1       2.669  -1.026  -2.339  0.00  0.00    -0.269 N 
ATOM      5  H   UNL     1       0.181  -0.718  -2.013  0.00  0.00    +0.151 HD
ATOM      6  H   UNL     1       2.155  -1.333  -3.102  0.00  0.00    +0.156 HD
ENDROOT
BRANCH   4   7
ATOM      7  C   UNL     1       4.068  -1.045  -2.384  0.00  0.00    +0.037 A 
ATOM      8  C   UNL     1       4.729  -0.775  -3.576  0.00  0.00    +0.023 A 
ATOM      9  C   UNL     1       6.109  -0.794  -3.621  0.00  0.00    +0.004 A 
ATOM     10  C   UNL     1       6.837  -1.082  -2.482  0.00  0.00    +0.023 A 
ATOM     11  C   UNL     1       6.182  -1.352  -1.288  0.00  0.00    +0.035 A 
ATOM     12  C   UNL     1       4.795  -1.328  -1.237  0.00  0.00    +0.046 A 
BRANCH  11  13
ATOM     13  N   UNL     1       6.920  -1.644  -0.135  0.00  0.00    -0.285 N 
ATOM     14  C   UNL     1       8.100  -1.032   0.083  0.00  0.00    +0.220 C 
ATOM     15  O   UNL     1       8.564  -0.292  -0.760  0.00  0.00    -0.275 OA
ATOM     16  H   UNL     1       6.581  -2.286   0.508  0.00  0.00    +0.155 HD
BRANCH  14  17
ATOM     17  C   UNL     1       8.845  -1.266   1.372  0.00  0.00    +0.069 C 
ATOM     18  C   UNL     1      10.145  -0.460   1.364  0.00  0.00    +0.017 C 
ATOM     19  C   UNL     1       7.976  -0.822   2.550  0.00  0.00    +0.017 C 
ENDBRANCH  14  17
ENDBRANCH  11  13
ENDBRANCH   4   7
BRANCH   1  21
ATOM     20  C   UNL     1      -0.020   1.540  -0.035  0.00  0.00    +0.036 C 
ATOM     21  C   UNL     1       0.005   0.010  -0.026  0.00  0.00    +0.137 C 
BRANCH  21  22
ATOM     22  C   UNL     1      -1.407  -0.516  -0.010  0.00  0.00    +0.126 A 
ATOM     23  C   UNL     1      -2.051  -0.951   1.082  0.00  0.00    +0.055 A 
ATOM     24  C   UNL     1      -3.386  -1.363   0.632  0.00  0.00    +0.020 A 
ATOM     25  C   UNL     1      -4.508  -1.893   1.267  0.00  0.00    +0.011 A 
ATOM     26  C   UNL     1      -5.629  -2.177   0.537  0.00  0.00    +0.001 A 
ATOM     27  C   UNL     1      -5.656  -1.941  -0.830  0.00  0.00    +0.004 A 
ATOM     28  C   UNL     1      -4.556  -1.418  -1.475  0.00  0.00    +0.047 A 
ATOM     29  C   UNL     1      -3.407  -1.122  -0.752  0.00  0.00    +0.135 A 
ATOM     30  O   UNL     1      -2.205  -0.611  -1.088  0.00  0.00    -0.458 OA
ENDBRANCH  21  22
ENDBRANCH   1  21
TORSDOF 5
