REMARK  Name = ZINC38627216
REMARK  12 active torsions:
REMARK  status: ('A' for Active; 'I' for Inactive)
REMARK    1  A    between atoms: C_1  and  C_2
REMARK    2  A    between atoms: C_2  and  C_4
REMARK    3  A    between atoms: C_2  and  N_23
REMARK    4  A    between atoms: N_6  and  C_7
REMARK    5  A    between atoms: C_11  and  O_21
REMARK    6  A    between atoms: C_15  and  C_17
REMARK    7  A    between atoms: C_17  and  O_19
REMARK    8  A    between atoms: O_19  and  C_20
REMARK    9  A    between atoms: O_21  and  C_22
REMARK   10  A    between atoms: N_26  and  C_29
REMARK   11  A    between atoms: C_34  and  O_35
REMARK   12  A    between atoms: O_35  and  C_36
REMARK                            x       y       z     vdW  Elec       q    Type
REMARK                         _______ _______ _______ _____ _____    ______ ____
ROOT
ATOM      1  C   UNL     1      -1.954   0.332   0.588  0.00  0.00    +0.203 C 
ATOM      2  O   UNL     1      -2.022  -0.374  -0.396  0.00  0.00    -0.277 OA
ATOM      3  N   UNL     1      -3.007   0.426   1.423  0.00  0.00    -0.288 N 
ATOM      4  H   UNL     1      -2.974   1.033   2.179  0.00  0.00    +0.155 HD
ENDROOT
BRANCH   3   5
ATOM      5  C   UNL     1      -4.120  -0.331   1.205  0.00  0.00    +0.053 C 
ATOM      6  C   UNL     1      -5.221  -0.452   2.033  0.00  0.00    +0.018 A 
ATOM      7  C   UNL     1      -5.539   0.123   3.288  0.00  0.00    +0.015 A 
ATOM      8  C   UNL     1      -6.715  -0.178   3.886  0.00  0.00    +0.046 A 
ATOM      9  C   UNL     1      -7.638  -1.053   3.293  0.00  0.00    +0.122 A 
ATOM     10  C   UNL     1      -7.396  -1.641   2.089  0.00  0.00    +0.071 A 
ATOM     11  C   UNL     1      -6.187  -1.372   1.405  0.00  0.00    +0.048 A 
ATOM     12  N   UNL     1      -5.723  -1.806   0.249  0.00  0.00    -0.367 N 
ATOM     13  C   UNL     1      -4.408  -1.205   0.005  0.00  0.00    +0.234 C 
ATOM     14  H   UNL     1      -6.180  -2.421  -0.346  0.00  0.00    +0.161 HD
BRANCH  13  15
ATOM     15  C   UNL     1      -4.439  -0.371  -1.249  0.00  0.00    +0.335 C 
ATOM     16  O   UNL     1      -5.383   0.349  -1.472  0.00  0.00    -0.248 OA
BRANCH  15  17
ATOM     17  O   UNL     1      -3.418  -0.428  -2.119  0.00  0.00    -0.466 OA
ATOM     18  C   UNL     1      -3.515   0.389  -3.287  0.00  0.00    +0.280 C 
ENDBRANCH  15  17
ENDBRANCH  13  15
BRANCH   9  19
ATOM     19  O   UNL     1      -8.802  -1.322   3.937  0.00  0.00    -0.495 OA
ATOM     20  C   UNL     1      -9.008  -0.681   5.197  0.00  0.00    +0.277 C 
ENDBRANCH   9  19
ENDBRANCH   3   5
BRANCH   1  22
ATOM     21  C   UNL     1      -0.799   2.502   0.266  0.00  0.00    -0.004 C 
ATOM     22  C   UNL     1      -0.692   1.103   0.876  0.00  0.00    +0.017 C 
BRANCH  22  23
ATOM     23  N   UNL     1       0.457   0.400   0.290  0.00  0.00    +0.389 N 
ATOM     24  C   UNL     1       0.549  -0.948   0.866  0.00  0.00    -0.059 C 
ATOM     25  C   UNL     1       1.676  -1.722   0.174  0.00  0.00    +0.086 C 
ATOM     26  N   UNL     1       2.913  -0.933   0.273  0.00  0.00    -0.331 N 
ATOM     27  C   UNL     1       2.868   0.481  -0.132  0.00  0.00    +0.086 C 
ATOM     28  C   UNL     1       1.686   1.151   0.575  0.00  0.00    -0.059 C 
ATOM     29  H   UNL     1       0.332   0.328  -0.709  0.00  0.00    -0.081 HD
BRANCH  26  30
ATOM     30  C   UNL     1       4.100  -1.511   0.738  0.00  0.00    +0.072 A 
ATOM     31  C   UNL     1       4.981  -2.105  -0.154  0.00  0.00    +0.027 A 
ATOM     32  C   UNL     1       6.152  -2.675   0.309  0.00  0.00    +0.002 A 
ATOM     33  C   UNL     1       6.449  -2.654   1.659  0.00  0.00    +0.004 A 
ATOM     34  C   UNL     1       5.576  -2.064   2.554  0.00  0.00    +0.047 A 
ATOM     35  C   UNL     1       4.402  -1.486   2.098  0.00  0.00    +0.141 A 
BRANCH  35  36
ATOM     36  O   UNL     1       3.545  -0.900   2.977  0.00  0.00    -0.493 OA
ATOM     37  C   UNL     1       3.920  -0.912   4.355  0.00  0.00    +0.277 C 
ENDBRANCH  35  36
ENDBRANCH  26  30
ENDBRANCH  22  23
ENDBRANCH   1  22
TORSDOF 8
