REMARK  Name = ZINC22841734
REMARK  7 active torsions:
REMARK  status: ('A' for Active; 'I' for Inactive)
REMARK    1  A    between atoms: C_1  and  O_2
REMARK    2  A    between atoms: O_2  and  C_3
REMARK    3  A    between atoms: C_6  and  C_9
REMARK    4  A    between atoms: C_11  and  C_14
REMARK    5  A    between atoms: C_14  and  N_15
REMARK    6  A    between atoms: C_18  and  C_23
REMARK    7  A    between atoms: C_23  and  C_24
REMARK                            x       y       z     vdW  Elec       q    Type
REMARK                         _______ _______ _______ _____ _____    ______ ____
ROOT
ATOM      1  N   UNL     1      -5.254   1.718  -1.947  0.00  0.00    -0.218 N 
ATOM      2  C   UNL     1      -4.481   0.729  -1.447  0.00  0.00    +0.244 C 
ATOM      3  O   UNL     1      -4.836  -0.377  -1.098  0.00  0.00    -0.273 OA
ATOM      4  C   UNL     1      -3.074   1.292  -1.414  0.00  0.00    +0.165 C 
ATOM      5  N   UNL     1      -3.231   2.655  -1.950  0.00  0.00    -0.287 N 
ATOM      6  C   UNL     1      -4.537   2.810  -2.232  0.00  0.00    +0.310 C 
ATOM      7  O   UNL     1      -5.012   3.829  -2.693  0.00  0.00    -0.252 OA
ATOM      8  H   UNL     1      -2.354   3.313  -2.045  0.00  0.00    +0.151 HD
ENDROOT
BRANCH   1   9
ATOM      9  C   UNL     1      -6.701   1.606  -2.152  0.00  0.00    +0.176 C 
BRANCH   9  12
ATOM     10  C   UNL     1      -7.297   1.002  -5.667  0.00  0.00    +0.227 A 
ATOM     11  N   UNL     1      -7.051   1.808  -4.660  0.00  0.00    -0.212 NA
ATOM     12  C   UNL     1      -6.972   1.077  -3.537  0.00  0.00    +0.098 A 
ATOM     13  C   UNL     1      -7.184  -0.209  -3.866  0.00  0.00    +0.222 A 
ATOM     14  O   UNL     1      -7.387  -0.254  -5.198  0.00  0.00    -0.443 OA
BRANCH  10  18
ATOM     15  C   UNL     1      -7.748   2.173  -9.726  0.00  0.00    +0.120 A 
ATOM     16  C   UNL     1      -7.867   0.835  -9.374  0.00  0.00    +0.046 A 
ATOM     17  C   UNL     1      -7.721   0.451  -8.058  0.00  0.00    +0.017 A 
ATOM     18  C   UNL     1      -7.454   1.410  -7.079  0.00  0.00    +0.037 A 
ATOM     19  C   UNL     1      -7.342   2.755  -7.436  0.00  0.00    +0.017 A 
ATOM     20  C   UNL     1      -7.483   3.130  -8.755  0.00  0.00    +0.046 A 
BRANCH  15  22
ATOM     21  C   UNL     1      -7.758   3.939 -11.316  0.00  0.00    +0.277 C 
ATOM     22  O   UNL     1      -7.892   2.547 -11.024  0.00  0.00    -0.495 OA
ENDBRANCH  15  22
ENDBRANCH  10  18
ENDBRANCH   9  12
ENDBRANCH   1   9
BRANCH   4  23
ATOM     23  C   UNL     1      -2.545   1.335   0.021  0.00  0.00    +0.069 C 
BRANCH  23  24
ATOM     24  C   UNL     1      -1.122   1.831   0.017  0.00  0.00    -0.020 A 
ATOM     25  C   UNL     1      -0.013   1.076   0.008  0.00  0.00    +0.087 A 
ATOM     26  N   UNL     1       1.097   1.876   0.002  0.00  0.00    -0.360 N 
ATOM     27  H   UNL     1       2.100   1.426  -0.010  0.00  0.00    +0.165 HD
ATOM     28  C   UNL     1       0.719   3.200   0.012  0.00  0.00    +0.047 A 
ATOM     29  C   UNL     1      -0.688   3.230   0.025  0.00  0.00    +0.003 A 
ATOM     30  C   UNL     1      -1.358   4.455   0.038  0.00  0.00    +0.010 A 
ATOM     31  C   UNL     1      -0.644   5.620   0.037  0.00  0.00    +0.001 A 
ATOM     32  C   UNL     1       0.744   5.595   0.023  0.00  0.00    +0.002 A 
ATOM     33  C   UNL     1       1.426   4.398   0.011  0.00  0.00    +0.026 A 
ENDBRANCH  23  24
ENDBRANCH   4  23
TORSDOF 6
