REMARK  Name = ZINC63883948
REMARK  3 active torsions:
REMARK  status: ('A' for Active; 'I' for Inactive)
REMARK    1  A    between atoms: C_10  and  C_11
REMARK    2  A    between atoms: C_10  and  O_23
REMARK    3  A    between atoms: C_11  and  N_12
REMARK                            x       y       z     vdW  Elec       q    Type
REMARK                         _______ _______ _______ _____ _____    ______ ____
ROOT
ATOM      1  C   UNL     1      -0.019   1.526   0.010  0.00  0.00    +0.007 C 
ATOM      2  C   UNL     1       1.417   2.055  -0.000  0.00  0.00    -0.010 C 
ATOM      3  C   UNL     1       2.133   1.562  -1.259  0.00  0.00    +0.010 C 
ATOM      4  C   UNL     1       2.154   0.032  -1.268  0.00  0.00    +0.023 C 
ATOM      5  C   UNL     1       0.718  -0.497  -1.257  0.00  0.00    +0.010 C 
ATOM      6  C   UNL     1       0.002  -0.004   0.002  0.00  0.00    -0.010 C 
ATOM      7  C   UNL     1       0.742  -0.511   1.242  0.00  0.00    +0.010 C 
ATOM      8  C   UNL     1       2.178   0.019   1.231  0.00  0.00    +0.023 C 
ATOM      9  C   UNL     1       2.157   1.548   1.239  0.00  0.00    +0.010 C 
ATOM     10  C   UNL     1       2.894  -0.475  -0.028  0.00  0.00    +0.087 C 
ENDROOT
BRANCH  10  11
ATOM     11  O   UNL     1       2.913  -1.904  -0.036  0.00  0.00    -0.386 OA
ATOM     12  H   UNL     1       3.367  -2.295   0.723  0.00  0.00    +0.210 HD
ENDBRANCH  10  11
BRANCH  10  13
ATOM     13  C   UNL     1       4.329   0.055  -0.039  0.00  0.00    +0.138 C 
BRANCH  13  14
ATOM     14  N   UNL     1       5.037  -0.430   1.148  0.00  0.00    -0.328 N 
ATOM     15  C   UNL     1       6.326  -0.088   1.351  0.00  0.00    +0.129 C 
ATOM     16  N   UNL     1       6.972   0.687   0.499  0.00  0.00    -0.223 NA
ATOM     17  C   UNL     1       8.219   1.108   0.680  0.00  0.00    +0.225 C 
ATOM     18  N   UNL     1       8.822   1.060   1.862  0.00  0.00    -0.218 NA
ATOM     19  C   UNL     1       8.128   0.499   2.848  0.00  0.00    +0.164 C 
ATOM     20  N   UNL     1       8.064   0.683   4.133  0.00  0.00    -0.219 NA
ATOM     21  C   UNL     1       6.960   0.127   4.649  0.00  0.00    +0.218 C 
ATOM     22  N   UNL     1       6.302  -0.600   3.790  0.00  0.00    -0.253 NA
ATOM     23  C   UNL     1       7.081  -0.570   2.560  0.00  0.00    +0.237 C 
ATOM     24  H   UNL     1       4.580  -0.998   1.788  0.00  0.00    +0.147 HD
ENDBRANCH  13  14
ENDBRANCH  10  13
TORSDOF 3
