REMARK  Name = ZINC08895130
REMARK  6 active torsions:
REMARK  status: ('A' for Active; 'I' for Inactive)
REMARK    1  A    between atoms: C_1  and  C_2
REMARK    2  A    between atoms: C_4  and  N_26
REMARK    3  A    between atoms: C_7  and  N_8
REMARK    4  A    between atoms: N_8  and  C_9
REMARK    5  A    between atoms: C_9  and  N_11
REMARK    6  A    between atoms: C_12  and  C_14
REMARK                            x       y       z     vdW  Elec       q    Type
REMARK                         _______ _______ _______ _____ _____    ______ ____
ROOT
ATOM      1  C   UNL     1      -0.046   1.343  -0.257  0.00  0.00    +0.141 C 
ATOM      2  S   UNL     1      -1.536   2.121  -0.582  0.00  0.00    -0.018 S 
ENDROOT
BRANCH   1   3
ATOM      3  N   UNL     1       1.105   2.042  -0.311  0.00  0.00    -0.264 N 
ATOM      4  C   UNL     1       1.082   3.355  -0.616  0.00  0.00    +0.250 C 
ATOM      5  O   UNL     1       0.024   3.908  -0.841  0.00  0.00    -0.270 OA
ATOM      6  H   UNL     1       1.950   1.601  -0.132  0.00  0.00    +0.157 HD
BRANCH   4   7
ATOM      7  C   UNL     1       2.341   4.119  -0.675  0.00  0.00    +0.045 A 
ATOM      8  C   UNL     1       3.567   3.479  -0.546  0.00  0.00    +0.014 A 
ATOM      9  C   UNL     1       4.750   4.201  -0.606  0.00  0.00    +0.001 A 
ATOM     10  C   UNL     1       4.760   5.551  -0.782  0.00  0.00    +0.009 A 
ATOM     11  C   UNL     1       3.558   6.264  -0.916  0.00  0.00    -0.003 A 
ATOM     12  C   UNL     1       2.325   5.568  -0.865  0.00  0.00    -0.005 A 
ATOM     13  C   UNL     1       1.125   6.276  -0.996  0.00  0.00    +0.009 A 
ATOM     14  C   UNL     1       1.155   7.628  -1.171  0.00  0.00    +0.002 A 
ATOM     15  C   UNL     1       2.364   8.316  -1.222  0.00  0.00    +0.016 A 
ATOM     16  C   UNL     1       3.551   7.659  -1.098  0.00  0.00    +0.026 A 
ATOM     17 BR   UNL     1       5.180   8.617  -1.170  0.00  0.00    -0.050 Br
ENDBRANCH   4   7
ENDBRANCH   1   3
BRANCH   1  18
ATOM     18  N   UNL     1      -0.023   0.030   0.047  0.00  0.00    -0.296 N 
ATOM     19  H   UNL     1       0.824  -0.421   0.187  0.00  0.00    +0.154 HD
BRANCH  18  26
ATOM     20  C   UNL     1      -0.107  -2.628  -0.964  0.00  0.00    +0.046 C 
ATOM     21  C   UNL     1      -1.306  -1.983  -0.319  0.00  0.00    -0.027 A 
ATOM     22  C   UNL     1      -2.491  -2.684  -0.205  0.00  0.00    +0.039 A 
ATOM     23  C   UNL     1      -3.592  -2.093   0.386  0.00  0.00    +0.145 A 
ATOM     24  C   UNL     1      -3.511  -0.797   0.866  0.00  0.00    +0.073 A 
ATOM     25  C   UNL     1      -2.327  -0.092   0.760  0.00  0.00    +0.045 A 
ATOM     26  C   UNL     1      -1.222  -0.682   0.161  0.00  0.00    +0.037 A 
ATOM     27 CL   UNL     1      -4.897  -0.059   1.607  0.00  0.00    -0.081 Cl
BRANCH  23  28
ATOM     28  N   UNL     1      -4.860  -2.847   0.506  0.00  0.00    +0.058 N 
ATOM     29  O   UNL     1      -4.932  -3.988   0.084  0.00  0.00    -0.126 OA
ATOM     30  O   UNL     1      -5.831  -2.328   1.027  0.00  0.00    -0.126 OA
ENDBRANCH  23  28
ENDBRANCH  18  26
ENDBRANCH   1  18
TORSDOF 5
