REMARK  Name = ZINC49980419
REMARK  3 active torsions:
REMARK  status: ('A' for Active; 'I' for Inactive)
REMARK    1  A    between atoms: C_4  and  N_7
REMARK    2  A    between atoms: N_10  and  C_13
REMARK    3  A    between atoms: C_18  and  N_19
REMARK                            x       y       z     vdW  Elec       q    Type
REMARK                         _______ _______ _______ _____ _____    ______ ____
ROOT
ATOM      1  N   UNL     1       3.620  -0.649  -0.036  0.00  0.00    -0.327 N 
ATOM      2  C   UNL     1       4.886   0.088  -0.149  0.00  0.00    +0.124 C 
ATOM      3  C   UNL     1       5.786  -0.301   1.030  0.00  0.00    +0.124 C 
ATOM      4  N   UNL     1       5.827  -1.767   1.127  0.00  0.00    -0.325 N 
ATOM      5  C   UNL     1       4.560  -2.504   1.239  0.00  0.00    +0.124 C 
ATOM      6  C   UNL     1       3.660  -2.115   0.066  0.00  0.00    +0.124 C 
ENDROOT
BRANCH   4   7
ATOM      7  C   UNL     1       7.046  -2.447   1.111  0.00  0.00    +0.063 A 
ATOM      8  C   UNL     1       7.712  -2.711   2.302  0.00  0.00    +0.025 A 
ATOM      9  C   UNL     1       8.917  -3.384   2.284  0.00  0.00    +0.005 A 
ATOM     10  C   UNL     1       9.464  -3.796   1.083  0.00  0.00    +0.041 A 
ATOM     11  C   UNL     1       8.804  -3.535  -0.107  0.00  0.00    +0.155 A 
ATOM     12  C   UNL     1       7.593  -2.866  -0.095  0.00  0.00    +0.182 A 
ATOM     13  F   UNL     1       9.341  -3.939  -1.279  0.00  0.00    -0.203 F 
BRANCH  12  14
ATOM     14  N   UNL     1       6.885  -2.593  -1.365  0.00  0.00    +0.061 N 
ATOM     15  O   UNL     1       7.103  -1.569  -1.971  0.00  0.00    -0.126 OA
ATOM     16  O   UNL     1       6.088  -3.393  -1.797  0.00  0.00    -0.126 OA
ENDBRANCH  12  14
ENDBRANCH   4   7
BRANCH   1  20
ATOM     17  C   UNL     1      -0.017   1.379   0.011  0.00  0.00    +0.000 A 
ATOM     18  C   UNL     1       0.002  -0.004  -0.013  0.00  0.00    +0.002 A 
ATOM     19  C   UNL     1       1.206  -0.680  -0.030  0.00  0.00    +0.023 A 
ATOM     20  C   UNL     1       2.400   0.031  -0.021  0.00  0.00    +0.030 A 
ATOM     21  C   UNL     1       2.377   1.420   0.004  0.00  0.00    +0.023 A 
ATOM     22  C   UNL     1       1.170   2.089   0.021  0.00  0.00    +0.002 A 
ENDBRANCH   1  20
TORSDOF 3
