REMARK  Name = ZINC01037873
REMARK  8 active torsions:
REMARK  status: ('A' for Active; 'I' for Inactive)
REMARK    1  A    between atoms: C_1  and  C_2
REMARK    2  A    between atoms: C_3  and  N_9
REMARK    3  A    between atoms: N_9  and  C_10
REMARK    4  A    between atoms: C_10  and  N_12
REMARK    5  A    between atoms: N_12  and  N_13
REMARK    6  A    between atoms: C_14  and  C_16
REMARK    7  A    between atoms: C_17  and  C_27
REMARK    8  A    between atoms: N_19  and  C_21
REMARK                            x       y       z     vdW  Elec       q    Type
REMARK                         _______ _______ _______ _____ _____    ______ ____
ROOT
ATOM      1  N   UNL     1       1.187   6.201  -0.180  0.00  0.00    -0.230 N 
ATOM      2  C   UNL     1       1.177   7.546  -0.275  0.00  0.00    +0.282 C 
ATOM      3  O   UNL     1       0.120   8.142  -0.354  0.00  0.00    -0.267 OA
ATOM      4  H   UNL     1       2.030   5.726  -0.117  0.00  0.00    +0.173 HD
ENDROOT
BRANCH   2   5
ATOM      5  C   UNL     1       2.450   8.295  -0.283  0.00  0.00    +0.172 A 
ATOM      6  C   UNL     1       2.588   9.691  -0.382  0.00  0.00    +0.093 A 
ATOM      7  N   UNL     1       3.875   9.945  -0.348  0.00  0.00    -0.152 NA
ATOM      8  N   UNL     1       4.537   8.714  -0.239  0.00  0.00    -0.149 N 
ATOM      9  N   UNL     1       3.660   7.772  -0.204  0.00  0.00    -0.142 NA
ATOM     10  C   UNL     1       1.474  10.700  -0.499  0.00  0.00    +0.070 C 
BRANCH   8  11
ATOM     11  C   UNL     1       5.926   8.538  -0.178  0.00  0.00    +0.086 A 
ATOM     12  C   UNL     1       6.770   9.639  -0.231  0.00  0.00    +0.029 A 
ATOM     13  C   UNL     1       8.138   9.463  -0.164  0.00  0.00    +0.002 A 
ATOM     14  C   UNL     1       8.668   8.190  -0.057  0.00  0.00    +0.000 A 
ATOM     15  C   UNL     1       7.830   7.091  -0.011  0.00  0.00    +0.002 A 
ATOM     16  C   UNL     1       6.461   7.261  -0.071  0.00  0.00    +0.029 A 
ENDBRANCH   8  11
ENDBRANCH   2   5
BRANCH   1  17
ATOM     17  N   UNL     1      -0.021   5.491  -0.173  0.00  0.00    -0.245 N 
ATOM     18  H   UNL     1      -0.864   5.966  -0.236  0.00  0.00    +0.172 HD
BRANCH  17  19
ATOM     19  C   UNL     1      -0.011   4.146  -0.078  0.00  0.00    +0.151 C 
ATOM     20  S   UNL     1      -1.486   3.278  -0.069  0.00  0.00    -0.017 S 
BRANCH  19  21
ATOM     21  N   UNL     1       1.161   3.486   0.009  0.00  0.00    -0.296 N 
ATOM     22  H   UNL     1       1.992   3.980   0.084  0.00  0.00    +0.154 HD
BRANCH  21  25
ATOM     23  C   UNL     1       2.820   2.139   1.888  0.00  0.00    +0.047 C 
ATOM     24  C   UNL     1       1.974   1.390   0.891  0.00  0.00    -0.011 A 
ATOM     25  C   UNL     1       1.178   2.087  -0.008  0.00  0.00    +0.037 A 
ATOM     26  C   UNL     1       0.399   1.393  -0.925  0.00  0.00    +0.023 A 
ATOM     27  C   UNL     1       0.418   0.012  -0.940  0.00  0.00    +0.003 A 
ATOM     28  C   UNL     1       1.211  -0.680  -0.044  0.00  0.00    +0.020 A 
ATOM     29  C   UNL     1       1.988   0.008   0.872  0.00  0.00    +0.046 A 
ATOM     30 CL   UNL     1       2.982  -0.865   1.995  0.00  0.00    -0.083 Cl
ENDBRANCH  21  25
ENDBRANCH  19  21
ENDBRANCH  17  19
ENDBRANCH   1  17
TORSDOF 6
