REMARK  Name = ZINC36597425
REMARK  10 active torsions:
REMARK  status: ('A' for Active; 'I' for Inactive)
REMARK    1  A    between atoms: C_1  and  C_2
REMARK    2  A    between atoms: C_5  and  C_7
REMARK    3  A    between atoms: C_7  and  N_8
REMARK    4  A    between atoms: N_8  and  C_9
REMARK    5  A    between atoms: C_9  and  C_11
REMARK    6  A    between atoms: C_9  and  C_17
REMARK    7  A    between atoms: N_19  and  C_20
REMARK    8  A    between atoms: C_26  and  C_28
REMARK    9  A    between atoms: C_29  and  O_35
REMARK   10  A    between atoms: C_33  and  O_34
REMARK                            x       y       z     vdW  Elec       q    Type
REMARK                         _______ _______ _______ _____ _____    ______ ____
ROOT
ATOM      1  N   UNL     1       2.232  -3.314  -1.030  0.00  0.00    -0.278 N 
ATOM      2  C   UNL     1       1.188  -4.121  -1.306  0.00  0.00    +0.255 C 
ATOM      3  O   UNL     1       1.090  -4.633  -2.405  0.00  0.00    -0.270 OA
ENDROOT
BRANCH   2   4
ATOM      4  C   UNL     1       0.167  -4.381  -0.278  0.00  0.00    +0.119 A 
ATOM      5  C   UNL     1      -0.961  -3.554  -0.177  0.00  0.00    +0.133 A 
ATOM      6  C   UNL     1      -1.916  -3.809   0.794  0.00  0.00    +0.046 A 
ATOM      7  C   UNL     1      -1.759  -4.874   1.662  0.00  0.00    +0.007 A 
ATOM      8  C   UNL     1      -0.651  -5.695   1.571  0.00  0.00    +0.046 A 
ATOM      9  C   UNL     1       0.313  -5.462   0.604  0.00  0.00    +0.133 A 
BRANCH   9  10
ATOM     10  O   UNL     1       1.397  -6.273   0.514  0.00  0.00    -0.506 OA
ATOM     11  H   UNL     1       2.148  -5.988   1.053  0.00  0.00    +0.292 HD
ENDBRANCH   9  10
BRANCH   5  12
ATOM     12  O   UNL     1      -1.117  -2.509  -1.027  0.00  0.00    -0.506 OA
ATOM     13  H   UNL     1      -1.596  -2.729  -1.838  0.00  0.00    +0.292 HD
ENDBRANCH   5  12
ENDBRANCH   2   4
BRANCH   1  14
ATOM     14  C   UNL     1       2.419  -2.796   0.327  0.00  0.00    +0.183 C 
BRANCH  14  19
ATOM     15  C   UNL     1       1.461   2.156   0.288  0.00  0.00    +0.086 C 
ATOM     16  C   UNL     1       1.275   0.669   0.452  0.00  0.00    +0.102 A 
ATOM     17  C   UNL     1       0.148   0.058   0.858  0.00  0.00    +0.045 A 
ATOM     18  C   UNL     1       0.416  -1.330   0.869  0.00  0.00    +0.046 A 
ATOM     19  C   UNL     1       1.691  -1.484   0.469  0.00  0.00    +0.122 A 
ATOM     20  O   UNL     1       2.205  -0.270   0.212  0.00  0.00    -0.463 OA
ENDBRANCH  14  19
ENDBRANCH   1  14
BRANCH   1  21
ATOM     21  C   UNL     1       3.180  -2.955  -2.088  0.00  0.00    +0.166 C 
BRANCH  21  22
ATOM     22  C   UNL     1       2.419  -2.360  -3.274  0.00  0.00    +0.019 C 
ATOM     23  C   UNL     1       3.416  -1.851  -4.317  0.00  0.00    +0.006 C 
ATOM     24  C   UNL     1       2.655  -1.256  -5.503  0.00  0.00    +0.000 C 
ATOM     25  C   UNL     1       1.786  -0.093  -5.020  0.00  0.00    +0.000 C 
ATOM     26  C   UNL     1       0.788  -0.602  -3.977  0.00  0.00    +0.000 C 
ATOM     27  C   UNL     1       1.549  -1.197  -2.791  0.00  0.00    +0.006 C 
ENDBRANCH  21  22
BRANCH  21  28
ATOM     28  C   UNL     1       3.924  -4.187  -2.536  0.00  0.00    +0.234 C 
ATOM     29  O   UNL     1       3.569  -5.282  -2.152  0.00  0.00    -0.274 OA
ATOM     30  N   UNL     1       4.982  -4.072  -3.362  0.00  0.00    -0.311 N 
ATOM     31  H   UNL     1       5.301  -3.193  -3.623  0.00  0.00    +0.149 HD
BRANCH  30  32
ATOM     32  C   UNL     1       5.652  -5.273  -3.866  0.00  0.00    +0.073 C 
ATOM     33  C   UNL     1       6.687  -5.747  -2.843  0.00  0.00    +0.022 C 
ATOM     34  C   UNL     1       7.387  -7.002  -3.369  0.00  0.00    +0.002 C 
ATOM     35  C   UNL     1       8.086  -6.679  -4.691  0.00  0.00    +0.000 C 
ATOM     36  C   UNL     1       7.051  -6.206  -5.714  0.00  0.00    +0.002 C 
ATOM     37  C   UNL     1       6.351  -4.951  -5.188  0.00  0.00    +0.022 C 
ENDBRANCH  30  32
ENDBRANCH  21  28
ENDBRANCH   1  21
TORSDOF 9
