REMARK  Name = ZINC20152680
REMARK  8 active torsions:
REMARK  status: ('A' for Active; 'I' for Inactive)
REMARK    1  A    between atoms: N_9  and  C_23
REMARK    2  A    between atoms: N_12  and  C_13
REMARK    3  A    between atoms: C_13  and  C_14
REMARK    4  A    between atoms: C_18  and  N_20
REMARK    5  A    between atoms: C_23  and  C_24
REMARK    6  A    between atoms: C_24  and  C_25
REMARK    7  A    between atoms: N_27  and  C_28
REMARK    8  A    between atoms: C_28  and  C_29
REMARK                            x       y       z     vdW  Elec       q    Type
REMARK                         _______ _______ _______ _____ _____    ______ ____
ROOT
ATOM      1  C   UNL     1      13.812  -1.260  -3.520  0.00  0.00    +0.001 A 
ATOM      2  C   UNL     1      14.006  -2.622  -3.687  0.00  0.00    +0.002 A 
ATOM      3  C   UNL     1      13.331  -3.531  -2.897  0.00  0.00    +0.027 A 
ATOM      4  C   UNL     1      12.448  -3.079  -1.928  0.00  0.00    +0.059 A 
ATOM      5  C   UNL     1      12.249  -1.698  -1.759  0.00  0.00    +0.063 A 
ATOM      6  C   UNL     1      12.938  -0.791  -2.562  0.00  0.00    +0.015 A 
ATOM      7  C   UNL     1      11.304  -1.252  -0.720  0.00  0.00    +0.264 A 
ATOM      8  O   UNL     1      11.096  -0.068  -0.533  0.00  0.00    -0.267 OA
ATOM      9  N   UNL     1      10.674  -2.191   0.018  0.00  0.00    -0.260 N 
ATOM     10  C   UNL     1      10.901  -3.499  -0.178  0.00  0.00    +0.333 A 
ATOM     11  O   UNL     1      10.311  -4.303   0.517  0.00  0.00    -0.246 OA
ATOM     12  N   UNL     1      11.749  -3.959  -1.115  0.00  0.00    -0.289 N 
ENDROOT
BRANCH  12  13
ATOM     13  C   UNL     1      11.940  -5.403  -1.274  0.00  0.00    +0.162 C 
BRANCH  13  14
ATOM     14  C   UNL     1      13.064  -5.862  -0.381  0.00  0.00    -0.025 A 
ATOM     15  C   UNL     1      14.362  -5.876  -0.855  0.00  0.00    +0.005 A 
ATOM     16  C   UNL     1      15.393  -6.293  -0.034  0.00  0.00    +0.003 A 
ATOM     17  C   UNL     1      15.125  -6.704   1.258  0.00  0.00    +0.033 A 
ATOM     18  C   UNL     1      13.826  -6.695   1.731  0.00  0.00    +0.127 A 
ATOM     19  C   UNL     1      12.795  -6.273   0.911  0.00  0.00    +0.038 A 
BRANCH  18  20
ATOM     20  N   UNL     1      13.538  -7.136   3.114  0.00  0.00    +0.056 N 
ATOM     21  O   UNL     1      12.393  -7.128   3.530  0.00  0.00    -0.126 OA
ATOM     22  O   UNL     1      14.446  -7.508   3.836  0.00  0.00    -0.126 OA
ENDBRANCH  18  20
ENDBRANCH  13  14
ENDBRANCH  12  13
BRANCH   9  23
ATOM     23  C   UNL     1       9.729  -1.774   1.058  0.00  0.00    +0.139 C 
BRANCH  23  24
ATOM     24  C   UNL     1       8.326  -1.665   0.457  0.00  0.00    +0.117 C 
BRANCH  24  25
ATOM     25  C   UNL     1       7.355  -1.236   1.526  0.00  0.00    +0.215 C 
ATOM     26  O   UNL     1       7.746  -1.037   2.657  0.00  0.00    -0.276 OA
ATOM     27  N   UNL     1       6.051  -1.073   1.226  0.00  0.00    -0.311 N 
ATOM     28  H   UNL     1       5.696  -1.253   0.201  0.00  0.00    +0.149 HD
BRANCH  27  29
ATOM     29  C   UNL     1       5.107  -0.655   2.265  0.00  0.00    +0.139 C 
BRANCH  29  30
ATOM     30  C   UNL     1       3.725  -0.548   1.674  0.00  0.00    -0.027 A 
ATOM     31  C   UNL     1       2.885  -1.646   1.677  0.00  0.00    +0.009 A 
ATOM     32  C   UNL     1       1.617  -1.553   1.135  0.00  0.00    +0.050 A 
ATOM     33  C   UNL     1       1.183  -0.356   0.589  0.00  0.00    +0.166 A 
ATOM     34  C   UNL     1       2.028   0.751   0.586  0.00  0.00    +0.167 A 
ATOM     35  C   UNL     1       3.298   0.650   1.131  0.00  0.00    +0.054 A 
ATOM     36  O   UNL     1       1.376   1.797  -0.001  0.00  0.00    -0.453 OA
ATOM     37  C   UNL     1      -0.018   1.436   0.010  0.00  0.00    +0.466 C 
ATOM     38  O   UNL     1       0.002  -0.004   0.002  0.00  0.00    -0.453 OA
ENDBRANCH  29  30
ENDBRANCH  27  29
ENDBRANCH  24  25
ENDBRANCH  23  24
ENDBRANCH   9  23
TORSDOF 8
