REMARK  Name = ZINC36316201
REMARK  17 active torsions:
REMARK  status: ('A' for Active; 'I' for Inactive)
REMARK    1  A    between atoms: C_1  and  C_2
REMARK    2  A    between atoms: C_2  and  C_3
REMARK    3  A    between atoms: C_2  and  C_4
REMARK    4  A    between atoms: C_4  and  O_5
REMARK    5  A    between atoms: O_5  and  C_6
REMARK    6  A    between atoms: C_6  and  C_7
REMARK    7  A    between atoms: C_7  and  C_9
REMARK    8  A    between atoms: C_7  and  O_38
REMARK    9  A    between atoms: C_9  and  N_10
REMARK   10  A    between atoms: N_10  and  C_11
REMARK   11  A    between atoms: N_10  and  C_18
REMARK   12  A    between atoms: C_11  and  C_12
REMARK   13  A    between atoms: C_18  and  C_19
REMARK   14  A    between atoms: C_20  and  C_32
REMARK   15  A    between atoms: N_22  and  C_31
REMARK   16  A    between atoms: C_23  and  O_24
REMARK   17  A    between atoms: O_24  and  C_25
REMARK                            x       y       z     vdW  Elec       q    Type
REMARK                         _______ _______ _______ _____ _____    ______ ____
ROOT
ATOM      1  C   UNL     1       7.501   0.096  -4.074  0.00  0.00    -0.035 C 
ENDROOT
BRANCH   1   2
ATOM      2  C   UNL     1       8.745   0.911  -4.315  0.00  0.00    +0.025 A 
ATOM      3  C   UNL     1       8.806   2.160  -4.963  0.00  0.00    +0.098 A 
ATOM      4  N   UNL     1      10.062   2.551  -4.980  0.00  0.00    -0.168 NA
ATOM      5  N   UNL     1      10.837   1.570  -4.347  0.00  0.00    -0.235 N 
ATOM      6  C   UNL     1      10.006   0.575  -3.942  0.00  0.00    +0.221 A 
ATOM      7  C   UNL     1      12.288   1.613  -4.152  0.00  0.00    +0.176 C 
BRANCH   3   8
ATOM      8  C   UNL     1       7.654   2.905  -5.529  0.00  0.00    +0.002 A 
ATOM      9  C   UNL     1       7.547   4.280  -5.335  0.00  0.00    +0.010 A 
ATOM     10  C   UNL     1       6.474   4.968  -5.863  0.00  0.00    +0.001 A 
ATOM     11  C   UNL     1       5.505   4.294  -6.585  0.00  0.00    +0.000 A 
ATOM     12  C   UNL     1       5.605   2.929  -6.780  0.00  0.00    +0.001 A 
ATOM     13  C   UNL     1       6.678   2.232  -6.261  0.00  0.00    +0.010 A 
ENDBRANCH   3   8
BRANCH   6  14
ATOM     14  O   UNL     1      10.372  -0.554  -3.284  0.00  0.00    -0.438 OA
BRANCH  14  15
ATOM     15  C   UNL     1      10.788  -1.617  -4.023  0.00  0.00    +0.130 A 
ATOM     16  C   UNL     1      10.933  -1.493  -5.397  0.00  0.00    +0.046 A 
ATOM     17  C   UNL     1      11.356  -2.574  -6.146  0.00  0.00    +0.004 A 
ATOM     18  C   UNL     1      11.635  -3.779  -5.527  0.00  0.00    +0.000 A 
ATOM     19  C   UNL     1      11.490  -3.905  -4.157  0.00  0.00    +0.004 A 
ATOM     20  C   UNL     1      11.073  -2.825  -3.403  0.00  0.00    +0.046 A 
ENDBRANCH  14  15
ENDBRANCH   6  14
ENDBRANCH   1   2
BRANCH   1  21
ATOM     21  N   UNL     1       7.005   0.351  -2.715  0.00  0.00    +0.387 N 
ATOM     22  H   UNL     1       7.740   0.169  -2.048  0.00  0.00    -0.081 HD
BRANCH  21  23
ATOM     23  C   UNL     1       5.864  -0.531  -2.436  0.00  0.00    -0.044 C 
BRANCH  23  24
ATOM     24  C   UNL     1       5.615  -0.584  -0.928  0.00  0.00    +0.124 C 
BRANCH  24  25
ATOM     25  O   UNL     1       6.804  -1.017  -0.264  0.00  0.00    -0.391 OA
ATOM     26  H   UNL     1       7.108  -1.895  -0.534  0.00  0.00    +0.210 HD
ENDBRANCH  24  25
BRANCH  24  27
ATOM     27  C   UNL     1       4.480  -1.566  -0.631  0.00  0.00    +0.189 C 
BRANCH  27  28
ATOM     28  O   UNL     1       4.170  -1.529   0.763  0.00  0.00    -0.377 OA
BRANCH  28  29
ATOM     29  C   UNL     1       3.116  -2.414   1.148  0.00  0.00    +0.163 C 
BRANCH  29  31
ATOM     30  C   UNL     1       2.356  -0.886   2.973  0.00  0.00    +0.009 C 
ATOM     31  C   UNL     1       2.871  -2.291   2.653  0.00  0.00    +0.009 C 
ATOM     32  C   UNL     1       1.831  -3.326   3.086  0.00  0.00    +0.009 C 
ENDBRANCH  29  31
ENDBRANCH  28  29
ENDBRANCH  27  28
ENDBRANCH  24  27
ENDBRANCH  23  24
ENDBRANCH  21  23
BRANCH  21  33
ATOM     33  C   UNL     1       6.579   1.752  -2.603  0.00  0.00    -0.042 C 
BRANCH  33  34
ATOM     34  C   UNL     1       6.262   2.068  -1.164  0.00  0.00    -0.064 A 
ATOM     35  C   UNL     1       4.980   2.443  -0.805  0.00  0.00    +0.002 A 
ATOM     36  C   UNL     1       4.689   2.732   0.515  0.00  0.00    +0.000 A 
ATOM     37  C   UNL     1       5.679   2.647   1.476  0.00  0.00    +0.000 A 
ATOM     38  C   UNL     1       6.960   2.271   1.117  0.00  0.00    +0.000 A 
ATOM     39  C   UNL     1       7.250   1.977  -0.202  0.00  0.00    +0.002 A 
ENDBRANCH  33  34
ENDBRANCH  21  33
ENDBRANCH   1  21
TORSDOF 14
