REMARK  Name = ZINC59875773
REMARK  6 active torsions:
REMARK  status: ('A' for Active; 'I' for Inactive)
REMARK    1  A    between atoms: C_1  and  C_2
REMARK    2  A    between atoms: C_2  and  C_3
REMARK    3  A    between atoms: C_2  and  C_4
REMARK    4  A    between atoms: C_4  and  C_6
REMARK    5  A    between atoms: C_4  and  N_23
REMARK    6  A    between atoms: N_8  and  C_9
REMARK                            x       y       z     vdW  Elec       q    Type
REMARK                         _______ _______ _______ _____ _____    ______ ____
ROOT
ATOM      1  C   UNL     1       0.762  -2.018   1.231  0.00  0.00    +0.238 C 
ATOM      2  O   UNL     1       1.821  -2.610   1.210  0.00  0.00    -0.273 OA
ATOM      3  N   UNL     1      -0.395  -2.707   1.241  0.00  0.00    -0.284 N 
ATOM      4  H   UNL     1      -1.240  -2.237   1.326  0.00  0.00    +0.155 HD
ENDROOT
BRANCH   3   5
ATOM      5  C   UNL     1      -0.380  -4.104   1.127  0.00  0.00    +0.037 A 
ATOM      6  C   UNL     1      -1.390  -4.755   0.432  0.00  0.00    +0.027 A 
ATOM      7  C   UNL     1      -1.376  -6.132   0.319  0.00  0.00    +0.051 A 
ATOM      8  C   UNL     1      -0.354  -6.867   0.899  0.00  0.00    +0.167 A 
ATOM      9  C   UNL     1       0.660  -6.216   1.597  0.00  0.00    +0.169 A 
ATOM     10  C   UNL     1       0.648  -4.835   1.705  0.00  0.00    +0.073 A 
ATOM     11  O   UNL     1       1.538  -7.152   2.067  0.00  0.00    -0.447 OA
ATOM     12  C   UNL     1       0.839  -8.403   1.988  0.00  0.00    +0.254 C 
ATOM     13  O   UNL     1      -0.114  -8.212   0.932  0.00  0.00    -0.448 OA
ATOM     14  C   UNL     1       1.805  -9.529   1.633  0.00  0.00    +0.093 C 
ATOM     15  C   UNL     1       1.035 -10.847   1.521  0.00  0.00    +0.008 C 
ATOM     16  C   UNL     1       0.343 -11.147   2.853  0.00  0.00    +0.000 C 
ATOM     17  C   UNL     1      -0.638 -10.020   3.185  0.00  0.00    +0.008 C 
ATOM     18  C   UNL     1       0.126  -8.698   3.302  0.00  0.00    +0.093 C 
ENDBRANCH   3   5
BRANCH   1  19
ATOM     19  C   UNL     1       0.742  -0.511   1.248  0.00  0.00    +0.161 C 
BRANCH  19  20
ATOM     20  N   UNL     1       2.116  -0.004   1.234  0.00  0.00    -0.316 N 
ATOM     21  C   UNL     1       2.396   1.244   1.748  0.00  0.00    +0.150 C 
ATOM     22  N   UNL     1       1.450   1.972   2.250  0.00  0.00    -0.113 NA
ATOM     23  S   UNL     1       2.183   3.388   2.758  0.00  0.00    +0.101 S 
ATOM     24  O   UNL     1       1.713   4.441   1.928  0.00  0.00    -0.146 OA
ATOM     25  O   UNL     1       2.122   3.422   4.177  0.00  0.00    -0.146 OA
ATOM     26  C   UNL     1       3.859   3.044   2.297  0.00  0.00    +0.123 A 
ATOM     27  C   UNL     1       3.772   1.761   1.738  0.00  0.00    +0.043 A 
ATOM     28  C   UNL     1       4.960   1.182   1.265  0.00  0.00    +0.013 A 
ATOM     29  C   UNL     1       6.152   1.864   1.362  0.00  0.00    +0.001 A 
ATOM     30  C   UNL     1       6.207   3.127   1.923  0.00  0.00    +0.002 A 
ATOM     31  C   UNL     1       5.041   3.719   2.387  0.00  0.00    +0.030 A 
ATOM     32  H   UNL     1       2.829  -0.546   0.863  0.00  0.00    +0.148 HD
ENDBRANCH  19  20
BRANCH  19  34
ATOM     33  C   UNL     1      -0.025   1.533   0.032  0.00  0.00    +0.009 C 
ATOM     34  C   UNL     1      -0.004   0.003   0.015  0.00  0.00    +0.012 C 
ATOM     35  C   UNL     1       0.706  -0.483  -1.250  0.00  0.00    +0.009 C 
ENDBRANCH  19  34
ENDBRANCH   1  19
TORSDOF 4
