REMARK  Name = ZINC39654560
REMARK  10 active torsions:
REMARK  status: ('A' for Active; 'I' for Inactive)
REMARK    1  A    between atoms: C_1  and  C_2
REMARK    2  A    between atoms: C_2  and  C_3
REMARK    3  A    between atoms: C_6  and  C_9
REMARK    4  A    between atoms: C_9  and  C_10
REMARK    5  A    between atoms: C_10  and  N_11
REMARK    6  A    between atoms: C_12  and  C_14
REMARK    7  A    between atoms: C_25  and  C_27
REMARK    8  A    between atoms: C_27  and  O_28
REMARK    9  A    between atoms: O_28  and  C_29
REMARK   10  A    between atoms: C_39  and  C_40
REMARK                            x       y       z     vdW  Elec       q    Type
REMARK                         _______ _______ _______ _____ _____    ______ ____
ROOT
ATOM      1  C   UNL     1       5.056  -0.741  -8.911  0.00  0.00    +0.100 C 
ATOM      2  C   UNL     1       6.391  -1.423  -8.537  0.00  0.00    +0.121 C 
ATOM      3  N   UNL     1       7.327  -1.028  -9.617  0.00  0.00    -0.297 N 
ATOM      4  C   UNL     1       6.992   0.388  -9.897  0.00  0.00    +0.115 C 
ATOM      5  C   UNL     1       5.454   0.447  -9.802  0.00  0.00    -0.004 C 
ATOM      6  C   UNL     1       5.015   1.760  -9.160  0.00  0.00    -0.010 C 
ATOM      7  C   UNL     1       5.370   2.922 -10.092  0.00  0.00    -0.082 C 
ATOM      8  N   UNL     1       4.699   2.738 -11.384  0.00  0.00    +0.379 N 
ATOM      9  C   UNL     1       5.195   1.521 -12.037  0.00  0.00    -0.082 C 
ATOM     10  C   UNL     1       4.834   0.299 -11.188  0.00  0.00    -0.010 C 
ATOM     11  C   UNL     1       8.270  -1.787 -10.210  0.00  0.00    +0.253 C 
ATOM     12  O   UNL     1       8.964  -1.316 -11.086  0.00  0.00    -0.272 OA
ATOM     13  H   UNL     1       3.704   2.656 -11.237  0.00  0.00    -0.086 HD
ATOM     14  H   UNL     1       4.884   3.535 -11.975  0.00  0.00    -0.086 HD
ENDROOT
BRANCH   1  16
ATOM     15  N   UNL     1       3.006  -0.167  -7.651  0.00  0.00    -0.315 N 
ATOM     16  C   UNL     1       4.351  -0.254  -7.671  0.00  0.00    +0.218 C 
ATOM     17  O   UNL     1       4.993   0.059  -6.692  0.00  0.00    -0.275 OA
ATOM     18  H   UNL     1       2.492  -0.418  -8.435  0.00  0.00    +0.149 HD
BRANCH  15  19
ATOM     19  C   UNL     1       2.320   0.306  -6.446  0.00  0.00    +0.109 C 
BRANCH  19  20
ATOM     20  C   UNL     1       0.809   0.309  -6.687  0.00  0.00    +0.054 C 
BRANCH  20  24
ATOM     21  C   UNL     1      -1.192   1.689  -3.174  0.00  0.00    -0.048 A 
ATOM     22  C   UNL     1      -0.800   2.591  -4.146  0.00  0.00    +0.004 A 
ATOM     23  C   UNL     1      -0.152   2.145  -5.283  0.00  0.00    +0.004 A 
ATOM     24  C   UNL     1       0.104   0.796  -5.447  0.00  0.00    -0.046 A 
ATOM     25  C   UNL     1      -0.287  -0.105  -4.475  0.00  0.00    +0.004 A 
ATOM     26  C   UNL     1      -0.930   0.342  -3.337  0.00  0.00    +0.004 A 
BRANCH  21  28
ATOM     27  C   UNL     1      -0.865   2.508  -0.857  0.00  0.00    +0.009 C 
ATOM     28  C   UNL     1      -1.898   2.176  -1.935  0.00  0.00    +0.032 C 
ENDBRANCH  21  28
ENDBRANCH  20  24
ENDBRANCH  19  20
ENDBRANCH  15  19
ENDBRANCH   1  16
BRANCH  11  29
ATOM     29  C   UNL     1       8.462  -3.220  -9.785  0.00  0.00    +0.324 C 
BRANCH  29  30
ATOM     30  O   UNL     1       9.512  -3.808 -10.556  0.00  0.00    -0.479 OA
BRANCH  30  31
ATOM     31  C   UNL     1       9.815  -5.108 -10.295  0.00  0.00    +0.164 A 
ATOM     32  C   UNL     1       9.114  -5.802  -9.325  0.00  0.00    +0.049 A 
ATOM     33  C   UNL     1       9.413  -7.128  -9.050  0.00  0.00    +0.004 A 
ATOM     34  C   UNL     1      10.414  -7.774  -9.740  0.00  0.00    +0.012 A 
ATOM     35  C   UNL     1      11.133  -7.087 -10.724  0.00  0.00    +0.024 A 
ATOM     36  C   UNL     1      10.828  -5.745 -11.008  0.00  0.00    +0.181 A 
ATOM     37  O   UNL     1      11.520  -5.086 -11.963  0.00  0.00    -0.418 OA
ATOM     38  C   UNL     1      12.498  -5.685 -12.659  0.00  0.00    +0.338 A 
ATOM     39  O   UNL     1      13.096  -5.050 -13.509  0.00  0.00    -0.245 OA
ATOM     40  C   UNL     1      12.854  -7.032 -12.429  0.00  0.00    +0.096 A 
ATOM     41  C   UNL     1      12.205  -7.747 -11.476  0.00  0.00    -0.033 A 
ATOM     42  C   UNL     1      12.564  -9.187 -11.210  0.00  0.00    +0.045 C 
ENDBRANCH  30  31
ENDBRANCH  29  30
ENDBRANCH  11  29
TORSDOF 8
