REMARK  Name = ZINC33766833
REMARK  17 active torsions:
REMARK  status: ('A' for Active; 'I' for Inactive)
REMARK    1  A    between atoms: C_1  and  C_2
REMARK    2  A    between atoms: C_2  and  C_42
REMARK    3  A    between atoms: C_7  and  C_11
REMARK    4  A    between atoms: C_11  and  O_12
REMARK    5  A    between atoms: O_12  and  C_13
REMARK    6  A    between atoms: C_13  and  C_14
REMARK    7  A    between atoms: C_14  and  C_16
REMARK    8  A    between atoms: C_14  and  O_41
REMARK    9  A    between atoms: C_16  and  N_17
REMARK   10  A    between atoms: N_17  and  C_18
REMARK   11  A    between atoms: C_18  and  C_19
REMARK   12  A    between atoms: C_19  and  C_21
REMARK   13  A    between atoms: C_19  and  C_31
REMARK   14  A    between atoms: C_25  and  O_29
REMARK   15  A    between atoms: C_26  and  O_27
REMARK   16  A    between atoms: O_27  and  C_28
REMARK   17  A    between atoms: O_29  and  C_30
REMARK                            x       y       z     vdW  Elec       q    Type
REMARK                         _______ _______ _______ _____ _____    ______ ____
ROOT
ATOM      1  C   UNL     1       3.676   3.969  -0.012  0.00  0.00    +0.038 C 
ENDROOT
BRANCH   1   2
ATOM      2  C   UNL     1       2.186   4.197   0.004  0.00  0.00    -0.017 A 
ATOM      3  C   UNL     1       1.560   5.385   0.016  0.00  0.00    +0.087 A 
ATOM      4  N   UNL     1       0.205   5.198   0.028  0.00  0.00    -0.360 N 
ATOM      5  H   UNL     1      -0.470   6.067   0.039  0.00  0.00    +0.165 HD
ATOM      6  C   UNL     1      -0.082   3.852   0.024  0.00  0.00    +0.047 A 
ATOM      7  C   UNL     1       1.147   3.166   0.008  0.00  0.00    +0.003 A 
ATOM      8  C   UNL     1       1.165   1.770   0.000  0.00  0.00    +0.010 A 
ATOM      9  C   UNL     1      -0.013   1.076   0.008  0.00  0.00    +0.001 A 
ATOM     10  C   UNL     1      -1.227   1.748   0.017  0.00  0.00    +0.002 A 
ATOM     11  C   UNL     1      -1.268   3.125   0.031  0.00  0.00    +0.026 A 
ENDBRANCH   1   2
BRANCH   1  12
ATOM     12  C   UNL     1       4.292   4.588   1.216  0.00  0.00    +0.004 A 
ATOM     13  C   UNL     1       4.169   5.947   1.441  0.00  0.00    +0.008 A 
ATOM     14  C   UNL     1       4.729   6.518   2.568  0.00  0.00    +0.004 A 
ATOM     15  C   UNL     1       5.423   5.733   3.471  0.00  0.00    +0.049 A 
ATOM     16  C   UNL     1       5.554   4.372   3.249  0.00  0.00    +0.162 A 
ATOM     17  C   UNL     1       4.986   3.797   2.116  0.00  0.00    +0.165 A 
BRANCH  17  18
ATOM     18  O   UNL     1       5.112   2.462   1.894  0.00  0.00    -0.491 OA
ATOM     19  C   UNL     1       6.250   2.034   1.142  0.00  0.00    +0.277 C 
ENDBRANCH  17  18
BRANCH  16  20
ATOM     20  O   UNL     1       6.236   3.600   4.137  0.00  0.00    -0.491 OA
ATOM     21  C   UNL     1       6.793   4.258   5.277  0.00  0.00    +0.277 C 
ENDBRANCH  16  20
ENDBRANCH   1  12
BRANCH   1  22
ATOM     22  C   UNL     1       4.277   4.612  -1.264  0.00  0.00    -0.069 C 
BRANCH  22  23
ATOM     23  N   UNL     1       3.766   3.928  -2.459  0.00  0.00    +0.381 N 
ATOM     24  H   UNL     1       2.670   4.016  -2.475  0.00  0.00    -0.086 HD
ATOM     25  H   UNL     1       4.047   2.865  -2.405  0.00  0.00    -0.086 HD
BRANCH  23  26
ATOM     26  C   UNL     1       4.323   4.519  -3.683  0.00  0.00    -0.049 C 
BRANCH  26  27
ATOM     27  C   UNL     1       3.769   3.782  -4.904  0.00  0.00    +0.123 C 
BRANCH  27  28
ATOM     28  O   UNL     1       2.359   3.995  -4.989  0.00  0.00    -0.391 OA
ATOM     29  H   UNL     1       1.703   3.675  -4.165  0.00  0.00    +0.210 HD
ENDBRANCH  27  28
BRANCH  27  30
ATOM     30  C   UNL     1       4.443   4.314  -6.170  0.00  0.00    +0.189 C 
BRANCH  30  31
ATOM     31  O   UNL     1       4.013   3.548  -7.297  0.00  0.00    -0.373 OA
BRANCH  31  32
ATOM     32  C   UNL     1       4.586   3.966  -8.537  0.00  0.00    +0.190 C 
BRANCH  32  38
ATOM     33  C   UNL     1       5.567   0.944 -10.702  0.00  0.00    +0.012 C 
ATOM     34  C   UNL     1       4.916   1.909 -11.695  0.00  0.00    -0.025 C 
ATOM     35  C   UNL     1       3.401   1.704 -11.861  0.00  0.00    -0.000 C 
ATOM     36  C   UNL     1       2.711   1.275 -10.559  0.00  0.00    +0.031 C 
ATOM     37  C   UNL     1       3.215   2.121  -9.414  0.00  0.00    -0.025 C 
ATOM     38  C   UNL     1       4.066   3.093  -9.650  0.00  0.00    -0.045 C 
ATOM     39  C   UNL     1       4.499   3.308 -11.090  0.00  0.00    +0.023 C 
ATOM     40  C   UNL     1       3.306   3.232 -12.054  0.00  0.00    +0.013 C 
ATOM     41  C   UNL     1       5.676   2.013 -13.018  0.00  0.00    +0.012 C 
ENDBRANCH  32  38
ENDBRANCH  31  32
ENDBRANCH  30  31
ENDBRANCH  27  30
ENDBRANCH  26  27
ENDBRANCH  23  26
ENDBRANCH  22  23
ENDBRANCH   1  22
TORSDOF 13
