REMARK  Name = ZINC05516988
REMARK  4 active torsions:
REMARK  status: ('A' for Active; 'I' for Inactive)
REMARK    1  A    between atoms: C_1  and  C_2
REMARK    2  A    between atoms: C_2  and  C_16
REMARK    3  A    between atoms: N_3  and  N_4
REMARK    4  A    between atoms: C_5  and  C_7
REMARK                            x       y       z     vdW  Elec       q    Type
REMARK                         _______ _______ _______ _____ _____    ______ ____
ROOT
ATOM      1  N   UNL     1       5.489  -1.831   2.796  0.00  0.00    -0.203 N 
ATOM      2  C   UNL     1       5.076  -0.664   2.264  0.00  0.00    +0.263 C 
ATOM      3  O   UNL     1       5.818   0.300   2.264  0.00  0.00    -0.268 OA
ATOM      4  H   UNL     1       4.898  -2.600   2.796  0.00  0.00    +0.178 HD
ENDROOT
BRANCH   2   5
ATOM      5  C   UNL     1       3.724  -0.555   1.683  0.00  0.00    +0.042 A 
ATOM      6  C   UNL     1       2.871  -1.662   1.682  0.00  0.00    +0.017 A 
ATOM      7  C   UNL     1       1.609  -1.558   1.138  0.00  0.00    +0.050 A 
ATOM      8  C   UNL     1       1.181  -0.356   0.590  0.00  0.00    +0.166 A 
ATOM      9  C   UNL     1       2.028   0.752   0.588  0.00  0.00    +0.167 A 
ATOM     10  C   UNL     1       3.294   0.655   1.131  0.00  0.00    +0.062 A 
ATOM     11  O   UNL     1       1.376   1.797  -0.001  0.00  0.00    -0.453 OA
ATOM     12  C   UNL     1      -0.017   1.435   0.010  0.00  0.00    +0.466 C 
ATOM     13  O   UNL     1       0.002  -0.004   0.002  0.00  0.00    -0.453 OA
ENDBRANCH   2   5
BRANCH   1  16
ATOM     14  C   UNL     1       6.252  -4.254   3.861  0.00  0.00    +0.068 C 
ATOM     15  C   UNL     1       7.170  -3.060   3.861  0.00  0.00    +0.065 C 
ATOM     16  N   UNL     1       6.772  -1.935   3.349  0.00  0.00    -0.184 NA
BRANCH  15  17
ATOM     17  C   UNL     1       8.520  -3.168   4.441  0.00  0.00    +0.024 A 
ATOM     18  C   UNL     1       8.986  -4.401   5.021  0.00  0.00    +0.039 A 
ATOM     19  C   UNL     1      10.236  -4.433   5.531  0.00  0.00    +0.080 A 
ATOM     20  S   UNL     1      10.822  -2.773   5.252  0.00  0.00    -0.065 S 
ATOM     21  C   UNL     1       9.376  -2.098   4.455  0.00  0.00    +0.088 A 
ATOM     22 CL   UNL     1       9.118  -0.491   3.851  0.00  0.00    -0.075 Cl
ATOM     23 CL   UNL     1      11.065  -5.762   6.280  0.00  0.00    -0.076 Cl
ENDBRANCH  15  17
ENDBRANCH   1  16
TORSDOF 3
