REMARK  Name = ZINC36500825
REMARK  16 active torsions:
REMARK  status: ('A' for Active; 'I' for Inactive)
REMARK    1  A    between atoms: C_1  and  C_2
REMARK    2  A    between atoms: C_2  and  C_3
REMARK    3  A    between atoms: C_2  and  C_4
REMARK    4  A    between atoms: C_2  and  C_5
REMARK    5  A    between atoms: C_5  and  C_6
REMARK    6  A    between atoms: C_6  and  C_7
REMARK    7  A    between atoms: C_6  and  C_8
REMARK    8  A    between atoms: C_6  and  N_9
REMARK    9  A    between atoms: C_10  and  C_12
REMARK   10  A    between atoms: C_12  and  C_14
REMARK   11  A    between atoms: C_12  and  N_19
REMARK   12  A    between atoms: N_19  and  C_20
REMARK   13  A    between atoms: C_20  and  C_21
REMARK   14  A    between atoms: C_26  and  C_28
REMARK   15  A    between atoms: C_32  and  O_35
REMARK   16  A    between atoms: C_33  and  O_34
REMARK                            x       y       z     vdW  Elec       q    Type
REMARK                         _______ _______ _______ _____ _____    ______ ____
ROOT
ATOM      1  N   UNL     1       5.675   1.327  -4.993  0.00  0.00    -0.272 N 
ATOM      2  C   UNL     1       5.514   2.589  -5.438  0.00  0.00    +0.252 C 
ATOM      3  O   UNL     1       4.420   3.117  -5.385  0.00  0.00    -0.270 OA
ENDROOT
BRANCH   2   4
ATOM      4  C   UNL     1       6.665   3.330  -5.988  0.00  0.00    +0.082 A 
ATOM      5  C   UNL     1       7.967   2.871  -5.767  0.00  0.00    +0.017 A 
ATOM      6  C   UNL     1       9.039   3.564  -6.283  0.00  0.00    +0.005 A 
ATOM      7  C   UNL     1       8.835   4.718  -7.022  0.00  0.00    +0.049 A 
ATOM      8  C   UNL     1       7.553   5.186  -7.250  0.00  0.00    +0.159 A 
ATOM      9  C   UNL     1       6.459   4.492  -6.740  0.00  0.00    +0.171 A 
BRANCH   9  10
ATOM     10  O   UNL     1       5.199   4.944  -6.966  0.00  0.00    -0.503 OA
ATOM     11  H   UNL     1       4.875   5.559  -6.293  0.00  0.00    +0.292 HD
ENDBRANCH   9  10
BRANCH   8  12
ATOM     12  O   UNL     1       7.361   6.319  -7.976  0.00  0.00    -0.503 OA
ATOM     13  H   UNL     1       7.261   6.166  -8.926  0.00  0.00    +0.292 HD
ENDBRANCH   8  12
ENDBRANCH   2   4
BRANCH   1  14
ATOM     14  C   UNL     1       4.511   0.545  -4.569  0.00  0.00    +0.229 C 
BRANCH  14  15
ATOM     15  C   UNL     1       4.513  -0.784  -5.279  0.00  0.00    +0.134 A 
ATOM     16  C   UNL     1       3.451  -1.365  -5.865  0.00  0.00    +0.047 A 
ATOM     17  C   UNL     1       3.901  -2.593  -6.403  0.00  0.00    +0.041 A 
ATOM     18  C   UNL     1       5.211  -2.689  -6.114  0.00  0.00    +0.195 A 
ATOM     19  O   UNL     1       5.578  -1.588  -5.438  0.00  0.00    -0.465 OA
ENDBRANCH  14  15
BRANCH  14  21
ATOM     20  N   UNL     1       3.598  -0.379  -2.464  0.00  0.00    -0.308 N 
ATOM     21  C   UNL     1       4.571   0.320  -3.080  0.00  0.00    +0.242 C 
ATOM     22  O   UNL     1       5.496   0.769  -2.437  0.00  0.00    -0.273 OA
ATOM     23  H   UNL     1       2.858  -0.738  -2.979  0.00  0.00    +0.149 HD
BRANCH  20  24
ATOM     24  C   UNL     1       3.657  -0.598  -1.017  0.00  0.00    +0.030 C 
ATOM     25  C   UNL     1       3.977   0.723  -0.314  0.00  0.00    +0.031 C 
ATOM     26  C   UNL     1       4.748  -1.622  -0.700  0.00  0.00    +0.031 C 
BRANCH  24  27
ATOM     27  C   UNL     1       2.306  -1.122  -0.525  0.00  0.00    +0.031 C 
BRANCH  27  29
ATOM     28  C   UNL     1       0.900  -0.951  -2.584  0.00  0.00    +0.010 C 
ATOM     29  C   UNL     1       1.178  -0.345  -1.206  0.00  0.00    -0.036 C 
ATOM     30  C   UNL     1       1.593   1.119  -1.368  0.00  0.00    +0.010 C 
ATOM     31  C   UNL     1      -0.087  -0.425  -0.349  0.00  0.00    +0.010 C 
ENDBRANCH  27  29
ENDBRANCH  24  27
ENDBRANCH  20  24
ENDBRANCH  14  21
ENDBRANCH   1  14
BRANCH   1  32
ATOM     32  C   UNL     1       7.015   0.737  -4.933  0.00  0.00    +0.183 C 
BRANCH  32  33
ATOM     33  C   UNL     1       7.761   1.305  -3.754  0.00  0.00    +0.122 A 
ATOM     34  C   UNL     1       7.650   0.891  -2.479  0.00  0.00    +0.046 A 
ATOM     35  C   UNL     1       8.523   1.694  -1.710  0.00  0.00    +0.041 A 
ATOM     36  C   UNL     1       9.117   2.550  -2.561  0.00  0.00    +0.195 A 
ATOM     37  O   UNL     1       8.656   2.306  -3.798  0.00  0.00    -0.466 OA
ENDBRANCH  32  33
ENDBRANCH   1  32
TORSDOF 11
