REMARK  Name = ZINC12249973
REMARK  9 active torsions:
REMARK  status: ('A' for Active; 'I' for Inactive)
REMARK    1  A    between atoms: C_1  and  C_2
REMARK    2  A    between atoms: C_5  and  C_8
REMARK    3  A    between atoms: C_10  and  C_29
REMARK    4  A    between atoms: C_14  and  N_28
REMARK    5  A    between atoms: C_15  and  C_17
REMARK    6  A    between atoms: N_19  and  C_20
REMARK    7  A    between atoms: C_23  and  C_27
REMARK    8  A    between atoms: C_25  and  C_26
REMARK    9  A    between atoms: C_32  and  C_35
REMARK                            x       y       z     vdW  Elec       q    Type
REMARK                         _______ _______ _______ _____ _____    ______ ____
ROOT
ATOM      1  C   UNL     1       4.361   1.245  -0.037  0.00  0.00    -0.004 A 
ATOM      2  C   UNL     1       3.071   1.719   0.139  0.00  0.00    +0.037 A 
ATOM      3  C   UNL     1       2.003   0.826   0.227  0.00  0.00    +0.073 A 
ATOM      4  N   UNL     1       2.214  -0.482   0.147  0.00  0.00    -0.239 NA
ATOM      5  C   UNL     1       3.419  -0.978  -0.025  0.00  0.00    +0.112 A 
ATOM      6  C   UNL     1       4.571  -0.165  -0.127  0.00  0.00    +0.037 A 
ATOM      7  C   UNL     1       5.819  -0.883  -0.309  0.00  0.00    +0.054 A 
ATOM      8  C   UNL     1       5.781  -2.261  -0.368  0.00  0.00    +0.097 A 
ATOM      9  S   UNL     1       4.048  -2.632  -0.177  0.00  0.00    -0.062 S 
ENDROOT
BRANCH   1  14
ATOM     10  C   UNL     1       8.796   4.898  -0.403  0.00  0.00    +0.044 C 
ATOM     11  C   UNL     1       7.635   3.941  -0.307  0.00  0.00    -0.050 A 
ATOM     12  C   UNL     1       6.580   4.048  -1.195  0.00  0.00    +0.004 A 
ATOM     13  C   UNL     1       5.514   3.176  -1.112  0.00  0.00    +0.009 A 
ATOM     14  C   UNL     1       5.502   2.184  -0.131  0.00  0.00    -0.017 A 
ATOM     15  C   UNL     1       6.567   2.085   0.764  0.00  0.00    +0.009 A 
ATOM     16  C   UNL     1       7.629   2.961   0.668  0.00  0.00    +0.004 A 
ENDBRANCH   1  14
BRANCH   3  17
ATOM     17  C   UNL     1       0.625   1.341   0.416  0.00  0.00    +0.000 A 
ATOM     18  C   UNL     1      -0.447   0.454   0.504  0.00  0.00    +0.010 A 
ATOM     19  C   UNL     1      -1.728   0.939   0.674  0.00  0.00    +0.004 A 
ATOM     20  C   UNL     1      -1.947   2.301   0.769  0.00  0.00    -0.050 A 
ATOM     21  C   UNL     1      -0.887   3.186   0.683  0.00  0.00    +0.004 A 
ATOM     22  C   UNL     1       0.397   2.713   0.506  0.00  0.00    +0.010 A 
ATOM     23  C   UNL     1      -3.347   2.825   0.962  0.00  0.00    +0.044 C 
ENDBRANCH   3  17
BRANCH   8  24
ATOM     24  C   UNL     1       6.859  -3.163  -0.538  0.00  0.00    +0.257 C 
ATOM     25  O   UNL     1       7.995  -2.740  -0.655  0.00  0.00    -0.269 OA
ATOM     26  N   UNL     1       6.628  -4.491  -0.571  0.00  0.00    -0.281 N 
ATOM     27  H   UNL     1       5.717  -4.825  -0.554  0.00  0.00    +0.155 HD
BRANCH  26  28
ATOM     28  C   UNL     1       7.700  -5.386  -0.630  0.00  0.00    +0.037 A 
ATOM     29  C   UNL     1       8.870  -5.028  -1.287  0.00  0.00    +0.024 A 
ATOM     30  C   UNL     1       9.928  -5.914  -1.344  0.00  0.00    +0.005 A 
ATOM     31  C   UNL     1       9.822  -7.157  -0.746  0.00  0.00    -0.050 A 
ATOM     32  C   UNL     1       8.659  -7.517  -0.091  0.00  0.00    +0.008 A 
ATOM     33  C   UNL     1       7.599  -6.633  -0.027  0.00  0.00    -0.029 A 
ATOM     34  C   UNL     1       6.334  -7.023   0.692  0.00  0.00    +0.045 C 
ATOM     35  C   UNL     1      10.979  -8.122  -0.809  0.00  0.00    +0.044 C 
ENDBRANCH  26  28
ENDBRANCH   8  24
BRANCH   7  36
ATOM     36  N   UNL     1       7.023  -0.200  -0.423  0.00  0.00    -0.356 N 
ATOM     37  H   UNL     1       7.848  -0.619  -0.132  0.00  0.00    +0.142 HD
ATOM     38  H   UNL     1       7.039   0.697  -0.793  0.00  0.00    +0.142 HD
ENDBRANCH   7  36
TORSDOF 5
