REMARK  Name = ZINC01165778
REMARK  9 active torsions:
REMARK  status: ('A' for Active; 'I' for Inactive)
REMARK    1  A    between atoms: C_1  and  C_2
REMARK    2  A    between atoms: C_2  and  C_3
REMARK    3  A    between atoms: C_8  and  C_22
REMARK    4  A    between atoms: C_9  and  C_18
REMARK    5  A    between atoms: C_12  and  C_15
REMARK    6  A    between atoms: C_13  and  O_14
REMARK    7  A    between atoms: C_15  and  N_48
REMARK    8  A    between atoms: C_16  and  N_48
REMARK    9  A    between atoms: C_17  and  N_48
REMARK                            x       y       z     vdW  Elec       q    Type
REMARK                         _______ _______ _______ _____ _____    ______ ____
ROOT
ATOM      1  C   UNL     1       1.160   2.085   0.002  0.00  0.00    -0.005 A 
ATOM      2  C   UNL     1      -0.017   1.391   0.010  0.00  0.00    +0.022 A 
ATOM      3  C   UNL     1       0.002  -0.004   0.002  0.00  0.00    +0.065 A 
ATOM      4  C   UNL     1      -1.248  -0.786   0.009  0.00  0.00    +0.201 A 
ATOM      5  O   UNL     1      -2.340  -0.245   0.023  0.00  0.00    -0.286 OA
ATOM      6  C   UNL     1      -1.112  -2.253  -0.001  0.00  0.00    +0.076 A 
ATOM      7  C   UNL     1       0.134  -2.793  -0.016  0.00  0.00    +0.219 A 
ATOM      8  O   UNL     1       1.241  -2.046  -0.022  0.00  0.00    -0.450 OA
ATOM      9  C   UNL     1       1.224  -0.699  -0.013  0.00  0.00    +0.144 A 
ATOM     10  C   UNL     1       2.411   0.022  -0.020  0.00  0.00    +0.021 A 
ATOM     11  C   UNL     1       2.376   1.406  -0.012  0.00  0.00    +0.125 A 
ENDROOT
BRANCH   6  12
ATOM     12  C   UNL     1      -2.313  -3.123   0.004  0.00  0.00    -0.011 A 
ATOM     13  C   UNL     1      -2.594  -3.935  -1.093  0.00  0.00    +0.009 A 
ATOM     14  C   UNL     1      -3.710  -4.746  -1.080  0.00  0.00    +0.001 A 
ATOM     15  C   UNL     1      -4.556  -4.747   0.015  0.00  0.00    +0.000 A 
ATOM     16  C   UNL     1      -4.285  -3.938   1.105  0.00  0.00    +0.001 A 
ATOM     17  C   UNL     1      -3.168  -3.127   1.105  0.00  0.00    +0.009 A 
ENDBRANCH   6  12
BRANCH   7  18
ATOM     18  C   UNL     1       0.273  -4.294  -0.026  0.00  0.00    +0.451 C 
ATOM     19  F   UNL     1       0.304  -4.750  -1.348  0.00  0.00    -0.163 F 
ATOM     20  F   UNL     1       1.459  -4.657   0.621  0.00  0.00    -0.163 F 
ATOM     21  F   UNL     1      -0.816  -4.867   0.640  0.00  0.00    -0.163 F 
ENDBRANCH   7  18
BRANCH   1  23
ATOM     22  C   UNL     1       1.248   4.110  -1.425  0.00  0.00    +0.009 C 
ATOM     23  C   UNL     1       1.142   3.592   0.010  0.00  0.00    +0.035 C 
ENDBRANCH   1  23
BRANCH  11  24
ATOM     24  O   UNL     1       3.538   2.108  -0.019  0.00  0.00    -0.506 OA
ATOM     25  H   UNL     1       3.866   2.317  -0.904  0.00  0.00    +0.292 HD
ENDBRANCH  11  24
BRANCH  10  26
ATOM     26  C   UNL     1       3.734  -0.701  -0.036  0.00  0.00    -0.036 C 
BRANCH  26  29
ATOM     27  C   UNL     1       4.439   0.343  -2.104  0.00  0.00    -0.096 C 
ATOM     28  C   UNL     1       5.308  -1.831  -1.488  0.00  0.00    -0.096 C 
ATOM     29  N   UNL     1       4.129  -0.940  -1.440  0.00  0.00    +0.379 N 
ATOM     30  H   UNL     1       3.350  -1.392  -1.934  0.00  0.00    -0.082 HD
ENDBRANCH  26  29
ENDBRANCH  10  26
TORSDOF 6
