REMARK  Name = ZINC08914245
REMARK  14 active torsions:
REMARK  status: ('A' for Active; 'I' for Inactive)
REMARK    1  A    between atoms: C_1  and  C_2
REMARK    2  A    between atoms: C_5  and  C_8
REMARK    3  A    between atoms: C_11  and  C_12
REMARK    4  A    between atoms: C_11  and  O_22
REMARK    5  A    between atoms: C_15  and  O_18
REMARK    6  A    between atoms: O_18  and  C_19
REMARK    7  A    between atoms: C_19  and  C_20
REMARK    8  A    between atoms: C_19  and  C_21
REMARK    9  A    between atoms: N_27  and  C_28
REMARK   10  A    between atoms: C_28  and  C_29
REMARK   11  A    between atoms: C_29  and  C_30
REMARK   12  A    between atoms: C_30  and  N_64
REMARK   13  A    between atoms: C_31  and  N_64
REMARK   14  A    between atoms: C_32  and  N_64
REMARK                            x       y       z     vdW  Elec       q    Type
REMARK                         _______ _______ _______ _____ _____    ______ ____
ROOT
ATOM      1  C   UNL     1      -0.485   2.631  -1.220  0.00  0.00    +0.144 C 
ATOM      2  C   UNL     1       1.001   2.832  -1.029  0.00  0.00    +0.071 C 
ATOM      3  C   UNL     1       1.646   4.016  -0.728  0.00  0.00    +0.133 C 
ATOM      4  C   UNL     1       1.593   1.575  -1.218  0.00  0.00    +0.249 C 
ATOM      5  O   UNL     1       2.783   1.327  -1.146  0.00  0.00    -0.282 OA
ATOM      6  C   UNL     1       0.515   0.595  -1.522  0.00  0.00    +0.288 C 
ATOM      7  O   UNL     1       0.690  -0.587  -1.739  0.00  0.00    -0.266 OA
ATOM      8  N   UNL     1      -0.679   1.211  -1.527  0.00  0.00    -0.284 N 
ENDROOT
BRANCH   1  13
ATOM      9  C   UNL     1      -2.371   5.866  -5.621  0.00  0.00    +0.044 C 
ATOM     10  C   UNL     1      -1.879   5.022  -4.473  0.00  0.00    -0.050 A 
ATOM     11  C   UNL     1      -2.089   5.436  -3.171  0.00  0.00    +0.004 A 
ATOM     12  C   UNL     1      -1.638   4.662  -2.118  0.00  0.00    +0.006 A 
ATOM     13  C   UNL     1      -0.977   3.474  -2.368  0.00  0.00    -0.022 A 
ATOM     14  C   UNL     1      -0.762   3.063  -3.670  0.00  0.00    +0.006 A 
ATOM     15  C   UNL     1      -1.217   3.834  -4.722  0.00  0.00    +0.004 A 
ENDBRANCH   1  13
BRANCH   3  16
ATOM     16  C   UNL     1       3.088   4.015  -0.437  0.00  0.00    +0.017 A 
ATOM     17  C   UNL     1       3.610   3.137   0.520  0.00  0.00    +0.015 A 
ATOM     18  C   UNL     1       4.961   3.136   0.785  0.00  0.00    +0.046 A 
ATOM     19  C   UNL     1       5.804   4.013   0.112  0.00  0.00    +0.121 A 
ATOM     20  C   UNL     1       5.290   4.891  -0.836  0.00  0.00    +0.046 A 
ATOM     21  C   UNL     1       3.941   4.896  -1.112  0.00  0.00    +0.015 A 
BRANCH  19  22
ATOM     22  O   UNL     1       7.135   4.011   0.380  0.00  0.00    -0.489 OA
BRANCH  22  23
ATOM     23  C   UNL     1       7.926   5.018  -0.255  0.00  0.00    +0.167 C 
ATOM     24  C   UNL     1       9.188   5.271   0.571  0.00  0.00    +0.051 C 
ATOM     25  C   UNL     1       8.319   4.548  -1.657  0.00  0.00    +0.051 C 
ENDBRANCH  22  23
ENDBRANCH  19  22
ENDBRANCH   3  16
BRANCH   3  26
ATOM     26  O   UNL     1       0.953   5.175  -0.701  0.00  0.00    -0.506 OA
ATOM     27  H   UNL     1       1.569   5.926  -0.468  0.00  0.00    +0.292 HD
ENDBRANCH   3  26
BRANCH   8  28
ATOM     28  C   UNL     1      -1.968   0.566  -1.793  0.00  0.00    +0.107 C 
BRANCH  28  29
ATOM     29  C   UNL     1      -2.567   0.062  -0.479  0.00  0.00    +0.000 C 
BRANCH  29  30
ATOM     30  C   UNL     1      -3.913  -0.610  -0.757  0.00  0.00    -0.078 C 
BRANCH  30  33
ATOM     31  C   UNL     1      -4.834   0.026   1.390  0.00  0.00    -0.097 C 
ATOM     32  C   UNL     1      -5.657  -1.949   0.257  0.00  0.00    -0.097 C 
ATOM     33  N   UNL     1      -4.469  -1.110   0.518  0.00  0.00    +0.376 N 
ATOM     34  H   UNL     1      -3.757  -1.678   0.992  0.00  0.00    -0.083 HD
ENDBRANCH  30  33
ENDBRANCH  29  30
ENDBRANCH  28  29
ENDBRANCH   8  28
TORSDOF 9
