REMARK  Name = ZINC00780320
REMARK  5 active torsions:
REMARK  status: ('A' for Active; 'I' for Inactive)
REMARK    1  A    between atoms: C_4  and  N_7
REMARK    2  A    between atoms: C_8  and  C_19
REMARK    3  A    between atoms: C_22  and  O_25
REMARK    4  A    between atoms: O_25  and  C_26
REMARK    5  A    between atoms: C_26  and  C_27
REMARK                            x       y       z     vdW  Elec       q    Type
REMARK                         _______ _______ _______ _____ _____    ______ ____
ROOT
ATOM      1  N   UNL     1      -0.069   5.241   0.030  0.00  0.00    -0.244 N 
ATOM      2  C   UNL     1      -1.349   5.943  -0.066  0.00  0.00    +0.198 C 
ATOM      3  N   UNL     1      -1.300   7.198   0.693  0.00  0.00    -0.321 N 
ATOM      4  C   UNL     1      -0.168   7.999   0.588  0.00  0.00    +0.041 A 
ATOM      5  C   UNL     1      -0.230   9.373   0.746  0.00  0.00    +0.024 A 
ATOM      6  C   UNL     1       0.924  10.126   0.643  0.00  0.00    +0.002 A 
ATOM      7  C   UNL     1       2.142   9.517   0.386  0.00  0.00    +0.001 A 
ATOM      8  C   UNL     1       2.221   8.150   0.222  0.00  0.00    +0.015 A 
ATOM      9  C   UNL     1       1.065   7.379   0.317  0.00  0.00    +0.058 A 
ATOM     10  C   UNL     1       1.092   5.918   0.131  0.00  0.00    +0.254 C 
ATOM     11  O   UNL     1       2.154   5.329   0.064  0.00  0.00    -0.270 OA
ATOM     12  H   UNL     1      -2.043   7.464   1.256  0.00  0.00    +0.148 HD
ENDROOT
BRANCH   1  16
ATOM     13  C   UNL     1      -0.012   1.076   0.008  0.00  0.00    +0.000 A 
ATOM     14  C   UNL     1      -0.740   1.751   0.971  0.00  0.00    +0.002 A 
ATOM     15  C   UNL     1      -0.757   3.132   0.984  0.00  0.00    +0.023 A 
ATOM     16  C   UNL     1      -0.050   3.842   0.022  0.00  0.00    +0.039 A 
ATOM     17  C   UNL     1       0.676   3.162  -0.947  0.00  0.00    +0.023 A 
ATOM     18  C   UNL     1       0.693   1.781  -0.951  0.00  0.00    +0.002 A 
ENDBRANCH   1  16
BRANCH   2  19
ATOM     19  C   UNL     1      -1.646   6.245  -1.512  0.00  0.00    -0.009 A 
ATOM     20  C   UNL     1      -1.170   5.407  -2.504  0.00  0.00    +0.010 A 
ATOM     21  C   UNL     1      -1.445   5.679  -3.830  0.00  0.00    +0.046 A 
ATOM     22  C   UNL     1      -2.190   6.800  -4.167  0.00  0.00    +0.121 A 
ATOM     23  C   UNL     1      -2.661   7.642  -3.170  0.00  0.00    +0.046 A 
ATOM     24  C   UNL     1      -2.388   7.363  -1.845  0.00  0.00    +0.010 A 
BRANCH  22  25
ATOM     25  O   UNL     1      -2.456   7.073  -5.471  0.00  0.00    -0.483 OA
BRANCH  25  26
ATOM     26  C   UNL     1      -1.939   6.162  -6.444  0.00  0.00    +0.324 C 
BRANCH  26  27
ATOM     27  C   UNL     1      -2.332   6.624  -7.823  0.00  0.00    +0.248 C 
ATOM     28  O   UNL     1      -2.990   7.633  -7.960  0.00  0.00    -0.272 OA
ATOM     29  N   UNL     1      -1.953   5.915  -8.905  0.00  0.00    -0.327 N 
ATOM     30  H   UNL     1      -1.426   5.107  -8.795  0.00  0.00    +0.145 HD
ATOM     31  H   UNL     1      -2.205   6.212  -9.793  0.00  0.00    +0.145 HD
ENDBRANCH  26  27
ENDBRANCH  25  26
ENDBRANCH  22  25
ENDBRANCH   2  19
TORSDOF 5
