REMARK  Name = ZINC40404998
REMARK  12 active torsions:
REMARK  status: ('A' for Active; 'I' for Inactive)
REMARK    1  A    between atoms: C_1  and  C_2
REMARK    2  A    between atoms: C_2  and  N_3
REMARK    3  A    between atoms: N_3  and  C_4
REMARK    4  A    between atoms: N_3  and  C_22
REMARK    5  A    between atoms: C_4  and  C_5
REMARK    6  A    between atoms: C_17  and  C_21
REMARK    7  A    between atoms: C_22  and  C_23
REMARK    8  A    between atoms: C_23  and  C_25
REMARK    9  A    between atoms: C_23  and  O_34
REMARK   10  A    between atoms: C_25  and  O_26
REMARK   11  A    between atoms: O_26  and  C_27
REMARK   12  A    between atoms: C_32  and  C_33
REMARK                            x       y       z     vdW  Elec       q    Type
REMARK                         _______ _______ _______ _____ _____    ______ ____
ROOT
ATOM      1  N   UNL     1       0.505  -0.453  -1.202  0.00  0.00    +0.386 N 
ATOM      2  H   UNL     1      -0.114  -0.055  -1.892  0.00  0.00    -0.081 HD
ENDROOT
BRANCH   1   4
ATOM      3  C   UNL     1       0.907  -0.779   1.192  0.00  0.00    -0.017 C 
ATOM      4  C   UNL     1       0.055  -0.065   0.141  0.00  0.00    -0.082 C 
ENDBRANCH   1   4
BRANCH   1   5
ATOM      5  C   UNL     1       1.870   0.044  -1.423  0.00  0.00    -0.003 C 
BRANCH   5   6
ATOM      6  C   UNL     1       1.857   1.551  -1.454  0.00  0.00    +0.094 A 
ATOM      7  N   UNL     1       3.032   2.227  -1.527  0.00  0.00    -0.312 N 
ATOM      8  H   UNL     1       3.865   1.730  -1.558  0.00  0.00    +0.170 HD
ATOM      9  C   UNL     1       3.066   3.572  -1.557  0.00  0.00    +0.260 A 
ATOM     10  O   UNL     1       4.129   4.164  -1.623  0.00  0.00    -0.267 OA
ATOM     11  C   UNL     1       1.830   4.297  -1.511  0.00  0.00    +0.075 A 
ATOM     12  C   UNL     1       1.625   5.745  -1.533  0.00  0.00    -0.023 A 
ATOM     13  C   UNL     1       0.349   6.183  -1.478  0.00  0.00    -0.004 A 
ATOM     14  S   UNL     1      -0.638   4.713  -1.395  0.00  0.00    -0.073 S 
ATOM     15  C   UNL     1       0.668   3.513  -1.436  0.00  0.00    +0.116 A 
ATOM     16  N   UNL     1       0.714   2.183  -1.416  0.00  0.00    -0.229 NA
ATOM     17  C   UNL     1      -0.123   7.605  -1.488  0.00  0.00    +0.046 C 
ATOM     18  C   UNL     1       1.039   8.498  -1.944  0.00  0.00    -0.009 C 
ATOM     19  C   UNL     1       2.295   8.108  -1.160  0.00  0.00    +0.008 C 
ATOM     20  C   UNL     1       2.785   6.733  -1.614  0.00  0.00    +0.037 C 
ATOM     21  C   UNL     1       0.696   9.965  -1.674  0.00  0.00    +0.008 C 
ENDBRANCH   5   6
ENDBRANCH   1   5
BRANCH   1  22
ATOM     22  C   UNL     1       0.493  -1.917  -1.318  0.00  0.00    -0.043 C 
BRANCH  22  23
ATOM     23  C   UNL     1      -0.951  -2.421  -1.261  0.00  0.00    +0.135 C 
BRANCH  23  24
ATOM     24  O   UNL     1      -1.489  -2.177   0.041  0.00  0.00    -0.390 OA
ATOM     25  H   UNL     1      -1.005  -2.615   0.754  0.00  0.00    +0.210 HD
ENDBRANCH  23  24
BRANCH  23  26
ATOM     26  C   UNL     1      -0.979  -3.923  -1.551  0.00  0.00    +0.258 C 
BRANCH  26  27
ATOM     27  O   UNL     1      -2.334  -4.371  -1.613  0.00  0.00    -0.489 OA
BRANCH  27  28
ATOM     28  C   UNL     1      -2.537  -5.691  -1.865  0.00  0.00    +0.124 A 
ATOM     29  C   UNL     1      -1.453  -6.539  -2.043  0.00  0.00    +0.046 A 
ATOM     30  C   UNL     1      -1.661  -7.880  -2.299  0.00  0.00    +0.004 A 
ATOM     31  C   UNL     1      -2.949  -8.378  -2.376  0.00  0.00    +0.000 A 
ATOM     32  C   UNL     1      -4.030  -7.536  -2.199  0.00  0.00    +0.007 A 
ATOM     33  C   UNL     1      -3.827  -6.194  -1.938  0.00  0.00    -0.009 A 
ATOM     34  C   UNL     1      -5.006  -5.278  -1.739  0.00  0.00    +0.047 C 
ENDBRANCH  27  28
ENDBRANCH  26  27
ENDBRANCH  23  26
ENDBRANCH  22  23
ENDBRANCH   1  22
TORSDOF 9
