REMARK  Name = ZINC10602230
REMARK  11 active torsions:
REMARK  status: ('A' for Active; 'I' for Inactive)
REMARK    1  A    between atoms: C_1  and  C_2
REMARK    2  A    between atoms: C_2  and  C_4
REMARK    3  A    between atoms: C_2  and  O_16
REMARK    4  A    between atoms: N_6  and  C_7
REMARK    5  A    between atoms: O_16  and  C_17
REMARK    6  A    between atoms: C_17  and  C_19
REMARK    7  A    between atoms: C_22  and  S_25
REMARK    8  A    between atoms: S_25  and  N_28
REMARK    9  A    between atoms: N_28  and  C_29
REMARK   10  A    between atoms: C_29  and  C_30
REMARK   11  A    between atoms: C_29  and  C_31
REMARK                            x       y       z     vdW  Elec       q    Type
REMARK                         _______ _______ _______ _____ _____    ______ ____
ROOT
ATOM      1  O   UNL     1      -1.914  -1.493  -0.256  0.00  0.00    -0.449 OA
ENDROOT
BRANCH   1   3
ATOM      2  C   UNL     1      -0.225   0.215  -0.519  0.00  0.00    +0.062 C 
ATOM      3  C   UNL     1      -1.204  -0.466   0.439  0.00  0.00    +0.259 C 
BRANCH   3   4
ATOM      4  C   UNL     1      -0.442  -1.072   1.589  0.00  0.00    +0.258 C 
ATOM      5  O   UNL     1      -0.427  -2.275   1.740  0.00  0.00    -0.271 OA
ATOM      6  N   UNL     1       0.223  -0.277   2.451  0.00  0.00    -0.280 N 
ATOM      7  H   UNL     1       0.272   0.679   2.289  0.00  0.00    +0.155 HD
BRANCH   6   8
ATOM      8  C   UNL     1       0.844  -0.829   3.578  0.00  0.00    +0.071 A 
ATOM      9  C   UNL     1       2.169  -1.240   3.512  0.00  0.00    +0.065 A 
ATOM     10  C   UNL     1       2.779  -1.785   4.627  0.00  0.00    +0.042 A 
ATOM     11  C   UNL     1       2.070  -1.922   5.807  0.00  0.00    +0.044 A 
ATOM     12  C   UNL     1       0.750  -1.513   5.876  0.00  0.00    +0.042 A 
ATOM     13  C   UNL     1       0.136  -0.963   4.767  0.00  0.00    +0.065 A 
ATOM     14 CL   UNL     1      -1.518  -0.445   4.856  0.00  0.00    -0.082 Cl
ATOM     15 CL   UNL     1       2.839  -2.607   7.205  0.00  0.00    -0.083 Cl
ATOM     16 CL   UNL     1       3.059  -1.070   2.031  0.00  0.00    -0.082 Cl
ENDBRANCH   6   8
ENDBRANCH   3   4
ENDBRANCH   1   3
BRANCH   1  17
ATOM     17  C   UNL     1      -3.066  -1.141  -0.857  0.00  0.00    +0.340 C 
ATOM     18  O   UNL     1      -3.458   0.007  -0.794  0.00  0.00    -0.245 OA
BRANCH  17  19
ATOM     19  C   UNL     1      -3.854  -2.150  -1.594  0.00  0.00    +0.059 A 
ATOM     20  C   UNL     1      -3.409  -3.472  -1.664  0.00  0.00    +0.017 A 
ATOM     21  C   UNL     1      -4.150  -4.410  -2.354  0.00  0.00    +0.029 A 
ATOM     22  C   UNL     1      -5.330  -4.043  -2.976  0.00  0.00    +0.105 A 
ATOM     23  C   UNL     1      -5.776  -2.734  -2.911  0.00  0.00    +0.029 A 
ATOM     24  C   UNL     1      -5.049  -1.788  -2.219  0.00  0.00    +0.017 A 
BRANCH  22  25
ATOM     25  S   UNL     1      -6.269  -5.247  -3.855  0.00  0.00    +0.059 S 
ATOM     26  O   UNL     1      -7.051  -4.537  -4.806  0.00  0.00    -0.153 OA
ATOM     27  O   UNL     1      -5.363  -6.275  -4.229  0.00  0.00    -0.153 OA
BRANCH  25  28
ATOM     28  N   UNL     1      -7.332  -5.921  -2.778  0.00  0.00    -0.187 NA
ATOM     29  H   UNL     1      -7.254  -6.859  -2.543  0.00  0.00    +0.148 HD
BRANCH  28  30
ATOM     30  C   UNL     1      -8.388  -5.101  -2.180  0.00  0.00    +0.070 C 
ATOM     31  C   UNL     1      -9.676  -5.258  -2.990  0.00  0.00    +0.025 C 
ATOM     32  C   UNL     1      -8.633  -5.554  -0.740  0.00  0.00    +0.025 C 
ENDBRANCH  28  30
ENDBRANCH  25  28
ENDBRANCH  22  25
ENDBRANCH  17  19
ENDBRANCH   1  17
TORSDOF 8
