REMARK  Name = ZINC08869105
REMARK  6 active torsions:
REMARK  status: ('A' for Active; 'I' for Inactive)
REMARK    1  A    between atoms: C_1  and  C_2
REMARK    2  A    between atoms: C_5  and  S_8
REMARK    3  A    between atoms: S_8  and  N_11
REMARK    4  A    between atoms: C_15  and  C_17
REMARK    5  A    between atoms: C_28  and  C_30
REMARK    6  A    between atoms: C_28  and  C_31
REMARK                            x       y       z     vdW  Elec       q    Type
REMARK                         _______ _______ _______ _____ _____    ______ ____
ROOT
ATOM      1  C   UNL     1       4.074  -4.189  -1.444  0.00  0.00    +0.238 C 
ATOM      2  O   UNL     1       2.861  -4.210  -1.436  0.00  0.00    -0.274 OA
ATOM      3  N   UNL     1       4.736  -3.275  -0.708  0.00  0.00    -0.263 N 
ATOM      4  C   UNL     1       4.034  -2.360   0.055  0.00  0.00    +0.165 A 
ATOM      5  N   UNL     1       4.503  -1.397   0.835  0.00  0.00    -0.229 NA
ATOM      6  C   UNL     1       3.718  -0.593   1.511  0.00  0.00    +0.062 A 
ATOM      7  C   UNL     1       2.344  -0.819   1.351  0.00  0.00    +0.079 A 
ATOM      8  S   UNL     1       2.312  -2.187   0.233  0.00  0.00    -0.049 S 
ATOM      9  C   UNL     1       1.328  -0.092   1.963  0.00  0.00    +0.172 C 
ATOM     10  O   UNL     1       0.158  -0.367   1.786  0.00  0.00    -0.291 OA
ATOM     11  C   UNL     1       1.744   1.058   2.861  0.00  0.00    +0.087 C 
ATOM     12  C   UNL     1       3.096   0.740   3.500  0.00  0.00    -0.022 C 
ATOM     13  C   UNL     1       4.173   0.532   2.431  0.00  0.00    +0.063 C 
ATOM     14  C   UNL     1       3.507   1.899   4.409  0.00  0.00    +0.011 C 
ATOM     15  C   UNL     1       2.968  -0.534   4.338  0.00  0.00    +0.011 C 
ATOM     16  H   UNL     1       5.706  -3.258  -0.714  0.00  0.00    +0.157 HD
ENDROOT
BRANCH   1  21
ATOM     17  N   UNL     1       4.150  -6.489  -2.279  0.00  0.00    -0.165 NA
ATOM     18  C   UNL     1       4.290  -7.090  -3.615  0.00  0.00    +0.110 C 
ATOM     19  C   UNL     1       5.088  -6.096  -4.484  0.00  0.00    +0.019 C 
ATOM     20  C   UNL     1       4.864  -4.743  -3.760  0.00  0.00    +0.031 C 
ATOM     21  C   UNL     1       4.839  -5.185  -2.275  0.00  0.00    +0.166 C 
BRANCH  17  22
ATOM     22  S   UNL     1       3.351  -7.161  -0.994  0.00  0.00    +0.062 S 
ATOM     23  O   UNL     1       3.124  -6.112  -0.063  0.00  0.00    -0.153 OA
ATOM     24  O   UNL     1       2.293  -7.940  -1.536  0.00  0.00    -0.153 OA
BRANCH  22  29
ATOM     25  C   UNL     1       7.159 -11.022   1.652  0.00  0.00    +0.044 C 
ATOM     26  C   UNL     1       6.207 -10.058   0.992  0.00  0.00    -0.050 A 
ATOM     27  C   UNL     1       6.245  -8.715   1.320  0.00  0.00    +0.005 A 
ATOM     28  C   UNL     1       5.372  -7.831   0.714  0.00  0.00    +0.029 A 
ATOM     29  C   UNL     1       4.463  -8.289  -0.221  0.00  0.00    +0.106 A 
ATOM     30  C   UNL     1       4.421  -9.632  -0.545  0.00  0.00    +0.029 A 
ATOM     31  C   UNL     1       5.296 -10.515   0.058  0.00  0.00    +0.005 A 
ENDBRANCH  22  29
ENDBRANCH  17  22
ENDBRANCH   1  21
TORSDOF 3
