REMARK  Name = ZINC09187154
REMARK  8 active torsions:
REMARK  status: ('A' for Active; 'I' for Inactive)
REMARK    1  A    between atoms: C_1  and  C_2
REMARK    2  A    between atoms: C_5  and  C_8
REMARK    3  A    between atoms: C_8  and  C_10
REMARK    4  A    between atoms: C_12  and  C_25
REMARK    5  A    between atoms: C_28  and  O_33
REMARK    6  A    between atoms: C_30  and  O_31
REMARK    7  A    between atoms: O_31  and  C_32
REMARK    8  A    between atoms: O_33  and  C_34
REMARK                            x       y       z     vdW  Elec       q    Type
REMARK                         _______ _______ _______ _____ _____    ______ ____
ROOT
ATOM      1  C   UNL     1      -1.496   3.629   0.144  0.00  0.00    +0.173 C 
ATOM      2  C   UNL     1      -1.115   2.169  -0.034  0.00  0.00    +0.106 C 
ATOM      3  N   UNL     1      -2.203   1.468  -0.070  0.00  0.00    -0.086 NA
ATOM      4  O   UNL     1      -3.372   2.258   0.063  0.00  0.00    -0.371 OA
ATOM      5  C   UNL     1      -2.998   3.615  -0.183  0.00  0.00    +0.255 C 
ATOM      6  C   UNL     1      -3.271   4.037  -1.596  0.00  0.00    +0.030 A 
ATOM      7  C   UNL     1      -2.872   3.562  -2.825  0.00  0.00    +0.010 A 
ATOM      8  C   UNL     1      -3.303   4.185  -3.983  0.00  0.00    +0.001 A 
ATOM      9  C   UNL     1      -4.136   5.286  -3.903  0.00  0.00    +0.002 A 
ATOM     10  C   UNL     1      -4.540   5.766  -2.674  0.00  0.00    +0.024 A 
ATOM     11  C   UNL     1      -4.111   5.144  -1.503  0.00  0.00    +0.041 A 
ATOM     12  N   UNL     1      -4.378   5.438  -0.164  0.00  0.00    -0.281 N 
ATOM     13  C   UNL     1      -3.761   4.582   0.676  0.00  0.00    +0.270 C 
ATOM     14  O   UNL     1      -3.812   4.592   1.887  0.00  0.00    -0.271 OA
ATOM     15  H   UNL     1      -4.941   6.171   0.128  0.00  0.00    +0.155 HD
ENDROOT
BRANCH   2  16
ATOM     16  C   UNL     1       0.256   1.641  -0.141  0.00  0.00    +0.042 A 
ATOM     17  C   UNL     1       1.343   2.518  -0.197  0.00  0.00    +0.017 A 
ATOM     18  C   UNL     1       2.623   2.021  -0.303  0.00  0.00    +0.046 A 
ATOM     19  C   UNL     1       2.839   0.648  -0.354  0.00  0.00    +0.124 A 
ATOM     20  C   UNL     1       1.767  -0.230  -0.299  0.00  0.00    +0.091 A 
ATOM     21  C   UNL     1       0.476   0.257  -0.193  0.00  0.00    +0.133 A 
BRANCH  21  22
ATOM     22  O   UNL     1      -0.574  -0.602  -0.140  0.00  0.00    -0.494 OA
ATOM     23  C   UNL     1      -0.274  -1.998  -0.198  0.00  0.00    +0.277 C 
ENDBRANCH  21  22
BRANCH  19  24
ATOM     24  O   UNL     1       4.104   0.166  -0.459  0.00  0.00    -0.495 OA
ATOM     25  C   UNL     1       5.162   1.126  -0.510  0.00  0.00    +0.277 C 
ENDBRANCH  19  24
ENDBRANCH   2  16
BRANCH   1  26
ATOM     26  C   UNL     1      -1.258   4.076   1.563  0.00  0.00    +0.177 C 
ATOM     27  O   UNL     1      -1.327   3.275   2.471  0.00  0.00    -0.291 OA
BRANCH  26  32
ATOM     28  C   UNL     1      -0.019   9.579   2.674  0.00  0.00    +0.044 C 
ATOM     29  C   UNL     1      -0.343   8.136   2.382  0.00  0.00    -0.050 A 
ATOM     30  C   UNL     1      -0.338   7.209   3.410  0.00  0.00    +0.004 A 
ATOM     31  C   UNL     1      -0.635   5.887   3.151  0.00  0.00    +0.011 A 
ATOM     32  C   UNL     1      -0.940   5.485   1.847  0.00  0.00    +0.018 A 
ATOM     33  C   UNL     1      -0.937   6.427   0.814  0.00  0.00    +0.011 A 
ATOM     34  C   UNL     1      -0.645   7.746   1.089  0.00  0.00    +0.004 A 
ENDBRANCH  26  32
ENDBRANCH   1  26
TORSDOF 5
