REMARK  Name = ZINC19367353
REMARK  11 active torsions:
REMARK  status: ('A' for Active; 'I' for Inactive)
REMARK    1  A    between atoms: C_2  and  C_3
REMARK    2  A    between atoms: C_3  and  C_4
REMARK    3  A    between atoms: C_9  and  O_10
REMARK    4  A    between atoms: O_10  and  C_11
REMARK    5  A    between atoms: C_11  and  C_12
REMARK    6  A    between atoms: C_12  and  C_14
REMARK    7  A    between atoms: C_12  and  O_38
REMARK    8  A    between atoms: C_14  and  N_15
REMARK    9  A    between atoms: N_18  and  C_21
REMARK   10  A    between atoms: C_21  and  C_22
REMARK   11  A    between atoms: C_22  and  N_23
REMARK                            x       y       z     vdW  Elec       q    Type
REMARK                         _______ _______ _______ _____ _____    ______ ____
ROOT
ATOM      1  N   UNL     1      -2.247  -6.479  -2.920  0.00  0.00    -0.303 NA
ATOM      2  C   UNL     1      -3.338  -5.528  -3.178  0.00  0.00    +0.066 C 
ATOM      3  C   UNL     1      -3.889  -5.758  -4.586  0.00  0.00    -0.063 C 
ATOM      4  N   UNL     1      -4.383  -7.136  -4.700  0.00  0.00    +0.382 N 
ATOM      5  C   UNL     1      -3.277  -8.075  -4.465  0.00  0.00    -0.063 C 
ATOM      6  C   UNL     1      -2.720  -7.864  -3.055  0.00  0.00    +0.066 C 
ATOM      7  H   UNL     1      -5.107  -7.292  -4.015  0.00  0.00    -0.082 HD
ENDROOT
BRANCH   1   8
ATOM      8  C   UNL     1      -1.652  -6.253  -1.597  0.00  0.00    +0.119 C 
BRANCH   8   9
ATOM      9  C   UNL     1      -0.953  -4.892  -1.578  0.00  0.00    +0.166 C 
BRANCH   9  10
ATOM     10  O   UNL     1       0.074  -4.871  -2.571  0.00  0.00    -0.387 OA
ATOM     11  H   UNL     1       0.756  -5.544  -2.446  0.00  0.00    +0.210 HD
ENDBRANCH   9  10
BRANCH   9  12
ATOM     12  C   UNL     1      -0.333  -4.656  -0.199  0.00  0.00    +0.261 C 
BRANCH  12  13
ATOM     13  O   UNL     1       0.219  -3.339  -0.144  0.00  0.00    -0.489 OA
BRANCH  13  19
ATOM     14  C   UNL     1       1.369  -1.702   1.144  0.00  0.00    -0.002 A 
ATOM     15  C   UNL     1       1.966  -1.324   2.331  0.00  0.00    +0.007 A 
ATOM     16  C   UNL     1       2.014  -2.207   3.394  0.00  0.00    +0.001 A 
ATOM     17  C   UNL     1       1.465  -3.470   3.272  0.00  0.00    +0.004 A 
ATOM     18  C   UNL     1       0.866  -3.853   2.087  0.00  0.00    +0.046 A 
ATOM     19  C   UNL     1       0.812  -2.967   1.021  0.00  0.00    +0.124 A 
BRANCH  14  20
ATOM     20  C   UNL     1       1.317  -0.740  -0.015  0.00  0.00    +0.065 C 
BRANCH  20  22
ATOM     21  C   UNL     1      -0.016   1.306   0.009  0.00  0.00    +0.004 C 
ATOM     22  C   UNL     1       0.002  -0.004   0.002  0.00  0.00    -0.030 C 
ENDBRANCH  20  22
ENDBRANCH  14  20
ENDBRANCH  13  19
ENDBRANCH  12  13
ENDBRANCH   9  12
ENDBRANCH   8   9
ENDBRANCH   1   8
BRANCH   4  23
ATOM     23  C   UNL     1      -4.929  -7.351  -6.047  0.00  0.00    -0.059 C 
BRANCH  23  24
ATOM     24  C   UNL     1      -5.555  -8.745  -6.127  0.00  0.00    +0.098 C 
BRANCH  24  25
ATOM     25  N   UNL     1      -6.099  -8.960  -7.470  0.00  0.00    -0.236 N 
ATOM     26  C   UNL     1      -7.375  -8.604  -7.717  0.00  0.00    +0.254 C 
ATOM     27  O   UNL     1      -8.049  -8.116  -6.830  0.00  0.00    -0.270 OA
ATOM     28  C   UNL     1      -7.956  -8.803  -9.052  0.00  0.00    +0.046 A 
ATOM     29  C   UNL     1      -9.264  -8.451  -9.350  0.00  0.00    +0.014 A 
ATOM     30  C   UNL     1      -9.770  -8.659 -10.629  0.00  0.00    +0.001 A 
ATOM     31  C   UNL     1      -9.006  -9.208 -11.619  0.00  0.00    +0.008 A 
ATOM     32  C   UNL     1      -7.675  -9.578 -11.358  0.00  0.00    -0.016 A 
ATOM     33  C   UNL     1      -7.151  -9.372 -10.065  0.00  0.00    +0.006 A 
ATOM     34  C   UNL     1      -5.817  -9.734  -9.771  0.00  0.00    +0.046 A 
ATOM     35  C   UNL     1      -5.035 -10.292 -10.772  0.00  0.00    +0.014 A 
ATOM     36  C   UNL     1      -5.563 -10.490 -12.042  0.00  0.00    +0.001 A 
ATOM     37  C   UNL     1      -6.849 -10.146 -12.344  0.00  0.00    +0.008 A 
ATOM     38  C   UNL     1      -5.305  -9.499  -8.413  0.00  0.00    +0.254 C 
ATOM     39  O   UNL     1      -4.158  -9.799  -8.139  0.00  0.00    -0.270 OA
ENDBRANCH  24  25
ENDBRANCH  23  24
ENDBRANCH   4  23
TORSDOF 11
