REMARK  Name = ZINC16880743
REMARK  8 active torsions:
REMARK  status: ('A' for Active; 'I' for Inactive)
REMARK    1  A    between atoms: C_1  and  C_2
REMARK    2  A    between atoms: C_4  and  C_24
REMARK    3  A    between atoms: C_5  and  C_9
REMARK    4  A    between atoms: C_6  and  C_8
REMARK    5  A    between atoms: C_9  and  C_10
REMARK    6  A    between atoms: C_11  and  C_23
REMARK    7  A    between atoms: C_13  and  O_22
REMARK    8  A    between atoms: N_14  and  C_17
REMARK                            x       y       z     vdW  Elec       q    Type
REMARK                         _______ _______ _______ _____ _____    ______ ____
ROOT
ATOM      1  C   UNL     1       0.906   0.315  -3.038  0.00  0.00    +0.043 A 
ATOM      2  C   UNL     1       1.365  -0.584  -3.955  0.00  0.00    +0.052 A 
ATOM      3  N   UNL     1       2.553  -0.404  -4.530  0.00  0.00    -0.201 NA
ATOM      4  C   UNL     1       3.307   0.632  -4.233  0.00  0.00    +0.299 A 
ATOM      5  N   UNL     1       2.904   1.560  -3.328  0.00  0.00    -0.260 N 
ATOM      6  C   UNL     1       1.705   1.428  -2.720  0.00  0.00    +0.261 A 
ATOM      7  O   UNL     1       1.325   2.255  -1.908  0.00  0.00    -0.267 OA
ATOM      8  C   UNL     1       0.527  -1.783  -4.319  0.00  0.00    +0.066 C 
ENDROOT
BRANCH   5   9
ATOM      9  C   UNL     1       3.763   2.705  -3.016  0.00  0.00    +0.095 C 
ATOM     10  C   UNL     1       4.067   3.503  -4.300  0.00  0.00    +0.025 C 
ATOM     11  C   UNL     1       5.538   3.957  -4.125  0.00  0.00    +0.002 C 
ATOM     12  C   UNL     1       6.196   2.732  -3.443  0.00  0.00    +0.002 C 
ATOM     13  C   UNL     1       5.116   2.215  -2.471  0.00  0.00    +0.025 C 
ENDBRANCH   5   9
BRANCH   4  14
ATOM     14  O   UNL     1       4.504   0.775  -4.839  0.00  0.00    -0.479 OA
ATOM     15  H   UNL     1       4.757   0.094  -5.477  0.00  0.00    +0.295 HD
ENDBRANCH   4  14
BRANCH   1  16
ATOM     16  C   UNL     1      -0.437   0.123  -2.382  0.00  0.00    +0.078 C 
BRANCH  16  21
ATOM     17  C   UNL     1       0.254  -0.368   3.334  0.00  0.00    +0.044 C 
ATOM     18  C   UNL     1       0.076  -0.240   1.843  0.00  0.00    -0.050 A 
ATOM     19  C   UNL     1       0.294  -1.332   1.025  0.00  0.00    +0.007 A 
ATOM     20  C   UNL     1       0.130  -1.214  -0.343  0.00  0.00    -0.046 A 
ATOM     21  C   UNL     1      -0.254  -0.005  -0.891  0.00  0.00    -0.037 A 
ATOM     22  C   UNL     1      -0.467   1.089  -0.073  0.00  0.00    -0.046 A 
ATOM     23  C   UNL     1      -0.304   0.971   1.295  0.00  0.00    +0.007 A 
ATOM     24  C   UNL     1      -0.881   2.409  -0.671  0.00  0.00    +0.044 C 
ATOM     25  C   UNL     1       0.368  -2.405  -1.236  0.00  0.00    +0.044 C 
ENDBRANCH  16  21
ENDBRANCH   1  16
TORSDOF 4
