REMARK  Name = ZINC11963689
REMARK  8 active torsions:
REMARK  status: ('A' for Active; 'I' for Inactive)
REMARK    1  A    between atoms: C_1  and  C_2
REMARK    2  A    between atoms: C_2  and  C_4
REMARK    3  A    between atoms: C_2  and  N_63
REMARK    4  A    between atoms: N_7  and  C_9
REMARK    5  A    between atoms: C_15  and  N_63
REMARK    6  A    between atoms: N_18  and  C_21
REMARK    7  A    between atoms: C_24  and  N_27
REMARK    8  A    between atoms: C_28  and  C_30
REMARK                            x       y       z     vdW  Elec       q    Type
REMARK                         _______ _______ _______ _____ _____    ______ ____
ROOT
ATOM      1  C   UNL     1       1.740  -3.883   1.143  0.00  0.00    -0.068 C 
ATOM      2  C   UNL     1       1.464  -5.008   0.142  0.00  0.00    +0.003 C 
ATOM      3  C   UNL     1       2.214  -6.268   0.579  0.00  0.00    +0.103 C 
ATOM      4  N   UNL     1       1.770  -6.663   1.921  0.00  0.00    -0.330 N 
ATOM      5  C   UNL     1       2.068  -5.618   2.908  0.00  0.00    +0.103 C 
ATOM      6  C   UNL     1       1.313  -4.338   2.541  0.00  0.00    +0.003 C 
ENDROOT
BRANCH   4   7
ATOM      7  C   UNL     1       2.339  -7.885   2.298  0.00  0.00    +0.030 A 
ATOM      8  C   UNL     1       3.075  -7.976   3.472  0.00  0.00    +0.025 A 
ATOM      9  C   UNL     1       3.631  -9.182   3.847  0.00  0.00    +0.025 A 
ATOM     10  C   UNL     1       3.463 -10.303   3.044  0.00  0.00    +0.034 A 
ATOM     11  C   UNL     1       2.733 -10.211   1.866  0.00  0.00    +0.025 A 
ATOM     12  C   UNL     1       2.172  -9.005   1.494  0.00  0.00    +0.025 A 
BRANCH  10  13
ATOM     13  N   UNL     1       4.032 -11.526   3.421  0.00  0.00    -0.280 N 
ATOM     14  C   UNL     1       4.140 -11.845   4.726  0.00  0.00    +0.268 C 
ATOM     15  O   UNL     1       3.661 -11.115   5.572  0.00  0.00    -0.268 OA
ATOM     16  H   UNL     1       4.348 -12.144   2.743  0.00  0.00    +0.155 HD
BRANCH  14  17
ATOM     17  C   UNL     1       4.843 -13.084   5.130  0.00  0.00    +0.144 A 
ATOM     18  C   UNL     1       4.956 -13.416   6.479  0.00  0.00    +0.143 A 
ATOM     19  N   UNL     1       5.584 -14.523   6.834  0.00  0.00    -0.259 NA
ATOM     20  C   UNL     1       6.104 -15.314   5.912  0.00  0.00    +0.130 A 
ATOM     21  C   UNL     1       5.994 -14.986   4.569  0.00  0.00    +0.131 A 
ATOM     22  N   UNL     1       5.364 -13.887   4.206  0.00  0.00    -0.247 NA
ENDBRANCH  14  17
ENDBRANCH  10  13
ENDBRANCH   4   7
BRANCH   1  23
ATOM     23  N   UNL     1       0.967  -2.688   0.756  0.00  0.00    +0.385 N 
ATOM     24  H   UNL     1       0.912  -2.637  -0.268  0.00  0.00    -0.085 HD
ATOM     25  H   UNL     1       0.019  -2.756   1.147  0.00  0.00    -0.085 HD
BRANCH  23  27
ATOM     26  C   UNL     1       2.706  -1.020   0.291  0.00  0.00    -0.009 C 
ATOM     27  C   UNL     1       1.618  -1.468   1.269  0.00  0.00    -0.041 C 
BRANCH  27  28
ATOM     28  C   UNL     1       0.587  -0.377   1.407  0.00  0.00    -0.024 A 
ATOM     29  C   UNL     1      -0.454  -0.110   0.511  0.00  0.00    +0.136 A 
ATOM     30  N   UNL     1      -1.138   0.907   0.969  0.00  0.00    -0.175 NA
ATOM     31  N   UNL     1      -0.553   1.322   2.173  0.00  0.00    -0.240 N 
ATOM     32  C   UNL     1       0.504   0.516   2.420  0.00  0.00    +0.116 A 
BRANCH  31  33
ATOM     33  C   UNL     1      -0.988   2.383   2.978  0.00  0.00    +0.065 A 
ATOM     34  C   UNL     1      -0.316   2.684   4.155  0.00  0.00    +0.028 A 
ATOM     35  C   UNL     1      -0.743   3.734   4.944  0.00  0.00    +0.002 A 
ATOM     36  C   UNL     1      -1.847   4.478   4.569  0.00  0.00    +0.000 A 
ATOM     37  C   UNL     1      -2.522   4.178   3.400  0.00  0.00    +0.002 A 
ATOM     38  C   UNL     1      -2.095   3.133   2.604  0.00  0.00    +0.028 A 
ENDBRANCH  31  33
ENDBRANCH  27  28
ENDBRANCH  23  27
ENDBRANCH   1  23
TORSDOF 7
