REMARK  Name = ZINC14978557
REMARK  13 active torsions:
REMARK  status: ('A' for Active; 'I' for Inactive)
REMARK    1  A    between atoms: C_1  and  O_2
REMARK    2  A    between atoms: O_2  and  C_3
REMARK    3  A    between atoms: C_7  and  O_9
REMARK    4  A    between atoms: O_9  and  C_10
REMARK    5  A    between atoms: C_10  and  C_11
REMARK    6  A    between atoms: C_11  and  C_13
REMARK    7  A    between atoms: C_11  and  O_34
REMARK    8  A    between atoms: C_13  and  N_14
REMARK    9  A    between atoms: C_15  and  C_21
REMARK   10  A    between atoms: C_21  and  C_22
REMARK   11  A    between atoms: C_22  and  N_61
REMARK   12  A    between atoms: C_23  and  C_24
REMARK   13  A    between atoms: C_23  and  N_61
REMARK                            x       y       z     vdW  Elec       q    Type
REMARK                         _______ _______ _______ _____ _____    ______ ____
ROOT
ATOM      1  N   UNL     1       7.262   0.883   0.008  0.00  0.00    -0.296 N 
ATOM      2  C   UNL     1       7.950   0.708  -1.277  0.00  0.00    +0.075 C 
ATOM      3  C   UNL     1       8.906  -0.488  -1.072  0.00  0.00    +0.031 C 
ATOM      4  C   UNL     1       9.138  -0.448   0.456  0.00  0.00    +0.098 C 
ATOM      5  C   UNL     1       7.914   0.254   1.001  0.00  0.00    +0.216 C 
ATOM      6  O   UNL     1       7.569   0.248   2.163  0.00  0.00    -0.276 OA
ENDROOT
BRANCH   1   7
ATOM      7  C   UNL     1       6.027   1.651   0.186  0.00  0.00    +0.142 C 
BRANCH   7   8
ATOM      8  C   UNL     1       6.368   3.131   0.366  0.00  0.00    +0.169 C 
BRANCH   8   9
ATOM      9  O   UNL     1       7.096   3.308   1.583  0.00  0.00    -0.387 OA
ATOM     10  H   UNL     1       6.646   2.959   2.364  0.00  0.00    +0.210 HD
ENDBRANCH   8   9
BRANCH   8  11
ATOM     11  C   UNL     1       5.076   3.949   0.421  0.00  0.00    +0.261 C 
BRANCH  11  12
ATOM     12  O   UNL     1       5.395   5.341   0.471  0.00  0.00    -0.489 OA
BRANCH  12  17
ATOM     13  C   UNL     1       3.526   8.462   0.636  0.00  0.00    +0.124 A 
ATOM     14  C   UNL     1       2.224   7.981   0.633  0.00  0.00    +0.046 A 
ATOM     15  C   UNL     1       1.990   6.620   0.583  0.00  0.00    +0.007 A 
ATOM     16  C   UNL     1       3.050   5.735   0.528  0.00  0.00    +0.046 A 
ATOM     17  C   UNL     1       4.353   6.212   0.524  0.00  0.00    +0.124 A 
ATOM     18  C   UNL     1       4.591   7.577   0.576  0.00  0.00    +0.091 A 
BRANCH  13  20
ATOM     19  C   UNL     1       2.611  10.653   0.752  0.00  0.00    +0.277 C 
ATOM     20  O   UNL     1       3.756   9.800   0.692  0.00  0.00    -0.495 OA
ENDBRANCH  13  20
ENDBRANCH  12  17
ENDBRANCH  11  12
ENDBRANCH   8  11
ENDBRANCH   7   8
ENDBRANCH   1   7
BRANCH   2  21
ATOM     21  C   UNL     1       6.938   0.393  -2.381  0.00  0.00    +0.003 C 
BRANCH  21  22
ATOM     22  C   UNL     1       7.657   0.339  -3.730  0.00  0.00    -0.080 C 
BRANCH  22  23
ATOM     23  N   UNL     1       6.659   0.157  -4.802  0.00  0.00    +0.382 N 
ATOM     24  H   UNL     1       6.052   0.984  -4.844  0.00  0.00    -0.085 HD
ATOM     25  H   UNL     1       6.092  -0.674  -4.598  0.00  0.00    -0.085 HD
BRANCH  23  26
ATOM     26  C   UNL     1       7.332  -0.020  -6.103  0.00  0.00    -0.045 C 
BRANCH  26  27
ATOM     27  C   UNL     1       6.290  -0.203  -7.176  0.00  0.00    -0.042 A 
ATOM     28  C   UNL     1       6.005   0.833  -8.046  0.00  0.00    +0.052 A 
ATOM     29  C   UNL     1       5.052   0.665  -9.037  0.00  0.00    +0.167 A 
ATOM     30  C   UNL     1       4.373  -0.547  -9.147  0.00  0.00    +0.168 A 
ATOM     31  C   UNL     1       4.659  -1.579  -8.269  0.00  0.00    +0.069 A 
ATOM     32  C   UNL     1       5.616  -1.407  -7.285  0.00  0.00    +0.046 A 
ATOM     33 CL   UNL     1       5.972  -2.702  -6.186  0.00  0.00    -0.083 Cl
ATOM     34  O   UNL     1       3.491  -0.460 -10.186  0.00  0.00    -0.453 OA
ATOM     35  C   UNL     1       3.346   0.948 -10.449  0.00  0.00    +0.466 C 
ATOM     36  O   UNL     1       4.595   1.510 -10.006  0.00  0.00    -0.453 OA
ENDBRANCH  26  27
ENDBRANCH  23  26
ENDBRANCH  22  23
ENDBRANCH  21  22
ENDBRANCH   2  21
TORSDOF 12
