REMARK  Name = ZINC38478908
REMARK  15 active torsions:
REMARK  status: ('A' for Active; 'I' for Inactive)
REMARK    1  A    between atoms: C_1  and  C_2
REMARK    2  A    between atoms: C_6  and  C_30
REMARK    3  A    between atoms: C_7  and  O_8
REMARK    4  A    between atoms: O_8  and  C_9
REMARK    5  A    between atoms: C_9  and  C_10
REMARK    6  A    between atoms: C_10  and  O_12
REMARK    7  A    between atoms: O_12  and  C_13
REMARK    8  A    between atoms: C_13  and  C_15
REMARK    9  A    between atoms: C_13  and  C_16
REMARK   10  A    between atoms: C_16  and  C_18
REMARK   11  A    between atoms: C_20  and  C_29
REMARK   12  A    between atoms: C_22  and  C_25
REMARK   13  A    between atoms: C_23  and  C_24
REMARK   14  A    between atoms: C_25  and  O_27
REMARK   15  A    between atoms: O_27  and  C_28
REMARK                            x       y       z     vdW  Elec       q    Type
REMARK                         _______ _______ _______ _____ _____    ______ ____
ROOT
ATOM      1  C   UNL     1      -1.845   2.098   6.194  0.00  0.00    +0.245 C 
ATOM      2  C   UNL     1      -1.728   1.093   7.342  0.00  0.00    +0.061 C 
ENDROOT
BRANCH   1   3
ATOM      3  C   UNL     1      -2.973   3.056   6.479  0.00  0.00    +0.221 C 
ATOM      4  O   UNL     1      -4.049   2.897   5.953  0.00  0.00    -0.286 OA
BRANCH   3   5
ATOM      5  C   UNL     1      -2.763   4.195   7.405  0.00  0.00    +0.109 C 
ATOM      6  N   UNL     1      -1.646   4.452   8.013  0.00  0.00    -0.272 NA
ATOM      7  C   UNL     1      -1.833   5.652   8.836  0.00  0.00    +0.140 C 
ATOM      8  C   UNL     1      -3.268   6.078   8.619  0.00  0.00    +0.065 C 
ATOM      9  C   UNL     1      -3.791   5.187   7.754  0.00  0.00    -0.010 C 
ATOM     10  C   UNL     1      -5.204   5.202   7.230  0.00  0.00    +0.046 C 
ATOM     11  C   UNL     1      -0.877   6.758   8.383  0.00  0.00    +0.038 C 
BRANCH   8  12
ATOM     12  C   UNL     1      -3.950   7.231   9.223  0.00  0.00    +0.337 C 
ATOM     13  O   UNL     1      -5.115   7.455   8.957  0.00  0.00    -0.245 OA
BRANCH  12  14
ATOM     14  O   UNL     1      -3.285   8.039  10.073  0.00  0.00    -0.465 OA
ATOM     15  C   UNL     1      -4.011   9.140  10.623  0.00  0.00    +0.280 C 
ENDBRANCH  12  14
ENDBRANCH   8  12
ENDBRANCH   3   5
ENDBRANCH   1   3
BRANCH   1  16
ATOM     16  O   UNL     1      -2.109   1.401   4.976  0.00  0.00    -0.451 OA
BRANCH  16  17
ATOM     17  C   UNL     1      -1.046   1.011   4.254  0.00  0.00    +0.346 C 
ATOM     18  O   UNL     1       0.071   1.254   4.645  0.00  0.00    -0.247 OA
BRANCH  17  19
ATOM     19  C   UNL     1      -1.246   0.270   2.957  0.00  0.00    +0.349 C 
BRANCH  19  20
ATOM     20  O   UNL     1       0.025  -0.033   2.381  0.00  0.00    -0.480 OA
BRANCH  20  27
ATOM     21  C   UNL     1      -0.018   1.503   0.010  0.00  0.00    +0.047 C 
ATOM     22  C   UNL     1       0.002  -0.004   0.002  0.00  0.00    -0.009 A 
ATOM     23  C   UNL     1       0.006  -0.689  -1.198  0.00  0.00    +0.007 A 
ATOM     24  C   UNL     1       0.024  -2.071  -1.206  0.00  0.00    +0.001 A 
ATOM     25  C   UNL     1       0.040  -2.772  -0.014  0.00  0.00    +0.007 A 
ATOM     26  C   UNL     1       0.036  -2.092   1.188  0.00  0.00    -0.009 A 
ATOM     27  C   UNL     1       0.023  -0.705   1.199  0.00  0.00    +0.127 A 
ATOM     28  C   UNL     1       0.052  -2.856   2.487  0.00  0.00    +0.047 C 
ENDBRANCH  20  27
ENDBRANCH  19  20
ENDBRANCH  17  19
ENDBRANCH  16  17
ENDBRANCH   1  16
TORSDOF 9
