REMARK  Name = ZINC09950472
REMARK  12 active torsions:
REMARK  status: ('A' for Active; 'I' for Inactive)
REMARK    1  A    between atoms: C_1  and  C_2
REMARK    2  A    between atoms: C_3  and  C_33
REMARK    3  A    between atoms: C_4  and  C_32
REMARK    4  A    between atoms: C_7  and  C_8
REMARK    5  A    between atoms: C_8  and  C_10
REMARK    6  A    between atoms: C_10  and  C_12
REMARK    7  A    between atoms: C_10  and  S_13
REMARK    8  A    between atoms: S_13  and  C_14
REMARK    9  A    between atoms: C_17  and  C_26
REMARK   10  A    between atoms: N_18  and  C_19
REMARK   11  A    between atoms: C_26  and  N_64
REMARK   12  A    between atoms: C_33  and  C_35
REMARK                            x       y       z     vdW  Elec       q    Type
REMARK                         _______ _______ _______ _____ _____    ______ ____
ROOT
ATOM      1  C   UNL     1      -9.406   3.285   1.252  0.00  0.00    +0.197 A 
ATOM      2  N   UNL     1      -9.270   3.332  -0.053  0.00  0.00    -0.122 NA
ATOM      3  N   UNL     1     -10.426   3.402  -0.611  0.00  0.00    -0.135 NA
ATOM      4  C   UNL     1     -11.362   3.405   0.295  0.00  0.00    +0.122 A 
ATOM      5  N   UNL     1     -10.747   3.325   1.516  0.00  0.00    -0.276 N 
ENDROOT
BRANCH   5   6
ATOM      6  C   UNL     1     -11.364   3.293   2.776  0.00  0.00    +0.050 A 
ATOM      7  C   UNL     1     -12.171   2.219   3.127  0.00  0.00    +0.029 A 
ATOM      8  C   UNL     1     -12.774   2.187   4.370  0.00  0.00    +0.040 A 
ATOM      9  C   UNL     1     -12.582   3.230   5.261  0.00  0.00    +0.124 A 
ATOM     10  C   UNL     1     -11.781   4.304   4.910  0.00  0.00    +0.040 A 
ATOM     11  C   UNL     1     -11.173   4.337   3.670  0.00  0.00    +0.029 A 
ATOM     12  F   UNL     1     -13.177   3.199   6.473  0.00  0.00    -0.205 F 
ENDBRANCH   5   6
BRANCH   1  13
ATOM     13  S   UNL     1      -8.106   3.183   2.437  0.00  0.00    -0.074 S 
BRANCH  13  14
ATOM     14  C   UNL     1      -6.673   3.168   1.332  0.00  0.00    +0.124 C 
ATOM     15  C   UNL     1      -6.586   4.504   0.591  0.00  0.00    +0.028 C 
BRANCH  14  16
ATOM     16  C   UNL     1      -5.418   2.959   2.140  0.00  0.00    +0.192 C 
ATOM     17  O   UNL     1      -5.390   3.277   3.311  0.00  0.00    -0.289 OA
BRANCH  16  24
ATOM     18  C   UNL     1      -2.721   2.433   3.591  0.00  0.00    +0.047 C 
ATOM     19  C   UNL     1      -3.066   2.149   2.152  0.00  0.00    -0.012 A 
ATOM     20  C   UNL     1      -2.213   1.582   1.177  0.00  0.00    +0.041 A 
ATOM     21  C   UNL     1      -2.936   1.508  -0.004  0.00  0.00    +0.024 A 
ATOM     22  N   UNL     1      -4.167   1.990   0.216  0.00  0.00    -0.355 N 
ATOM     23  H   UNL     1      -4.873   2.049  -0.446  0.00  0.00    +0.166 HD
ATOM     24  C   UNL     1      -4.271   2.393   1.532  0.00  0.00    +0.087 A 
ATOM     25  C   UNL     1      -2.424   0.972  -1.316  0.00  0.00    +0.064 C 
BRANCH  20  26
ATOM     26  C   UNL     1      -0.824   1.157   1.376  0.00  0.00    +0.162 C 
ATOM     27  O   UNL     1       0.085   1.932   1.159  0.00  0.00    -0.292 OA
ATOM     28  C   UNL     1      -0.523  -0.241   1.851  0.00  0.00    +0.091 C 
ENDBRANCH  20  26
ENDBRANCH  16  24
ENDBRANCH  14  16
ENDBRANCH  13  14
ENDBRANCH   1  13
BRANCH   4  29
ATOM     29  C   UNL     1     -12.847   3.476   0.046  0.00  0.00    -0.001 C 
BRANCH  29  35
ATOM     30  C   UNL     1     -12.856   1.459  -1.292  0.00  0.00    -0.078 C 
ATOM     31  C   UNL     1     -13.323   0.001  -1.325  0.00  0.00    -0.019 C 
ATOM     32  C   UNL     1     -14.853  -0.040  -1.331  0.00  0.00    -0.004 C 
ATOM     33  C   UNL     1     -15.381   0.694  -0.095  0.00  0.00    -0.019 C 
ATOM     34  C   UNL     1     -14.855   2.131  -0.098  0.00  0.00    -0.078 C 
ATOM     35  N   UNL     1     -13.377   2.102  -0.067  0.00  0.00    +0.384 N 
ATOM     36  H   UNL     1     -13.072   1.559   0.750  0.00  0.00    -0.081 HD
ENDBRANCH  29  35
ENDBRANCH   4  29
TORSDOF 8
