REMARK  Name = ZINC09814332
REMARK  11 active torsions:
REMARK  status: ('A' for Active; 'I' for Inactive)
REMARK    1  A    between atoms: C_1  and  C_2
REMARK    2  A    between atoms: C_5  and  S_8
REMARK    3  A    between atoms: S_8  and  C_11
REMARK    4  A    between atoms: C_11  and  C_12
REMARK    5  A    between atoms: C_12  and  C_13
REMARK    6  A    between atoms: C_13  and  C_14
REMARK    7  A    between atoms: C_20  and  C_22
REMARK    8  A    between atoms: C_25  and  S_28
REMARK    9  A    between atoms: S_28  and  C_31
REMARK   10  A    between atoms: C_31  and  C_32
REMARK   11  A    between atoms: C_31  and  C_33
REMARK                            x       y       z     vdW  Elec       q    Type
REMARK                         _______ _______ _______ _____ _____    ______ ____
ROOT
ATOM      1  C   UNL     1      -0.919   1.915  -5.101  0.00  0.00    +0.221 C 
ATOM      2  O   UNL     1       0.140   1.330  -5.189  0.00  0.00    -0.275 OA
ATOM      3  N   UNL     1      -1.582   2.281  -6.215  0.00  0.00    -0.238 N 
ATOM      4  C   UNL     1      -1.053   1.989  -7.463  0.00  0.00    +0.314 A 
ATOM      5  N   UNL     1       0.079   1.371  -7.701  0.00  0.00    -0.092 NA
ATOM      6  N   UNL     1       0.252   1.269  -8.971  0.00  0.00    -0.106 NA
ATOM      7  C   UNL     1      -0.758   1.827  -9.595  0.00  0.00    +0.250 A 
ATOM      8  O   UNL     1      -1.605   2.294  -8.652  0.00  0.00    -0.405 OA
ATOM      9  H   UNL     1      -2.429   2.748  -6.145  0.00  0.00    +0.159 HD
ENDROOT
BRANCH   7  10
ATOM     10  C   UNL     1      -0.936   1.925 -11.058  0.00  0.00    +0.039 A 
ATOM     11  C   UNL     1      -2.071   2.545 -11.586  0.00  0.00    +0.015 A 
ATOM     12  C   UNL     1      -2.229   2.638 -12.953  0.00  0.00    +0.028 A 
ATOM     13  C   UNL     1      -1.271   2.109 -13.801  0.00  0.00    +0.088 A 
ATOM     14  C   UNL     1      -0.147   1.489 -13.284  0.00  0.00    +0.028 A 
ATOM     15  C   UNL     1       0.026   1.394 -11.919  0.00  0.00    +0.015 A 
BRANCH  13  16
ATOM     16  S   UNL     1      -1.485   2.226 -15.546  0.00  0.00    -0.001 S 
ATOM     17  O   UNL     1      -2.308   3.369 -15.735  0.00  0.00    -0.169 OA
ATOM     18  O   UNL     1      -0.167   2.188 -16.076  0.00  0.00    -0.169 OA
BRANCH  16  19
ATOM     19  C   UNL     1      -2.388   0.722 -16.007  0.00  0.00    +0.130 C 
ATOM     20  C   UNL     1      -2.522   0.655 -17.530  0.00  0.00    +0.032 C 
ATOM     21  C   UNL     1      -1.623  -0.505 -15.508  0.00  0.00    +0.032 C 
ENDBRANCH  16  19
ENDBRANCH  13  16
ENDBRANCH   7  10
BRANCH   1  22
ATOM     22  C   UNL     1      -1.493   2.232  -3.744  0.00  0.00    +0.098 C 
BRANCH  22  23
ATOM     23  C   UNL     1      -0.551   1.712  -2.657  0.00  0.00    +0.032 C 
BRANCH  23  24
ATOM     24  C   UNL     1      -1.135   2.034  -1.279  0.00  0.00    +0.172 C 
BRANCH  24  25
ATOM     25  S   UNL     1      -0.017   1.417   0.010  0.00  0.00    -0.003 S 
ATOM     26  O   UNL     1       0.002  -0.004   0.002  0.00  0.00    -0.169 OA
ATOM     27  O   UNL     1       1.195   2.158   0.002  0.00  0.00    -0.169 OA
BRANCH  25  32
ATOM     28  C   UNL     1      -2.690   2.891   5.215  0.00  0.00    +0.044 C 
ATOM     29  C   UNL     1      -2.022   2.523   3.915  0.00  0.00    -0.050 A 
ATOM     30  C   UNL     1      -2.295   1.306   3.318  0.00  0.00    +0.005 A 
ATOM     31  C   UNL     1      -1.683   0.968   2.126  0.00  0.00    +0.027 A 
ATOM     32  C   UNL     1      -0.798   1.847   1.530  0.00  0.00    +0.088 A 
ATOM     33  C   UNL     1      -0.521   3.062   2.129  0.00  0.00    +0.027 A 
ATOM     34  C   UNL     1      -1.137   3.402   3.319  0.00  0.00    +0.005 A 
ENDBRANCH  25  32
ENDBRANCH  24  25
ENDBRANCH  23  24
ENDBRANCH  22  23
ENDBRANCH   1  22
TORSDOF 8
