REMARK  Name = ZINC33670901
REMARK  15 active torsions:
REMARK  status: ('A' for Active; 'I' for Inactive)
REMARK    1  A    between atoms: C_1  and  C_2
REMARK    2  A    between atoms: C_5  and  C_11
REMARK    3  A    between atoms: C_7  and  N_8
REMARK    4  A    between atoms: C_11  and  O_13
REMARK    5  A    between atoms: O_13  and  C_14
REMARK    6  A    between atoms: C_17  and  C_20
REMARK    7  A    between atoms: C_21  and  N_29
REMARK    8  A    between atoms: N_29  and  C_30
REMARK    9  A    between atoms: C_30  and  C_31
REMARK   10  A    between atoms: C_30  and  C_32
REMARK   11  A    between atoms: C_30  and  C_33
REMARK   12  A    between atoms: C_33  and  C_34
REMARK   13  A    between atoms: C_34  and  C_35
REMARK   14  A    between atoms: C_34  and  C_36
REMARK   15  A    between atoms: C_34  and  C_37
REMARK                            x       y       z     vdW  Elec       q    Type
REMARK                         _______ _______ _______ _____ _____    ______ ____
ROOT
ATOM      1  C   UNL     1      -7.615  -5.155  -1.041  0.00  0.00    +0.087 A 
ATOM      2  C   UNL     1      -8.272  -4.129  -0.184  0.00  0.00    +0.129 A 
ATOM      3  N   UNL     1      -9.610  -4.475  -0.165  0.00  0.00    -0.289 N 
ATOM      4  C   UNL     1     -10.681  -3.904   0.450  0.00  0.00    +0.094 A 
ATOM      5  C   UNL     1     -11.929  -4.443   0.323  0.00  0.00    +0.018 A 
ATOM      6  C   UNL     1     -12.111  -5.590  -0.442  0.00  0.00    +0.005 A 
ATOM      7  C   UNL     1     -11.014  -6.175  -1.072  0.00  0.00    +0.045 A 
ATOM      8  C   UNL     1      -9.753  -5.604  -0.926  0.00  0.00    +0.117 A 
ATOM      9  N   UNL     1      -8.558  -5.981  -1.429  0.00  0.00    -0.338 N 
ATOM     10  H   UNL     1      -8.309  -6.835  -2.076  0.00  0.00    +0.167 HD
ENDROOT
BRANCH   1  14
ATOM     11  C   UNL     1      -3.501  -5.377  -2.017  0.00  0.00    +0.132 A 
ATOM     12  C   UNL     1      -4.115  -4.135  -1.876  0.00  0.00    +0.047 A 
ATOM     13  C   UNL     1      -5.443  -4.058  -1.567  0.00  0.00    +0.013 A 
ATOM     14  C   UNL     1      -6.186  -5.232  -1.380  0.00  0.00    +0.002 A 
ATOM     15  C   UNL     1      -5.561  -6.481  -1.518  0.00  0.00    +0.013 A 
ATOM     16  C   UNL     1      -4.234  -6.546  -1.833  0.00  0.00    +0.047 A 
BRANCH  11  17
ATOM     17  O   UNL     1      -2.183  -5.448  -2.329  0.00  0.00    -0.422 OA
BRANCH  17  18
ATOM     18  C   UNL     1      -1.871  -5.796  -3.593  0.00  0.00    +0.345 C 
ATOM     19  O   UNL     1      -2.750  -6.117  -4.369  0.00  0.00    -0.245 OA
BRANCH  18  24
ATOM     20  C   UNL     1       3.618  -5.763  -5.317  0.00  0.00    +0.046 C 
ATOM     21  C   UNL     1       2.180  -5.771  -4.866  0.00  0.00    -0.020 A 
ATOM     22  C   UNL     1       1.863  -5.412  -3.567  0.00  0.00    +0.006 A 
ATOM     23  C   UNL     1       0.550  -5.418  -3.147  0.00  0.00    +0.015 A 
ATOM     24  C   UNL     1      -0.462  -5.787  -4.036  0.00  0.00    +0.062 A 
ATOM     25  C   UNL     1      -0.136  -6.147  -5.345  0.00  0.00    +0.048 A 
ATOM     26  C   UNL     1       1.182  -6.136  -5.752  0.00  0.00    +0.130 A 
BRANCH  26  27
ATOM     27  N   UNL     1       1.530  -6.518  -7.139  0.00  0.00    +0.057 N 
ATOM     28  O   UNL     1       0.592  -6.942  -7.960  0.00  0.00    -0.126 OA
ATOM     29  O   UNL     1       2.777  -6.432  -7.553  0.00  0.00    -0.126 OA
ENDBRANCH  26  27
ENDBRANCH  18  24
ENDBRANCH  17  18
ENDBRANCH  11  17
ENDBRANCH   1  14
BRANCH   2  30
ATOM     30  N   UNL     1      -7.695  -3.099   0.429  0.00  0.00    -0.323 N 
ATOM     31  H   UNL     1      -6.647  -2.767   0.386  0.00  0.00    +0.148 HD
BRANCH  30  32
ATOM     32  C   UNL     1      -8.665  -2.366   1.252  0.00  0.00    +0.028 C 
ATOM     33  C   UNL     1      -9.757  -1.780   0.355  0.00  0.00    +0.031 C 
ATOM     34  C   UNL     1      -9.298  -3.321   2.267  0.00  0.00    +0.031 C 
BRANCH  32  35
ATOM     35  C   UNL     1      -7.952  -1.234   1.994  0.00  0.00    +0.031 C 
BRANCH  35  36
ATOM     36  C   UNL     1      -8.917  -0.590   2.991  0.00  0.00    -0.036 C 
ATOM     37  C   UNL     1      -9.013  -1.462   4.244  0.00  0.00    +0.010 C 
ATOM     38  C   UNL     1      -8.403   0.799   3.375  0.00  0.00    +0.010 C 
ATOM     39  C   UNL     1     -10.302  -0.463   2.352  0.00  0.00    +0.010 C 
ENDBRANCH  35  36
ENDBRANCH  32  35
ENDBRANCH  30  32
ENDBRANCH   2  30
TORSDOF 9
