REMARK  Name = ZINC04574838
REMARK  6 active torsions:
REMARK  status: ('A' for Active; 'I' for Inactive)
REMARK    1  A    between atoms: C_1  and  C_2
REMARK    2  A    between atoms: C_3  and  C_27
REMARK    3  A    between atoms: C_4  and  C_20
REMARK    4  A    between atoms: C_10  and  S_12
REMARK    5  A    between atoms: S_12  and  C_13
REMARK    6  A    between atoms: C_13  and  C_14
REMARK                            x       y       z     vdW  Elec       q    Type
REMARK                         _______ _______ _______ _____ _____    ______ ____
ROOT
ATOM      1  C   UNL     1       0.076   1.473   0.140  0.00  0.00    +0.064 C 
ATOM      2  C   UNL     1       0.058  -0.031   0.043  0.00  0.00    +0.026 C 
ATOM      3  C   UNL     1      -1.146  -0.679   0.010  0.00  0.00    +0.059 C 
ATOM      4  C   UNL     1      -1.116  -2.194  -0.088  0.00  0.00    +0.167 C 
ATOM      5  N   UNL     1       0.214  -2.812  -0.138  0.00  0.00    -0.187 N 
ATOM      6  C   UNL     1       1.326  -2.002  -0.094  0.00  0.00    +0.217 C 
ATOM      7  N   UNL     1       1.208  -0.684  -0.013  0.00  0.00    -0.330 N 
ATOM      8  N   UNL     1       2.403  -2.796  -0.153  0.00  0.00    -0.190 NA
ATOM      9  C   UNL     1       2.036  -4.063  -0.233  0.00  0.00    +0.197 C 
ATOM     10  N   UNL     1       0.669  -4.130  -0.227  0.00  0.00    -0.118 NA
ATOM     11  H   UNL     1       2.024  -0.161   0.011  0.00  0.00    +0.168 HD
ENDROOT
BRANCH   4  12
ATOM     12  C   UNL     1      -1.864  -2.599  -1.333  0.00  0.00    -0.002 A 
ATOM     13  C   UNL     1      -2.073  -1.679  -2.343  0.00  0.00    +0.007 A 
ATOM     14  C   UNL     1      -2.759  -2.050  -3.484  0.00  0.00    +0.000 A 
ATOM     15  C   UNL     1      -3.236  -3.341  -3.616  0.00  0.00    +0.001 A 
ATOM     16  C   UNL     1      -3.028  -4.261  -2.606  0.00  0.00    +0.020 A 
ATOM     17  C   UNL     1      -2.336  -3.892  -1.466  0.00  0.00    +0.046 A 
ATOM     18 CL   UNL     1      -2.068  -5.049  -0.200  0.00  0.00    -0.083 Cl
ENDBRANCH   4  12
BRANCH   3  19
ATOM     19  C   UNL     1      -2.360   0.028   0.065  0.00  0.00    +0.241 C 
ATOM     20  O   UNL     1      -2.354   1.239   0.199  0.00  0.00    -0.271 OA
ATOM     21  N   UNL     1      -3.530  -0.634  -0.030  0.00  0.00    -0.325 N 
ATOM     22  H   UNL     1      -3.538  -1.604  -0.051  0.00  0.00    +0.145 HD
ATOM     23  H   UNL     1      -4.364  -0.141  -0.078  0.00  0.00    +0.145 HD
ENDBRANCH   3  19
BRANCH   9  24
ATOM     24  S   UNL     1       3.128  -5.442  -0.330  0.00  0.00    -0.083 S 
BRANCH  24  25
ATOM     25  C   UNL     1       4.782  -4.696  -0.293  0.00  0.00    +0.112 C 
BRANCH  25  26
ATOM     26  C   UNL     1       5.824  -5.781  -0.371  0.00  0.00    -0.037 A 
ATOM     27  C   UNL     1       6.307  -6.361   0.788  0.00  0.00    +0.004 A 
ATOM     28  C   UNL     1       7.263  -7.356   0.716  0.00  0.00    +0.000 A 
ATOM     29  C   UNL     1       7.737  -7.772  -0.514  0.00  0.00    +0.000 A 
ATOM     30  C   UNL     1       7.254  -7.194  -1.672  0.00  0.00    +0.000 A 
ATOM     31  C   UNL     1       6.294  -6.201  -1.601  0.00  0.00    +0.004 A 
ENDBRANCH  25  26
ENDBRANCH  24  25
ENDBRANCH   9  24
TORSDOF 5
