REMARK  Name = ZINC50186702
REMARK  2 active torsions:
REMARK  status: ('A' for Active; 'I' for Inactive)
REMARK    1  A    between atoms: C_6  and  C_7
REMARK    2  A    between atoms: C_16  and  C_18
REMARK                            x       y       z     vdW  Elec       q    Type
REMARK                         _______ _______ _______ _____ _____    ______ ____
ROOT
ATOM      1  C   UNL     1      -1.266  -0.763   0.011  0.00  0.00    +0.022 A 
ATOM      2  C   UNL     1      -1.451  -2.115   0.011  0.00  0.00    +0.044 A 
ATOM      3  C   UNL     1      -2.745  -2.643   0.020  0.00  0.00    +0.086 A 
ATOM      4  C   UNL     1      -3.788  -1.698   0.029  0.00  0.00    +0.102 A 
ATOM      5  S   UNL     1      -2.939  -0.141   0.031  0.00  0.00    -0.081 S 
ATOM      6  C   UNL     1      -5.126  -2.093   0.039  0.00  0.00    +0.266 A 
ATOM      7  O   UNL     1      -6.023  -1.268   0.046  0.00  0.00    -0.267 OA
ATOM      8  N   UNL     1      -5.400  -3.420   0.040  0.00  0.00    -0.310 N 
ATOM      9  H   UNL     1      -6.319  -3.730   0.047  0.00  0.00    +0.170 HD
ATOM     10  C   UNL     1      -4.375  -4.312   0.032  0.00  0.00    +0.113 A 
ATOM     11  N   UNL     1      -3.129  -3.962   0.022  0.00  0.00    -0.233 NA
ENDROOT
BRANCH   1  17
ATOM     12  C   UNL     1      -0.017   1.391   0.010  0.00  0.00    +0.010 A 
ATOM     13  C   UNL     1       1.170   2.095   0.002  0.00  0.00    +0.020 A 
ATOM     14  C   UNL     1       2.378   1.419  -0.013  0.00  0.00    +0.041 A 
ATOM     15  C   UNL     1       2.403   0.034  -0.022  0.00  0.00    +0.020 A 
ATOM     16  C   UNL     1       1.223  -0.680  -0.014  0.00  0.00    +0.010 A 
ATOM     17  C   UNL     1       0.002  -0.004   0.002  0.00  0.00    -0.011 A 
ATOM     18 CL   UNL     1       3.868   2.310  -0.024  0.00  0.00    -0.084 Cl
ENDBRANCH   1  17
BRANCH  10  19
ATOM     19  C   UNL     1      -4.706  -5.783   0.033  0.00  0.00    +0.055 C 
ATOM     20  C   UNL     1      -3.895  -6.688   0.963  0.00  0.00    +0.012 C 
ATOM     21  C   UNL     1      -3.666  -6.742  -0.549  0.00  0.00    +0.012 C 
ENDBRANCH  10  19
TORSDOF 2
