REMARK  Name = ZINC49519063
REMARK  7 active torsions:
REMARK  status: ('A' for Active; 'I' for Inactive)
REMARK    1  A    between atoms: C_1  and  C_2
REMARK    2  A    between atoms: C_5  and  C_9
REMARK    3  A    between atoms: C_6  and  C_8
REMARK    4  A    between atoms: C_11  and  C_14
REMARK    5  A    between atoms: N_16  and  C_17
REMARK    6  A    between atoms: C_17  and  C_18
REMARK    7  A    between atoms: C_17  and  C_19
REMARK                            x       y       z     vdW  Elec       q    Type
REMARK                         _______ _______ _______ _____ _____    ______ ____
ROOT
ATOM      1  C   UNL     1      -0.331  -4.217  -0.277  0.00  0.00    +0.109 A 
ATOM      2  N   UNL     1      -0.423  -4.944  -1.375  0.00  0.00    -0.234 NA
ATOM      3  C   UNL     1      -0.586  -6.254  -1.254  0.00  0.00    +0.133 A 
ATOM      4  C   UNL     1      -0.652  -6.804  -0.002  0.00  0.00    +0.080 A 
ATOM      5  S   UNL     1      -0.476  -5.460   0.996  0.00  0.00    -0.075 S 
ENDROOT
BRANCH   1  10
ATOM      6  C   UNL     1       0.378   1.468   0.268  0.00  0.00    +0.044 C 
ATOM      7  C   UNL     1       0.192  -0.021   0.125  0.00  0.00    -0.050 A 
ATOM      8  C   UNL     1      -0.766  -0.671   0.882  0.00  0.00    +0.004 A 
ATOM      9  C   UNL     1      -0.941  -2.034   0.757  0.00  0.00    +0.011 A 
ATOM     10  C   UNL     1      -0.149  -2.756  -0.137  0.00  0.00    +0.010 A 
ATOM     11  C   UNL     1       0.815  -2.094  -0.898  0.00  0.00    -0.041 A 
ATOM     12  C   UNL     1       0.977  -0.730  -0.766  0.00  0.00    +0.007 A 
ATOM     13  C   UNL     1       1.674  -2.867  -1.865  0.00  0.00    +0.044 C 
ENDBRANCH   1  10
BRANCH   3  14
ATOM     14  C   UNL     1      -0.695  -7.107  -2.451  0.00  0.00    +0.263 C 
ATOM     15  O   UNL     1      -0.844  -8.308  -2.330  0.00  0.00    -0.269 OA
ATOM     16  N   UNL     1      -0.628  -6.556  -3.679  0.00  0.00    -0.308 N 
ATOM     17  H   UNL     1      -0.509  -5.598  -3.775  0.00  0.00    +0.149 HD
BRANCH  16  18
ATOM     18  C   UNL     1      -0.736  -7.404  -4.869  0.00  0.00    +0.067 C 
ATOM     19  C   UNL     1      -2.212  -7.622  -5.207  0.00  0.00    +0.027 C 
ATOM     20  C   UNL     1      -0.038  -6.720  -6.047  0.00  0.00    +0.027 C 
ENDBRANCH  16  18
ENDBRANCH   3  14
TORSDOF 3
