REMARK  Name = ZINC67298612
REMARK  5 active torsions:
REMARK  status: ('A' for Active; 'I' for Inactive)
REMARK    1  A    between atoms: C_6  and  N_7
REMARK    2  A    between atoms: C_9  and  C_19
REMARK    3  A    between atoms: C_14  and  O_18
REMARK    4  A    between atoms: N_21  and  C_22
REMARK    5  A    between atoms: C_22  and  C_23
REMARK                            x       y       z     vdW  Elec       q    Type
REMARK                         _______ _______ _______ _____ _____    ______ ____
ROOT
ATOM      1  N   UNL     1      -1.178  -0.701   0.007  0.00  0.00    -0.325 N 
ATOM      2  C   UNL     1      -1.334  -1.726  -0.802  0.00  0.00    +0.212 A 
ATOM      3  C   UNL     1      -2.545  -2.569  -0.742  0.00  0.00    +0.097 A 
ATOM      4  C   UNL     1      -2.907  -3.249  -1.896  0.00  0.00    +0.030 A 
ATOM      5  C   UNL     1      -2.078  -3.116  -3.039  0.00  0.00    +0.018 A 
ATOM      6  C   UNL     1      -2.499  -3.614  -4.282  0.00  0.00    +0.015 A 
ATOM      7  C   UNL     1      -1.712  -3.444  -5.383  0.00  0.00    +0.046 A 
ATOM      8  C   UNL     1      -0.488  -2.786  -5.284  0.00  0.00    +0.120 A 
ATOM      9  C   UNL     1      -0.046  -2.305  -4.060  0.00  0.00    +0.092 A 
ATOM     10  C   UNL     1      -0.829  -2.474  -2.931  0.00  0.00    +0.141 A 
ATOM     11  O   UNL     1      -0.390  -2.043  -1.725  0.00  0.00    -0.438 OA
ATOM     12  H   UNL     1      -1.899  -0.436   0.599  0.00  0.00    +0.169 HD
ENDROOT
BRANCH   1  18
ATOM     13  C   UNL     1      -0.006   1.389   0.017  0.00  0.00    +0.028 A 
ATOM     14  C   UNL     1       1.187   2.082   0.024  0.00  0.00    +0.040 A 
ATOM     15  C   UNL     1       2.390   1.395   0.026  0.00  0.00    +0.124 A 
ATOM     16  C   UNL     1       2.404   0.010   0.021  0.00  0.00    +0.040 A 
ATOM     17  C   UNL     1       1.218  -0.694   0.015  0.00  0.00    +0.028 A 
ATOM     18  C   UNL     1       0.002  -0.008   0.013  0.00  0.00    +0.042 A 
ATOM     19  F   UNL     1       3.555   2.080   0.032  0.00  0.00    -0.205 F 
ENDBRANCH   1  18
BRANCH   3  20
ATOM     20  C   UNL     1      -3.337  -2.683   0.493  0.00  0.00    +0.249 C 
ATOM     21  O   UNL     1      -3.049  -2.010   1.465  0.00  0.00    -0.270 OA
ATOM     22  N   UNL     1      -4.380  -3.534   0.548  0.00  0.00    -0.309 N 
ATOM     23  H   UNL     1      -4.565  -4.124  -0.199  0.00  0.00    +0.149 HD
BRANCH  22  24
ATOM     24  C   UNL     1      -5.237  -3.567   1.736  0.00  0.00    +0.136 C 
BRANCH  24  25
ATOM     25  C   UNL     1      -6.338  -4.612   1.542  0.00  0.00    +0.135 C 
ATOM     26  C   UNL     1      -7.277  -4.639   2.775  0.00  0.00    +0.035 C 
ATOM     27  C   UNL     1      -8.578  -5.203   2.142  0.00  0.00    +0.031 C 
ATOM     28  C   UNL     1      -8.539  -4.601   0.721  0.00  0.00    +0.160 C 
ATOM     29  O   UNL     1      -7.179  -4.250   0.436  0.00  0.00    -0.375 OA
ENDBRANCH  24  25
ENDBRANCH  22  24
ENDBRANCH   3  20
BRANCH   8  30
ATOM     30  O   UNL     1       0.278  -2.615  -6.391  0.00  0.00    -0.507 OA
ATOM     31  H   UNL     1       0.098  -1.794  -6.870  0.00  0.00    +0.292 HD
ENDBRANCH   8  30
TORSDOF 5
