REMARK  Name = ZINC20235322
REMARK  8 active torsions:
REMARK  status: ('A' for Active; 'I' for Inactive)
REMARK    1  A    between atoms: C_4  and  C_7
REMARK    2  A    between atoms: C_7  and  S_8
REMARK    3  A    between atoms: S_8  and  N_11
REMARK    4  A    between atoms: N_11  and  C_12
REMARK    5  A    between atoms: C_12  and  C_13
REMARK    6  A    between atoms: N_18  and  C_20
REMARK    7  A    between atoms: C_20  and  C_21
REMARK    8  A    between atoms: C_26  and  C_27
REMARK                            x       y       z     vdW  Elec       q    Type
REMARK                         _______ _______ _______ _____ _____    ______ ____
ROOT
ATOM      1  C   UNL     1       1.374  -1.988  -2.210  0.00  0.00    -0.012 C 
ATOM      2  C   UNL     1       2.206  -2.678  -1.125  0.00  0.00    +0.001 C 
ATOM      3  C   UNL     1       1.507  -2.511   0.227  0.00  0.00    -0.018 C 
ATOM      4  C   UNL     1       1.323  -1.020   0.520  0.00  0.00    -0.078 C 
ATOM      5  N   UNL     1       0.520  -0.406  -0.546  0.00  0.00    +0.383 N 
ATOM      6  C   UNL     1       1.194  -0.513  -1.846  0.00  0.00    -0.074 C 
ATOM      7  H   UNL     1      -0.427  -0.960  -0.613  0.00  0.00    -0.081 HD
ENDROOT
BRANCH   1   8
ATOM      8  C   UNL     1       2.095  -2.099  -3.555  0.00  0.00    +0.107 C 
BRANCH   8   9
ATOM      9  N   UNL     1       2.165  -3.506  -3.956  0.00  0.00    -0.194 NA
ATOM     10  H   UNL     1       2.126  -4.299  -3.194  0.00  0.00    +0.148 HD
BRANCH   9  11
ATOM     11  S   UNL     1       2.549  -3.904  -5.518  0.00  0.00    +0.033 S 
ATOM     12  O   UNL     1       2.501  -5.324  -5.553  0.00  0.00    -0.158 OA
ATOM     13  O   UNL     1       1.665  -3.129  -6.316  0.00  0.00    -0.158 OA
BRANCH  11  14
ATOM     14  C   UNL     1       4.256  -3.331  -5.738  0.00  0.00    +0.220 C 
BRANCH  14  18
ATOM     15  C   UNL     1       5.555  -4.219  -9.710  0.00  0.00    +0.000 A 
ATOM     16  C   UNL     1       4.939  -3.011  -9.437  0.00  0.00    +0.000 A 
ATOM     17  C   UNL     1       4.519  -2.724  -8.152  0.00  0.00    +0.005 A 
ATOM     18  C   UNL     1       4.714  -3.644  -7.139  0.00  0.00    -0.025 A 
ATOM     19  C   UNL     1       5.334  -4.850  -7.410  0.00  0.00    +0.005 A 
ATOM     20  C   UNL     1       5.749  -5.139  -8.697  0.00  0.00    +0.000 A 
ENDBRANCH  14  18
ENDBRANCH  11  14
ENDBRANCH   9  11
ENDBRANCH   8   9
ENDBRANCH   1   8
BRANCH   5  21
ATOM     21  C   UNL     1       0.206   0.993  -0.228  0.00  0.00    -0.039 C 
BRANCH  21  22
ATOM     22  C   UNL     1       1.478   1.803  -0.214  0.00  0.00    -0.019 A 
ATOM     23  C   UNL     1       1.952   2.557  -1.230  0.00  0.00    +0.107 A 
ATOM     24  N   UNL     1       3.108   3.123  -0.824  0.00  0.00    -0.284 N 
ATOM     25  H   UNL     1       3.662   3.789  -1.502  0.00  0.00    +0.188 HD
ATOM     26  N   UNL     1       3.366   2.699   0.485  0.00  0.00    -0.174 NA
ATOM     27  C   UNL     1       2.386   1.902   0.857  0.00  0.00    +0.094 A 
BRANCH  27  28
ATOM     28  C   UNL     1       2.260   1.229   2.174  0.00  0.00    +0.002 A 
ATOM     29  C   UNL     1       1.029   1.192   2.825  0.00  0.00    +0.010 A 
ATOM     30  C   UNL     1       0.916   0.561   4.048  0.00  0.00    +0.001 A 
ATOM     31  C   UNL     1       2.025  -0.025   4.631  0.00  0.00    +0.000 A 
ATOM     32  C   UNL     1       3.251   0.013   3.991  0.00  0.00    +0.001 A 
ATOM     33  C   UNL     1       3.373   0.637   2.766  0.00  0.00    +0.010 A 
ENDBRANCH  27  28
ENDBRANCH  21  22
ENDBRANCH   5  21
TORSDOF 8
