REMARK  Name = ZINC44729214
REMARK  10 active torsions:
REMARK  status: ('A' for Active; 'I' for Inactive)
REMARK    1  A    between atoms: C_1  and  C_2
REMARK    2  A    between atoms: C_4  and  C_8
REMARK    3  A    between atoms: C_5  and  C_7
REMARK    4  A    between atoms: C_8  and  C_10
REMARK    5  A    between atoms: C_8  and  N_11
REMARK    6  A    between atoms: C_12  and  C_14
REMARK    7  A    between atoms: C_16  and  N_22
REMARK    8  A    between atoms: N_18  and  C_19
REMARK    9  A    between atoms: C_19  and  C_20
REMARK   10  A    between atoms: C_19  and  C_21
REMARK                            x       y       z     vdW  Elec       q    Type
REMARK                         _______ _______ _______ _____ _____    ______ ____
ROOT
ATOM      1  N   UNL     1      -2.749  -3.099  -0.592  0.00  0.00    -0.303 N 
ATOM      2  C   UNL     1      -3.468  -4.084  -1.164  0.00  0.00    +0.261 C 
ATOM      3  O   UNL     1      -2.987  -5.195  -1.289  0.00  0.00    -0.269 OA
ATOM      4  H   UNL     1      -3.104  -2.196  -0.559  0.00  0.00    +0.150 HD
ENDROOT
BRANCH   2   5
ATOM      5  C   UNL     1      -4.831  -3.819  -1.637  0.00  0.00    +0.106 A 
ATOM      6  C   UNL     1      -5.461  -2.592  -1.656  0.00  0.00    +0.055 A 
ATOM      7  C   UNL     1      -6.744  -2.795  -2.183  0.00  0.00    +0.043 A 
ATOM      8  C   UNL     1      -6.870  -4.117  -2.470  0.00  0.00    +0.109 A 
ATOM      9  N   UNL     1      -5.709  -4.747  -2.146  0.00  0.00    -0.339 N 
BRANCH   9  10
ATOM     10  C   UNL     1      -5.440  -6.178  -2.309  0.00  0.00    +0.081 C 
ATOM     11  C   UNL     1      -6.526  -6.986  -1.595  0.00  0.00    +0.030 C 
ATOM     12  C   UNL     1      -5.439  -6.530  -3.798  0.00  0.00    +0.030 C 
ENDBRANCH   9  10
BRANCH   7  13
ATOM     13  N   UNL     1      -7.726  -1.806  -2.380  0.00  0.00    -0.357 N 
ATOM     14  H   UNL     1      -7.540  -0.884  -2.143  0.00  0.00    +0.142 HD
ATOM     15  H   UNL     1      -8.589  -2.047  -2.753  0.00  0.00    +0.142 HD
ENDBRANCH   7  13
ENDBRANCH   2   5
BRANCH   1  16
ATOM     16  C   UNL     1      -1.433  -3.390  -0.020  0.00  0.00    +0.104 C 
ATOM     17  C   UNL     1      -1.600  -3.899   1.413  0.00  0.00    +0.033 C 
BRANCH  16  21
ATOM     18  C   UNL     1      -0.025   1.506   0.024  0.00  0.00    +0.086 C 
ATOM     19  C   UNL     1      -0.001  -0.000   0.007  0.00  0.00    +0.103 A 
ATOM     20  C   UNL     1      -1.080  -0.804   0.006  0.00  0.00    +0.050 A 
ATOM     21  C   UNL     1      -0.599  -2.134  -0.012  0.00  0.00    +0.013 A 
ATOM     22  C   UNL     1       0.744  -2.063  -0.020  0.00  0.00    +0.107 A 
ATOM     23  O   UNL     1       1.100  -0.768  -0.014  0.00  0.00    -0.465 OA
ATOM     24  C   UNL     1       1.688  -3.237  -0.038  0.00  0.00    +0.086 C 
ENDBRANCH  16  21
ENDBRANCH   1  16
TORSDOF 5
