REMARK  Name = ZINC41330983
REMARK  5 active torsions:
REMARK  status: ('A' for Active; 'I' for Inactive)
REMARK    1  A    between atoms: C_1  and  C_2
REMARK    2  A    between atoms: C_9  and  N_22
REMARK    3  A    between atoms: C_10  and  C_11
REMARK    4  A    between atoms: N_13  and  C_14
REMARK    5  A    between atoms: C_23  and  C_25
REMARK                            x       y       z     vdW  Elec       q    Type
REMARK                         _______ _______ _______ _____ _____    ______ ____
ROOT
ATOM      1  C   UNL     1      -0.019   1.526   0.010  0.00  0.00    +0.008 C 
ATOM      2  C   UNL     1       0.002  -0.004   0.002  0.00  0.00    -0.009 C 
ATOM      3  C   UNL     1      -1.434  -0.537   0.019  0.00  0.00    +0.008 C 
ATOM      4  C   UNL     1      -1.433  -2.045  -0.237  0.00  0.00    +0.037 C 
ATOM      5  C   UNL     1      -0.464  -2.704   0.734  0.00  0.00    -0.023 A 
ATOM      6  C   UNL     1       0.485  -1.986   1.374  0.00  0.00    -0.004 A 
ATOM      7  S   UNL     1       1.344  -3.167   2.372  0.00  0.00    -0.077 S 
ATOM      8  C   UNL     1       0.494  -4.558   1.967  0.00  0.00    +0.085 A 
ATOM      9  C   UNL     1      -0.459  -4.119   1.060  0.00  0.00    +0.069 A 
ATOM     10  C   UNL     1       0.739  -0.515   1.248  0.00  0.00    +0.046 C 
ENDROOT
BRANCH   9  11
ATOM     11  C   UNL     1      -1.421  -5.045   0.456  0.00  0.00    +0.247 C 
ATOM     12  O   UNL     1      -1.149  -5.610  -0.588  0.00  0.00    -0.270 OA
ATOM     13  N   UNL     1      -2.607  -5.272   1.055  0.00  0.00    -0.307 N 
ATOM     14  H   UNL     1      -2.823  -4.822   1.887  0.00  0.00    +0.149 HD
BRANCH  13  15
ATOM     15  C   UNL     1      -3.568  -6.197   0.451  0.00  0.00    +0.096 C 
ATOM     16  C   UNL     1      -4.435  -5.449  -0.575  0.00  0.00    +0.046 C 
ATOM     17  C   UNL     1      -5.647  -6.322  -0.979  0.00  0.00    +0.168 C 
ATOM     18  S   UNL     1      -5.917  -7.356   0.519  0.00  0.00    -0.029 S 
ATOM     19  O   UNL     1      -5.709  -8.721   0.182  0.00  0.00    -0.174 OA
ATOM     20  O   UNL     1      -7.136  -6.965   1.136  0.00  0.00    -0.174 OA
ATOM     21  C   UNL     1      -4.507  -6.771   1.550  0.00  0.00    +0.188 C 
ENDBRANCH  13  15
ENDBRANCH   9  11
BRANCH   8  22
ATOM     22  N   UNL     1       0.698  -5.846   2.432  0.00  0.00    -0.273 N 
ATOM     23  C   UNL     1       1.680  -6.094   3.321  0.00  0.00    +0.284 C 
ATOM     24  O   UNL     1       2.387  -5.186   3.715  0.00  0.00    -0.266 OA
ATOM     25  H   UNL     1       0.134  -6.570   2.118  0.00  0.00    +0.156 HD
BRANCH  23  26
ATOM     26  C   UNL     1       1.896  -7.461   3.814  0.00  0.00    +0.191 A 
ATOM     27  C   UNL     1       2.848  -7.827   4.712  0.00  0.00    +0.063 A 
ATOM     28  C   UNL     1       2.691  -9.268   4.904  0.00  0.00    +0.022 A 
ATOM     29  C   UNL     1       3.349 -10.225   5.682  0.00  0.00    +0.012 A 
ATOM     30  C   UNL     1       2.948 -11.530   5.634  0.00  0.00    +0.002 A 
ATOM     31  C   UNL     1       1.892 -11.912   4.817  0.00  0.00    +0.024 A 
ATOM     32  C   UNL     1       1.230 -10.984   4.041  0.00  0.00    +0.084 A 
ATOM     33  C   UNL     1       1.620  -9.649   4.074  0.00  0.00    +0.154 A 
ATOM     34  O   UNL     1       1.175  -8.542   3.449  0.00  0.00    -0.449 OA
ATOM     35 CL   UNL     1      -0.088 -11.481   3.026  0.00  0.00    -0.080 Cl
ENDBRANCH  23  26
ENDBRANCH   8  22
TORSDOF 4
