REMARK  Name = ZINC38779585
REMARK  8 active torsions:
REMARK  status: ('A' for Active; 'I' for Inactive)
REMARK    1  A    between atoms: C_1  and  C_2
REMARK    2  A    between atoms: N_10  and  N_11
REMARK    3  A    between atoms: N_11  and  C_12
REMARK    4  A    between atoms: C_22  and  C_25
REMARK    5  A    between atoms: C_28  and  O_33
REMARK    6  A    between atoms: C_29  and  O_31
REMARK    7  A    between atoms: O_31  and  C_32
REMARK    8  A    between atoms: O_33  and  C_34
REMARK                            x       y       z     vdW  Elec       q    Type
REMARK                         _______ _______ _______ _____ _____    ______ ____
ROOT
ATOM      1  C   UNL     1      -0.018   1.503   0.010  0.00  0.00    +0.045 C 
ATOM      2  C   UNL     1       0.002  -0.004   0.002  0.00  0.00    -0.029 A 
ATOM      3  C   UNL     1       0.006  -0.682  -1.203  0.00  0.00    +0.051 A 
ATOM      4  C   UNL     1       0.025  -2.068  -1.220  0.00  0.00    +0.131 A 
ATOM      5  C   UNL     1       0.045  -2.768  -0.006  0.00  0.00    +0.041 A 
ATOM      6  C   UNL     1       0.039  -2.079   1.203  0.00  0.00    +0.033 A 
ATOM      7  C   UNL     1       0.023  -0.697   1.201  0.00  0.00    +0.045 A 
ATOM      8 CL   UNL     1       0.022   0.172   2.704  0.00  0.00    -0.083 Cl
ATOM      9  C   UNL     1       0.077  -4.248  -0.032  0.00  0.00    +0.073 C 
ATOM     10  N   UNL     1       0.324  -4.944   1.034  0.00  0.00    -0.188 NA
ATOM     11  C   UNL     1      -0.196  -4.907  -1.373  0.00  0.00    +0.107 C 
ATOM     12  C   UNL     1       0.517  -4.069  -2.443  0.00  0.00    +0.210 C 
ATOM     13  O   UNL     1       0.022  -2.731  -2.404  0.00  0.00    -0.483 OA
ENDROOT
BRANCH  12  14
ATOM     14  C   UNL     1       0.255  -4.662  -3.804  0.00  0.00    -0.003 A 
ATOM     15  C   UNL     1      -0.891  -4.320  -4.496  0.00  0.00    +0.011 A 
ATOM     16  C   UNL     1      -1.136  -4.861  -5.744  0.00  0.00    +0.050 A 
ATOM     17  C   UNL     1      -0.231  -5.748  -6.304  0.00  0.00    +0.162 A 
ATOM     18  C   UNL     1       0.923  -6.092  -5.607  0.00  0.00    +0.162 A 
ATOM     19  C   UNL     1       1.165  -5.542  -4.359  0.00  0.00    +0.056 A 
BRANCH  18  20
ATOM     20  O   UNL     1       1.815  -6.963  -6.153  0.00  0.00    -0.491 OA
ATOM     21  C   UNL     1       2.977  -7.269  -5.380  0.00  0.00    +0.277 C 
ENDBRANCH  18  20
BRANCH  17  22
ATOM     22  O   UNL     1      -0.470  -6.282  -7.532  0.00  0.00    -0.491 OA
ATOM     23  C   UNL     1      -1.676  -5.884  -8.189  0.00  0.00    +0.277 C 
ENDBRANCH  17  22
ENDBRANCH  12  14
BRANCH  10  24
ATOM     24  N   UNL     1       0.346  -6.344   0.967  0.00  0.00    -0.229 N 
ATOM     25  H   UNL     1       0.175  -6.792   0.124  0.00  0.00    +0.172 HD
BRANCH  24  26
ATOM     26  C   UNL     1       0.625  -7.130   2.171  0.00  0.00    +0.283 C 
ATOM     27  N   UNL     1       2.061  -7.428   2.256  0.00  0.00    -0.347 N 
ATOM     28  C   UNL     1       2.192  -8.723   2.236  0.00  0.00    +0.061 A 
ATOM     29  C   UNL     1       3.363  -9.609   2.291  0.00  0.00    +0.027 A 
ATOM     30  C   UNL     1       3.189 -10.945   2.250  0.00  0.00    +0.002 A 
ATOM     31  C   UNL     1       1.919 -11.542   2.155  0.00  0.00    +0.002 A 
ATOM     32  C   UNL     1       0.780 -10.822   2.098  0.00  0.00    +0.027 A 
ATOM     33  C   UNL     1       0.848  -9.354   2.136  0.00  0.00    +0.061 A 
ATOM     34  N   UNL     1      -0.063  -8.425   2.099  0.00  0.00    -0.347 N 
ATOM     35  H   UNL     1       2.779  -6.779   2.316  0.00  0.00    +0.163 HD
ATOM     36  H   UNL     1      -1.021  -8.563   2.034  0.00  0.00    +0.163 HD
ENDBRANCH  24  26
ENDBRANCH  10  24
TORSDOF 5
