REMARK  Name = ZINC36531503
REMARK  8 active torsions:
REMARK  status: ('A' for Active; 'I' for Inactive)
REMARK    1  A    between atoms: C_1  and  N_2
REMARK    2  A    between atoms: N_2  and  C_3
REMARK    3  A    between atoms: C_3  and  C_5
REMARK    4  A    between atoms: C_3  and  C_14
REMARK    5  A    between atoms: N_16  and  C_17
REMARK    6  A    between atoms: C_23  and  C_25
REMARK    7  A    between atoms: C_29  and  O_32
REMARK    8  A    between atoms: C_30  and  O_31
REMARK                            x       y       z     vdW  Elec       q    Type
REMARK                         _______ _______ _______ _____ _____    ______ ____
ROOT
ATOM      1  C   UNL     1      -0.059  -0.982   1.086  0.00  0.00    +0.192 C 
ENDROOT
BRANCH   1   2
ATOM      2  C   UNL     1      -1.345  -0.815   1.854  0.00  0.00    -0.015 A 
ATOM      3  C   UNL     1      -1.393   0.035   2.944  0.00  0.00    +0.010 A 
ATOM      4  C   UNL     1      -2.571   0.191   3.651  0.00  0.00    +0.050 A 
ATOM      5  C   UNL     1      -3.706  -0.504   3.269  0.00  0.00    +0.166 A 
ATOM      6  C   UNL     1      -3.658  -1.360   2.171  0.00  0.00    +0.167 A 
ATOM      7  C   UNL     1      -2.476  -1.508   1.464  0.00  0.00    +0.055 A 
ATOM      8  O   UNL     1      -4.891  -1.921   2.001  0.00  0.00    -0.453 OA
ATOM      9  C   UNL     1      -5.583  -1.715   3.247  0.00  0.00    +0.466 C 
ATOM     10  O   UNL     1      -4.969  -0.529   3.786  0.00  0.00    -0.453 OA
ENDBRANCH   1   2
BRANCH   1  12
ATOM     11  C   UNL     1      -0.209   1.414   0.264  0.00  0.00    +0.133 C 
ATOM     12  N   UNL     1      -0.016  -0.012  -0.011  0.00  0.00    -0.285 N 
ATOM     13  C   UNL     1       0.200  -0.431  -1.273  0.00  0.00    +0.251 C 
ATOM     14  O   UNL     1       0.324   0.380  -2.171  0.00  0.00    -0.270 OA
BRANCH  13  15
ATOM     15  C   UNL     1       0.286  -1.875  -1.566  0.00  0.00    +0.082 A 
ATOM     16  C   UNL     1       1.257  -2.662  -0.940  0.00  0.00    +0.017 A 
ATOM     17  C   UNL     1       1.334  -4.010  -1.215  0.00  0.00    +0.005 A 
ATOM     18  C   UNL     1       0.453  -4.592  -2.112  0.00  0.00    +0.049 A 
ATOM     19  C   UNL     1      -0.513  -3.826  -2.740  0.00  0.00    +0.159 A 
ATOM     20  C   UNL     1      -0.608  -2.464  -2.468  0.00  0.00    +0.171 A 
BRANCH  20  21
ATOM     21  O   UNL     1      -1.558  -1.711  -3.078  0.00  0.00    -0.503 OA
ATOM     22  H   UNL     1      -1.274  -1.324  -3.917  0.00  0.00    +0.292 HD
ENDBRANCH  20  21
BRANCH  19  23
ATOM     23  O   UNL     1      -1.375  -4.405  -3.620  0.00  0.00    -0.503 OA
ATOM     24  H   UNL     1      -2.186  -4.739  -3.213  0.00  0.00    +0.292 HD
ENDBRANCH  19  23
ENDBRANCH  13  15
ENDBRANCH   1  12
BRANCH   1  25
ATOM     25  C   UNL     1       1.110  -0.749   2.008  0.00  0.00    +0.238 C 
ATOM     26  O   UNL     1       1.901   0.140   1.772  0.00  0.00    -0.273 OA
ATOM     27  N   UNL     1       1.276  -1.528   3.095  0.00  0.00    -0.311 N 
ATOM     28  H   UNL     1       0.644  -2.239   3.284  0.00  0.00    +0.149 HD
BRANCH  27  29
ATOM     29  C   UNL     1       2.413  -1.302   3.992  0.00  0.00    +0.073 C 
ATOM     30  C   UNL     1       3.641  -2.041   3.455  0.00  0.00    +0.022 C 
ATOM     31  C   UNL     1       4.828  -1.805   4.391  0.00  0.00    +0.002 C 
ATOM     32  C   UNL     1       4.487  -2.328   5.788  0.00  0.00    +0.000 C 
ATOM     33  C   UNL     1       3.260  -1.589   6.325  0.00  0.00    +0.002 C 
ATOM     34  C   UNL     1       2.073  -1.825   5.389  0.00  0.00    +0.022 C 
ENDBRANCH  27  29
ENDBRANCH   1  25
TORSDOF 7
