REMARK  Name = ZINC40024772
REMARK  8 active torsions:
REMARK  status: ('A' for Active; 'I' for Inactive)
REMARK    1  A    between atoms: C_1  and  C_2
REMARK    2  A    between atoms: C_4  and  C_14
REMARK    3  A    between atoms: C_6  and  C_11
REMARK    4  A    between atoms: C_14  and  O_16
REMARK    5  A    between atoms: O_16  and  C_17
REMARK    6  A    between atoms: C_17  and  C_19
REMARK    7  A    between atoms: C_17  and  C_20
REMARK    8  A    between atoms: N_22  and  C_23
REMARK                            x       y       z     vdW  Elec       q    Type
REMARK                         _______ _______ _______ _____ _____    ______ ____
ROOT
ATOM      1  C   UNL     1      -0.311   0.705  -3.222  0.00  0.00    +0.341 C 
ATOM      2  O   UNL     1      -0.175   1.664  -2.490  0.00  0.00    -0.245 OA
ENDROOT
BRANCH   1   6
ATOM      3  C   UNL     1      -1.725   1.318  -0.415  0.00  0.00    +0.070 C 
ATOM      4  C   UNL     1      -1.420  -0.157  -0.349  0.00  0.00    +0.091 A 
ATOM      5  C   UNL     1      -0.767  -0.954  -1.387  0.00  0.00    +0.077 A 
ATOM      6  C   UNL     1      -0.252  -0.664  -2.666  0.00  0.00    +0.075 A 
ATOM      7  C   UNL     1       0.316  -1.712  -3.391  0.00  0.00    +0.039 A 
ATOM      8  C   UNL     1       0.351  -2.980  -2.832  0.00  0.00    +0.049 A 
ATOM      9  N   UNL     1      -0.139  -3.220  -1.635  0.00  0.00    -0.215 NA
ATOM     10  C   UNL     1      -0.690  -2.268  -0.897  0.00  0.00    +0.260 A 
ATOM     11  O   UNL     1      -1.249  -2.261   0.330  0.00  0.00    -0.334 OA
ATOM     12  N   UNL     1      -1.683  -0.953   0.641  0.00  0.00    -0.080 NA
BRANCH   8  13
ATOM     13  C   UNL     1       0.964  -4.111  -3.615  0.00  0.00    +0.038 C 
ATOM     14  C   UNL     1       1.169  -3.901  -5.117  0.00  0.00    +0.010 C 
ATOM     15  C   UNL     1       0.070  -4.842  -4.619  0.00  0.00    +0.010 C 
ENDBRANCH   8  13
ENDBRANCH   1   6
BRANCH   1  16
ATOM     16  O   UNL     1      -0.517   0.888  -4.540  0.00  0.00    -0.449 OA
BRANCH  16  17
ATOM     17  C   UNL     1      -0.564   2.238  -5.008  0.00  0.00    +0.259 C 
ATOM     18  C   UNL     1      -2.004   2.749  -4.949  0.00  0.00    +0.062 C 
BRANCH  17  19
ATOM     19  C   UNL     1      -0.069   2.293  -6.431  0.00  0.00    +0.258 C 
ATOM     20  O   UNL     1       0.202   1.268  -7.019  0.00  0.00    -0.271 OA
ATOM     21  N   UNL     1       0.072   3.482  -7.049  0.00  0.00    -0.281 N 
ATOM     22  H   UNL     1      -0.062   4.306  -6.554  0.00  0.00    +0.155 HD
BRANCH  21  23
ATOM     23  C   UNL     1       0.412   3.530  -8.407  0.00  0.00    +0.052 A 
ATOM     24  C   UNL     1       0.114   2.456  -9.236  0.00  0.00    +0.026 A 
ATOM     25  C   UNL     1       0.450   2.505 -10.575  0.00  0.00    +0.022 A 
ATOM     26  C   UNL     1       1.084   3.622 -11.091  0.00  0.00    +0.042 A 
ATOM     27  C   UNL     1       1.382   4.694 -10.268  0.00  0.00    +0.041 A 
ATOM     28  C   UNL     1       1.042   4.653  -8.928  0.00  0.00    +0.064 A 
ATOM     29 CL   UNL     1       1.410   6.000  -7.897  0.00  0.00    -0.082 Cl
ATOM     30 CL   UNL     1       1.505   3.679 -12.774  0.00  0.00    -0.083 Cl
ENDBRANCH  21  23
ENDBRANCH  17  19
ENDBRANCH  16  17
ENDBRANCH   1  16
TORSDOF 6
