REMARK  Name = ZINC12387120
REMARK  8 active torsions:
REMARK  status: ('A' for Active; 'I' for Inactive)
REMARK    1  A    between atoms: C_1  and  C_2
REMARK    2  A    between atoms: C_5  and  C_8
REMARK    3  A    between atoms: C_8  and  N_66
REMARK    4  A    between atoms: C_14  and  C_16
REMARK    5  A    between atoms: C_16  and  C_17
REMARK    6  A    between atoms: N_19  and  C_20
REMARK    7  A    between atoms: C_20  and  C_21
REMARK    8  A    between atoms: C_21  and  N_68
REMARK                            x       y       z     vdW  Elec       q    Type
REMARK                         _______ _______ _______ _____ _____    ______ ____
ROOT
ATOM      1  C   UNL     1      -0.294  -7.225   0.161  0.00  0.00    +0.089 C 
ENDROOT
BRANCH   1   7
ATOM      2  C   UNL     1       0.130  -5.640  -3.216  0.00  0.00    -0.058 C 
ATOM      3  C   UNL     1       0.213  -4.193  -2.727  0.00  0.00    +0.085 C 
ATOM      4  N   UNL     1      -0.601  -4.022  -1.526  0.00  0.00    -0.318 N 
ATOM      5  C   UNL     1      -1.008  -5.049  -0.773  0.00  0.00    +0.200 C 
ATOM      6  O   UNL     1      -1.656  -4.816   0.226  0.00  0.00    -0.278 OA
ATOM      7  C   UNL     1      -0.698  -6.480  -1.112  0.00  0.00    +0.028 C 
ATOM      8  H   UNL     1      -0.857  -3.125  -1.264  0.00  0.00    +0.149 HD
ATOM      9  N   UNL     1       0.421  -6.527  -2.071  0.00  0.00    +0.391 N 
ATOM     10  H   UNL     1       1.276  -6.203  -1.605  0.00  0.00    -0.080 HD
BRANCH   9  11
ATOM     11  C   UNL     1       0.626  -7.915  -2.544  0.00  0.00    -0.042 C 
BRANCH  11  16
ATOM     12  C   UNL     1       4.728  -7.945  -6.614  0.00  0.00    +0.044 C 
ATOM     13  C   UNL     1       3.658  -7.937  -5.552  0.00  0.00    -0.050 A 
ATOM     14  C   UNL     1       2.332  -7.781  -5.909  0.00  0.00    +0.003 A 
ATOM     15  C   UNL     1       1.350  -7.779  -4.936  0.00  0.00    +0.002 A 
ATOM     16  C   UNL     1       1.696  -7.923  -3.605  0.00  0.00    -0.064 A 
ATOM     17  C   UNL     1       3.022  -8.074  -3.248  0.00  0.00    +0.002 A 
ATOM     18  C   UNL     1       4.004  -8.081  -4.222  0.00  0.00    +0.003 A 
ENDBRANCH  11  16
ENDBRANCH   9  11
ENDBRANCH   1   7
BRANCH   1  19
ATOM     19  C   UNL     1       0.974  -6.625   0.714  0.00  0.00    +0.212 C 
ATOM     20  O   UNL     1       1.463  -5.649   0.185  0.00  0.00    -0.276 OA
ATOM     21  N   UNL     1       1.563  -7.172   1.795  0.00  0.00    -0.317 N 
ATOM     22  H   UNL     1       1.171  -7.952   2.218  0.00  0.00    +0.149 HD
BRANCH  21  23
ATOM     23  C   UNL     1       2.795  -6.589   2.332  0.00  0.00    +0.092 C 
BRANCH  23  24
ATOM     24  C   UNL     1       3.183  -7.314   3.622  0.00  0.00    -0.049 C 
ATOM     25  C   UNL     1       2.159  -7.000   4.733  0.00  0.00    -0.010 C 
ATOM     26  C   UNL     1       3.016  -6.900   6.020  0.00  0.00    -0.001 C 
ATOM     27  C   UNL     1       4.305  -6.201   5.521  0.00  0.00    -0.001 C 
ATOM     28  C   UNL     1       4.546  -6.806   4.123  0.00  0.00    -0.010 C 
BRANCH  24  34
ATOM     29  C   UNL     1       3.570  -9.485   4.623  0.00  0.00    -0.049 C 
ATOM     30  C   UNL     1       3.562 -10.991   4.346  0.00  0.00    +0.141 C 
ATOM     31  O   UNL     1       4.480 -11.281   3.289  0.00  0.00    -0.383 OA
ATOM     32  C   UNL     1       4.188 -10.595   2.069  0.00  0.00    +0.141 C 
ATOM     33  C   UNL     1       4.203  -9.085   2.322  0.00  0.00    -0.049 C 
ATOM     34  N   UNL     1       3.217  -8.772   3.377  0.00  0.00    +0.387 N 
ATOM     35  H   UNL     1       2.288  -9.081   3.068  0.00  0.00    -0.081 HD
ENDBRANCH  24  34
ENDBRANCH  23  24
ENDBRANCH  21  23
ENDBRANCH   1  19
TORSDOF 7
