REMARK  Name = ZINC09429518
REMARK  8 active torsions:
REMARK  status: ('A' for Active; 'I' for Inactive)
REMARK    1  A    between atoms: C_1  and  C_2
REMARK    2  A    between atoms: C_5  and  N_9
REMARK    3  A    between atoms: C_7  and  C_8
REMARK    4  A    between atoms: C_10  and  C_12
REMARK    5  A    between atoms: N_17  and  S_19
REMARK    6  A    between atoms: S_19  and  C_22
REMARK    7  A    between atoms: C_29  and  C_37
REMARK    8  A    between atoms: C_32  and  C_34
REMARK                            x       y       z     vdW  Elec       q    Type
REMARK                         _______ _______ _______ _____ _____    ______ ____
ROOT
ATOM      1  C   UNL     1       0.062   0.926   1.149  0.00  0.00    +0.091 C 
ATOM      2  C   UNL     1       0.169  -0.599   1.225  0.00  0.00    +0.015 C 
ATOM      3  C   UNL     1       1.050  -0.992   2.413  0.00  0.00    +0.018 C 
ATOM      4  C   UNL     1       2.456  -0.418   2.212  0.00  0.00    +0.109 C 
ATOM      5  N   UNL     1       2.349   1.031   1.993  0.00  0.00    -0.176 NA
ATOM      6  C   UNL     1       1.457   1.521   0.934  0.00  0.00    +0.122 C 
ENDROOT
BRANCH   1   8
ATOM      7  N   UNL     1      -2.114   0.894  -0.028  0.00  0.00    -0.285 N 
ATOM      8  C   UNL     1      -0.832   1.311  -0.001  0.00  0.00    +0.222 C 
ATOM      9  O   UNL     1      -0.399   1.997  -0.903  0.00  0.00    -0.275 OA
ATOM     10  H   UNL     1      -2.478   0.399   0.723  0.00  0.00    +0.155 HD
BRANCH   7  15
ATOM     11  C   UNL     1      -5.375   2.031  -4.528  0.00  0.00    +0.044 C 
ATOM     12  C   UNL     1      -4.508   1.729  -3.333  0.00  0.00    -0.047 A 
ATOM     13  C   UNL     1      -3.560   2.646  -2.919  0.00  0.00    +0.005 A 
ATOM     14  C   UNL     1      -2.768   2.375  -1.820  0.00  0.00    +0.023 A 
ATOM     15  C   UNL     1      -2.918   1.174  -1.138  0.00  0.00    +0.034 A 
ATOM     16  C   UNL     1      -3.871   0.256  -1.556  0.00  0.00    +0.027 A 
ATOM     17  C   UNL     1      -4.664   0.535  -2.652  0.00  0.00    -0.046 A 
ATOM     18  C   UNL     1      -5.699  -0.461  -3.107  0.00  0.00    +0.044 C 
ENDBRANCH   7  15
ENDBRANCH   1   8
BRANCH   5  19
ATOM     19  S   UNL     1       3.218   2.091   2.922  0.00  0.00    +0.061 S 
ATOM     20  O   UNL     1       2.523   3.330   2.882  0.00  0.00    -0.153 OA
ATOM     21  O   UNL     1       3.508   1.419   4.141  0.00  0.00    -0.153 OA
BRANCH  19  22
ATOM     22  C   UNL     1       4.760   2.352   2.112  0.00  0.00    +0.106 A 
ATOM     23  C   UNL     1       5.842   1.540   2.401  0.00  0.00    +0.030 A 
ATOM     24  C   UNL     1       7.049   1.739   1.765  0.00  0.00    +0.026 A 
ATOM     25  C   UNL     1       7.191   2.767   0.831  0.00  0.00    +0.040 A 
ATOM     26  C   UNL     1       6.103   3.578   0.552  0.00  0.00    -0.022 A 
ATOM     27  C   UNL     1       4.894   3.372   1.188  0.00  0.00    +0.034 A 
ATOM     28  C   UNL     1       6.518   4.600  -0.482  0.00  0.00    +0.059 C 
ATOM     29  C   UNL     1       7.994   4.281  -0.772  0.00  0.00    +0.083 C 
ATOM     30  N   UNL     1       8.315   3.137   0.085  0.00  0.00    -0.268 N 
ATOM     31  C   UNL     1       9.517   2.530   0.146  0.00  0.00    +0.223 C 
ATOM     32  O   UNL     1       9.708   1.642   0.950  0.00  0.00    -0.275 OA
ATOM     33  C   UNL     1       8.177   3.911  -2.245  0.00  0.00    +0.029 C 
BRANCH  31  34
ATOM     34  C   UNL     1      10.623   2.954  -0.786  0.00  0.00    +0.076 C 
ATOM     35  C   UNL     1      10.985   2.006  -1.930  0.00  0.00    +0.013 C 
ATOM     36  C   UNL     1      11.930   2.161  -0.737  0.00  0.00    +0.013 C 
ENDBRANCH  31  34
ENDBRANCH  19  22
ENDBRANCH   5  19
TORSDOF 5
