REMARK  Name = ZINC58308381
REMARK  7 active torsions:
REMARK  status: ('A' for Active; 'I' for Inactive)
REMARK    1  A    between atoms: C_1  and  C_2
REMARK    2  A    between atoms: N_7  and  C_9
REMARK    3  A    between atoms: C_9  and  C_10
REMARK    4  A    between atoms: C_13  and  C_16
REMARK    5  A    between atoms: C_16  and  N_17
REMARK    6  A    between atoms: N_17  and  C_18
REMARK    7  A    between atoms: C_18  and  C_19
REMARK                            x       y       z     vdW  Elec       q    Type
REMARK                         _______ _______ _______ _____ _____    ______ ____
ROOT
ATOM      1  C   UNL     1       1.666  -3.960   2.315  0.00  0.00    -0.064 A 
ATOM      2  C   UNL     1       0.713  -4.769   2.905  0.00  0.00    +0.002 A 
ATOM      3  C   UNL     1       0.834  -6.144   2.837  0.00  0.00    +0.002 A 
ATOM      4  C   UNL     1       1.909  -6.711   2.177  0.00  0.00    -0.064 A 
ATOM      5  C   UNL     1       2.861  -5.902   1.585  0.00  0.00    +0.002 A 
ATOM      6  C   UNL     1       2.737  -4.527   1.651  0.00  0.00    +0.002 A 
ENDROOT
BRANCH   1   7
ATOM      7  C   UNL     1       1.534  -2.461   2.390  0.00  0.00    -0.043 C 
BRANCH   7  13
ATOM      8  C   UNL     1      -0.019   1.526   0.010  0.00  0.00    +0.005 C 
ATOM      9  C   UNL     1       0.002  -0.004   0.002  0.00  0.00    -0.031 C 
ATOM     10  C   UNL     1      -1.434  -0.535   0.015  0.00  0.00    -0.001 C 
ATOM     11  C   UNL     1      -1.402  -2.064   0.086  0.00  0.00    -0.018 C 
ATOM     12  C   UNL     1      -0.613  -2.496   1.324  0.00  0.00    -0.078 C 
ATOM     13  N   UNL     1       0.758  -1.980   1.239  0.00  0.00    +0.383 N 
ATOM     14  C   UNL     1       0.740  -0.512   1.242  0.00  0.00    -0.075 C 
ATOM     15  H   UNL     1       1.188  -2.307   0.386  0.00  0.00    -0.081 HD
ENDBRANCH   7  13
ENDBRANCH   1   7
BRANCH   4  16
ATOM     16  C   UNL     1       2.042  -8.210   2.102  0.00  0.00    -0.047 C 
BRANCH  16  17
ATOM     17  N   UNL     1       1.357  -8.703   0.899  0.00  0.00    +0.382 N 
ATOM     18  H   UNL     1       0.381  -8.454   0.942  0.00  0.00    -0.085 HD
ATOM     19  H   UNL     1       1.775  -8.288   0.081  0.00  0.00    -0.085 HD
BRANCH  17  20
ATOM     20  C   UNL     1       1.487 -10.165   0.827  0.00  0.00    -0.075 C 
BRANCH  20  21
ATOM     21  C   UNL     1       0.774 -10.679  -0.426  0.00  0.00    +0.010 C 
ATOM     22  C   UNL     1      -0.729 -10.406  -0.304  0.00  0.00    +0.106 C 
ATOM     23  N   UNL     1      -1.387 -10.845  -1.551  0.00  0.00    -0.329 N 
ATOM     24  C   UNL     1      -0.966 -12.072  -2.069  0.00  0.00    +0.117 A 
ATOM     25  C   UNL     1      -1.521 -12.832  -3.038  0.00  0.00    +0.064 A 
ATOM     26  C   UNL     1      -0.723 -13.973  -3.192  0.00  0.00    +0.136 A 
ATOM     27  N   UNL     1       0.275 -13.897  -2.344  0.00  0.00    -0.178 NA
ATOM     28  N   UNL     1       0.148 -12.709  -1.624  0.00  0.00    -0.251 N 
ATOM     29  C   UNL     1       1.019 -12.185  -0.569  0.00  0.00    +0.148 C 
ATOM     30  H   UNL     1      -2.072 -10.312  -1.985  0.00  0.00    +0.147 HD
ENDBRANCH  20  21
ENDBRANCH  17  20
ENDBRANCH  16  17
ENDBRANCH   4  16
TORSDOF 6
