REMARK  Name = ZINC06834262
REMARK  11 active torsions:
REMARK  status: ('A' for Active; 'I' for Inactive)
REMARK    1  A    between atoms: C_1  and  C_2
REMARK    2  A    between atoms: C_2  and  C_3
REMARK    3  A    between atoms: C_12  and  C_13
REMARK    4  A    between atoms: C_13  and  C_15
REMARK    5  A    between atoms: C_13  and  C_24
REMARK    6  A    between atoms: C_15  and  C_16
REMARK    7  A    between atoms: N_18  and  C_19
REMARK    8  A    between atoms: C_19  and  C_21
REMARK    9  A    between atoms: C_19  and  C_22
REMARK   10  A    between atoms: C_22  and  C_23
REMARK   11  A    between atoms: C_28  and  N_30
REMARK                            x       y       z     vdW  Elec       q    Type
REMARK                         _______ _______ _______ _____ _____    ______ ____
ROOT
ATOM      1  C   UNL     1      -0.070   5.347   0.030  0.00  0.00    +0.060 C 
ENDROOT
BRANCH   1  11
ATOM      2  C   UNL     1      -0.984   7.645   4.393  0.00  0.00    -0.024 A 
ATOM      3  C   UNL     1       0.257   8.217   4.572  0.00  0.00    +0.005 A 
ATOM      4  C   UNL     1       1.265   8.028   3.636  0.00  0.00    +0.001 A 
ATOM      5  C   UNL     1       1.043   7.270   2.521  0.00  0.00    +0.010 A 
ATOM      6  C   UNL     1      -0.205   6.677   2.322  0.00  0.00    +0.004 A 
ATOM      7  C   UNL     1      -1.232   6.871   3.265  0.00  0.00    +0.050 A 
ATOM      8  N   UNL     1      -2.335   6.183   2.810  0.00  0.00    -0.360 N 
ATOM      9  H   UNL     1      -3.190   6.139   3.265  0.00  0.00    +0.165 HD
ATOM     10  C   UNL     1      -2.045   5.572   1.621  0.00  0.00    +0.088 A 
ATOM     11  C   UNL     1      -0.776   5.834   1.269  0.00  0.00    -0.015 A 
BRANCH   2  13
ATOM     12  C   UNL     1      -2.077   6.689   6.403  0.00  0.00    +0.009 C 
ATOM     13  C   UNL     1      -2.069   7.858   5.417  0.00  0.00    +0.034 C 
ENDBRANCH   2  13
ENDBRANCH   1  11
BRANCH   1  14
ATOM     14  C   UNL     1      -0.050   3.840   0.022  0.00  0.00    -0.037 A 
ATOM     15  C   UNL     1      -1.238   3.133   0.030  0.00  0.00    +0.004 A 
ATOM     16  C   UNL     1      -1.219   1.751   0.017  0.00  0.00    +0.003 A 
ATOM     17  C   UNL     1      -0.013   1.076   0.008  0.00  0.00    +0.033 A 
ATOM     18  C   UNL     1       1.175   1.783   0.000  0.00  0.00    +0.126 A 
ATOM     19  C   UNL     1       1.156   3.166   0.008  0.00  0.00    +0.037 A 
BRANCH  18  20
ATOM     20  N   UNL     1       2.467   1.060  -0.016  0.00  0.00    +0.056 N 
ATOM     21  O   UNL     1       2.483  -0.157  -0.023  0.00  0.00    -0.126 OA
ATOM     22  O   UNL     1       3.513   1.684  -0.022  0.00  0.00    -0.126 OA
ENDBRANCH  18  20
ENDBRANCH   1  14
BRANCH   1  23
ATOM     23  C   UNL     1      -0.810   5.853  -1.210  0.00  0.00    +0.108 C 
BRANCH  23  24
ATOM     24  C   UNL     1      -0.039   5.471  -2.447  0.00  0.00    +0.214 C 
ATOM     25  O   UNL     1       1.001   4.854  -2.346  0.00  0.00    -0.276 OA
ATOM     26  N   UNL     1      -0.504   5.814  -3.664  0.00  0.00    -0.313 N 
ATOM     27  H   UNL     1      -1.335   6.307  -3.745  0.00  0.00    +0.149 HD
BRANCH  26  28
ATOM     28  C   UNL     1       0.247   5.442  -4.867  0.00  0.00    +0.070 C 
ATOM     29  C   UNL     1      -0.132   4.020  -5.285  0.00  0.00    +0.028 C 
BRANCH  28  30
ATOM     30  C   UNL     1      -0.091   6.414  -5.999  0.00  0.00    +0.018 C 
ATOM     31  C   UNL     1       0.400   7.816  -5.632  0.00  0.00    +0.005 C 
ENDBRANCH  28  30
ENDBRANCH  26  28
ENDBRANCH  23  24
ENDBRANCH   1  23
TORSDOF 8
