REMARK  Name = ZINC13064828
REMARK  12 active torsions:
REMARK  status: ('A' for Active; 'I' for Inactive)
REMARK    1  A    between atoms: C_1  and  C_2
REMARK    2  A    between atoms: C_2  and  C_3
REMARK    3  A    between atoms: C_3  and  C_5
REMARK    4  A    between atoms: C_3  and  N_72
REMARK    5  A    between atoms: N_9  and  C_10
REMARK    6  A    between atoms: C_15  and  C_16
REMARK    7  A    between atoms: C_15  and  N_72
REMARK    8  A    between atoms: C_16  and  C_17
REMARK    9  A    between atoms: C_23  and  C_24
REMARK   10  A    between atoms: C_23  and  N_72
REMARK   11  A    between atoms: C_27  and  C_37
REMARK   12  A    between atoms: C_29  and  C_36
REMARK                            x       y       z     vdW  Elec       q    Type
REMARK                         _______ _______ _______ _____ _____    ______ ____
ROOT
ATOM      1  N   UNL     1       1.013   3.984   1.473  0.00  0.00    +0.389 N 
ATOM      2  H   UNL     1       1.028   3.788   2.481  0.00  0.00    -0.080 HD
ENDROOT
BRANCH   1   3
ATOM      3  C   UNL     1       2.005   3.120   0.800  0.00  0.00    +0.003 C 
BRANCH   3   4
ATOM      4  C   UNL     1       2.146   3.507  -0.649  0.00  0.00    +0.138 A 
ATOM      5  N   UNL     1       2.333   4.715  -1.122  0.00  0.00    -0.115 NA
ATOM      6  N   UNL     1       2.403   4.633  -2.406  0.00  0.00    -0.023 NA
ATOM      7  N   UNL     1       2.266   3.405  -2.765  0.00  0.00    -0.044 NA
ATOM      8  N   UNL     1       2.105   2.679  -1.710  0.00  0.00    -0.228 N 
BRANCH   8   9
ATOM      9  C   UNL     1       1.915   1.227  -1.673  0.00  0.00    +0.111 C 
ATOM     10  C   UNL     1       3.106   0.520  -2.352  0.00  0.00    +0.027 C 
ATOM     11  C   UNL     1       2.464  -0.680  -3.091  0.00  0.00    +0.002 C 
ATOM     12  C   UNL     1       1.130  -0.088  -3.612  0.00  0.00    +0.002 C 
ATOM     13  C   UNL     1       0.659   0.840  -2.474  0.00  0.00    +0.027 C 
ENDBRANCH   8   9
ENDBRANCH   3   4
BRANCH   3  15
ATOM     14  C   UNL     1       3.246   2.756   2.938  0.00  0.00    +0.002 C 
ATOM     15  C   UNL     1       3.355   3.278   1.504  0.00  0.00    -0.011 C 
ENDBRANCH   3  15
ENDBRANCH   1   3
BRANCH   1  16
ATOM     16  C   UNL     1      -0.341   3.702   0.950  0.00  0.00    -0.073 C 
BRANCH  16  17
ATOM     17  C   UNL     1      -0.787   2.328   1.454  0.00  0.00    +0.016 C 
BRANCH  17  18
ATOM     18  C   UNL     1      -2.224   2.092   1.065  0.00  0.00    -0.049 A 
ATOM     19  C   UNL     1      -3.244   2.579   1.860  0.00  0.00    +0.003 A 
ATOM     20  C   UNL     1      -4.562   2.368   1.499  0.00  0.00    +0.000 A 
ATOM     21  C   UNL     1      -4.859   1.660   0.349  0.00  0.00    +0.000 A 
ATOM     22  C   UNL     1      -3.838   1.168  -0.443  0.00  0.00    +0.000 A 
ATOM     23  C   UNL     1      -2.520   1.385  -0.085  0.00  0.00    +0.003 A 
ENDBRANCH  17  18
ENDBRANCH  16  17
ENDBRANCH   1  16
BRANCH   1  24
ATOM     24  C   UNL     1       1.352   5.406   1.256  0.00  0.00    -0.037 C 
BRANCH  24  25
ATOM     25  C   UNL     1       0.576   6.244   2.240  0.00  0.00    +0.001 A 
ATOM     26  C   UNL     1       1.137   6.585   3.427  0.00  0.00    +0.017 A 
ATOM     27  C   UNL     1       0.356   7.399   4.360  0.00  0.00    +0.002 A 
ATOM     28  C   UNL     1       0.881   7.783   5.599  0.00  0.00    -0.041 A 
ATOM     29  C   UNL     1       0.128   8.543   6.447  0.00  0.00    +0.007 A 
ATOM     30  C   UNL     1      -1.154   8.940   6.091  0.00  0.00    -0.048 A 
ATOM     31  C   UNL     1      -1.691   8.574   4.876  0.00  0.00    +0.029 A 
ATOM     32  C   UNL     1      -0.943   7.799   3.996  0.00  0.00    +0.050 A 
ATOM     33  N   UNL     1      -1.455   7.420   2.773  0.00  0.00    -0.322 N 
ATOM     34  H   UNL     1      -2.350   7.696   2.524  0.00  0.00    +0.169 HD
ATOM     35  C   UNL     1      -0.729   6.676   1.920  0.00  0.00    +0.251 A 
ATOM     36  O   UNL     1      -1.212   6.363   0.846  0.00  0.00    -0.268 OA
ATOM     37  C   UNL     1      -1.966   9.779   7.044  0.00  0.00    +0.044 C 
ATOM     38  C   UNL     1       2.272   7.357   5.996  0.00  0.00    +0.044 C 
ENDBRANCH  24  25
ENDBRANCH   1  24
TORSDOF 9
