REMARK  Name = ZINC20882013
REMARK  3 active torsions:
REMARK  status: ('A' for Active; 'I' for Inactive)
REMARK    1  A    between atoms: C_4  and  C_7
REMARK    2  A    between atoms: C_12  and  C_22
REMARK    3  A    between atoms: C_27  and  O_28
REMARK                            x       y       z     vdW  Elec       q    Type
REMARK                         _______ _______ _______ _____ _____    ______ ____
ROOT
ATOM      1  C   UNL     1       0.434   1.286   0.208  0.00  0.00    +0.032 C 
ATOM      2  C   UNL     1      -0.394   1.770  -0.980  0.00  0.00    +0.059 C 
ATOM      3  C   UNL     1       0.183   1.220  -2.273  0.00  0.00    +0.017 C 
ATOM      4  C   UNL     1       1.505   1.006  -2.393  0.00  0.00    +0.037 C 
ATOM      5  C   UNL     1       2.207   0.465  -3.616  0.00  0.00    +0.139 C 
ATOM      6  N   UNL     1       1.387   0.415  -4.807  0.00  0.00    -0.331 N 
ATOM      7  C   UNL     1       0.271  -0.417  -4.877  0.00  0.00    +0.049 A 
ATOM      8  C   UNL     1       0.238  -1.514  -5.723  0.00  0.00    +0.025 A 
ATOM      9  C   UNL     1      -0.844  -2.375  -5.678  0.00  0.00    +0.002 A 
ATOM     10  C   UNL     1      -1.885  -2.146  -4.797  0.00  0.00    +0.002 A 
ATOM     11  C   UNL     1      -1.865  -1.039  -3.965  0.00  0.00    +0.025 A 
ATOM     12  C   UNL     1      -0.792  -0.167  -4.022  0.00  0.00    +0.052 A 
ATOM     13  N   UNL     1      -0.730   0.988  -3.251  0.00  0.00    -0.316 N 
ATOM     14  C   UNL     1       2.372   1.283  -1.310  0.00  0.00    +0.163 C 
ATOM     15  O   UNL     1       3.566   1.107  -1.455  0.00  0.00    -0.292 OA
ATOM     16  C   UNL     1       1.870   1.785   0.010  0.00  0.00    +0.088 C 
ATOM     17  H   UNL     1       1.641   1.039  -5.676  0.00  0.00    +0.147 HD
ATOM     18  H   UNL     1      -1.494   1.744  -3.480  0.00  0.00    +0.152 HD
ENDROOT
BRANCH   5  19
ATOM     19  C   UNL     1       2.692  -0.929  -3.310  0.00  0.00    +0.020 A 
ATOM     20  C   UNL     1       2.170  -1.622  -2.235  0.00  0.00    +0.029 A 
ATOM     21  C   UNL     1       2.614  -2.901  -1.954  0.00  0.00    +0.042 A 
ATOM     22  C   UNL     1       3.582  -3.490  -2.749  0.00  0.00    +0.023 A 
ATOM     23  C   UNL     1       4.106  -2.800  -3.824  0.00  0.00    +0.047 A 
ATOM     24  C   UNL     1       3.658  -1.519  -4.112  0.00  0.00    +0.122 A 
ATOM     25 CL   UNL     1       1.956  -3.770  -0.602  0.00  0.00    -0.084 Cl
BRANCH  24  26
ATOM     26  O   UNL     1       4.168  -0.841  -5.173  0.00  0.00    -0.506 OA
ATOM     27  H   UNL     1       4.934  -1.310  -5.808  0.00  0.00    +0.292 HD
ENDBRANCH  24  26
ENDBRANCH   5  19
BRANCH   1  31
ATOM     28  C   UNL     1      -1.165   2.876   3.836  0.00  0.00    +0.000 A 
ATOM     29  C   UNL     1      -1.079   1.508   3.660  0.00  0.00    +0.000 A 
ATOM     30  C   UNL     1      -0.562   0.993   2.486  0.00  0.00    +0.004 A 
ATOM     31  C   UNL     1      -0.130   1.847   1.488  0.00  0.00    -0.044 A 
ATOM     32  C   UNL     1      -0.210   3.215   1.667  0.00  0.00    +0.004 A 
ATOM     33  C   UNL     1      -0.732   3.730   2.839  0.00  0.00    +0.000 A 
ENDBRANCH   1  31
TORSDOF 3
