REMARK  Name = ZINC07961005
REMARK  6 active torsions:
REMARK  status: ('A' for Active; 'I' for Inactive)
REMARK    1  A    between atoms: C_3  and  C_6
REMARK    2  A    between atoms: C_8  and  C_11
REMARK    3  A    between atoms: C_11  and  C_12
REMARK    4  A    between atoms: C_12  and  C_13
REMARK    5  A    between atoms: N_15  and  N_16
REMARK    6  A    between atoms: C_17  and  C_19
REMARK                            x       y       z     vdW  Elec       q    Type
REMARK                         _______ _______ _______ _____ _____    ______ ____
ROOT
ATOM      1  C   UNL     1       3.010  -7.056  -1.507  0.00  0.00    +0.230 C 
ATOM      2  O   UNL     1       3.009  -7.669  -0.460  0.00  0.00    -0.274 OA
ATOM      3  N   UNL     1       2.988  -7.724  -2.678  0.00  0.00    -0.234 N 
ATOM      4  H   UNL     1       2.989  -7.234  -3.515  0.00  0.00    +0.173 HD
ENDROOT
BRANCH   3   5
ATOM      5  N   UNL     1       2.963  -9.125  -2.685  0.00  0.00    -0.230 N 
ATOM      6  C   UNL     1       2.941  -9.792  -3.856  0.00  0.00    +0.262 C 
ATOM      7  O   UNL     1       2.942  -9.178  -4.905  0.00  0.00    -0.269 OA
ATOM      8  H   UNL     1       2.962  -9.614  -1.848  0.00  0.00    +0.173 HD
BRANCH   6   9
ATOM      9  C   UNL     1       2.915 -11.269  -3.864  0.00  0.00    +0.058 A 
ATOM     10  C   UNL     1       2.919 -11.977  -2.660  0.00  0.00    +0.034 A 
ATOM     11  C   UNL     1       2.889 -13.357  -2.675  0.00  0.00    +0.042 A 
ATOM     12  C   UNL     1       2.866 -14.040  -3.880  0.00  0.00    +0.021 A 
ATOM     13  C   UNL     1       2.867 -13.345  -5.075  0.00  0.00    +0.022 A 
ATOM     14  C   UNL     1       2.892 -11.964  -5.075  0.00  0.00    +0.053 A 
ATOM     15 CL   UNL     1       2.893 -11.094  -6.578  0.00  0.00    -0.083 Cl
ATOM     16 CL   UNL     1       2.888 -14.239  -1.180  0.00  0.00    -0.084 Cl
ENDBRANCH   6   9
ENDBRANCH   3   5
BRANCH   1  17
ATOM     17  C   UNL     1       3.037  -5.550  -1.499  0.00  0.00    +0.107 C 
BRANCH  17  18
ATOM     18  C   UNL     1       3.059  -5.048  -0.054  0.00  0.00    +0.108 C 
BRANCH  18  21
ATOM     19  C   UNL     1       2.549  -1.489  -0.030  0.00  0.00    +0.209 A 
ATOM     20  N   UNL     1       2.046  -2.746  -0.032  0.00  0.00    -0.191 NA
ATOM     21  C   UNL     1       3.086  -3.541  -0.046  0.00  0.00    +0.228 A 
ATOM     22  O   UNL     1       4.175  -2.767  -0.051  0.00  0.00    -0.338 OA
ATOM     23  N   UNL     1       3.855  -1.597  -0.048  0.00  0.00    -0.056 NA
BRANCH  19  26
ATOM     24  C   UNL     1       1.302   2.084   0.001  0.00  0.00    +0.008 A 
ATOM     25  C   UNL     1       2.224   1.061  -0.013  0.00  0.00    +0.019 A 
ATOM     26  C   UNL     1       1.773  -0.232  -0.016  0.00  0.00    +0.060 A 
ATOM     27  S   UNL     1       0.002  -0.004   0.002  0.00  0.00    -0.093 S 
ATOM     28  C   UNL     1      -0.022   1.781   0.012  0.00  0.00    +0.046 A 
ENDBRANCH  19  26
ENDBRANCH  18  21
ENDBRANCH  17  18
ENDBRANCH   1  17
TORSDOF 6
