REMARK  Name = ZINC39470663
REMARK  10 active torsions:
REMARK  status: ('A' for Active; 'I' for Inactive)
REMARK    1  A    between atoms: C_1  and  C_2
REMARK    2  A    between atoms: C_2  and  N_3
REMARK    3  A    between atoms: C_4  and  S_19
REMARK    4  A    between atoms: C_8  and  C_9
REMARK    5  A    between atoms: C_9  and  O_10
REMARK    6  A    between atoms: O_10  and  C_11
REMARK    7  A    between atoms: C_16  and  O_17
REMARK    8  A    between atoms: O_17  and  C_18
REMARK    9  A    between atoms: S_19  and  C_20
REMARK   10  A    between atoms: C_20  and  C_21
REMARK                            x       y       z     vdW  Elec       q    Type
REMARK                         _______ _______ _______ _____ _____    ______ ____
ROOT
ATOM      1  N   UNL     1      -1.372  -0.511   0.012  0.00  0.00    -0.287 N 
ATOM      2  C   UNL     1      -2.190  -0.817   1.199  0.00  0.00    +0.237 C 
ATOM      3  N   UNL     1      -3.467  -1.285   0.633  0.00  0.00    -0.238 N 
ATOM      4  N   UNL     1      -3.321  -1.226  -0.758  0.00  0.00    -0.170 NA
ATOM      5  C   UNL     1      -2.161  -0.792  -1.093  0.00  0.00    +0.155 C 
ATOM      6  H   UNL     1      -4.251  -1.576   1.125  0.00  0.00    +0.171 HD
ENDROOT
BRANCH   1   8
ATOM      7  C   UNL     1      -0.019   1.526   0.010  0.00  0.00    +0.024 C 
ATOM      8  C   UNL     1       0.002  -0.004   0.002  0.00  0.00    +0.105 C 
ENDBRANCH   1   8
BRANCH   5   9
ATOM      9  C   UNL     1      -1.708  -0.612  -2.519  0.00  0.00    +0.302 C 
BRANCH   9  10
ATOM     10  O   UNL     1      -2.763  -0.992  -3.405  0.00  0.00    -0.481 OA
BRANCH  10  11
ATOM     11  C   UNL     1      -2.516  -0.889  -4.738  0.00  0.00    +0.163 A 
ATOM     12  C   UNL     1      -1.284  -0.437  -5.184  0.00  0.00    +0.049 A 
ATOM     13  C   UNL     1      -1.035  -0.333  -6.539  0.00  0.00    +0.004 A 
ATOM     14  C   UNL     1      -2.013  -0.679  -7.454  0.00  0.00    +0.004 A 
ATOM     15  C   UNL     1      -3.244  -1.130  -7.016  0.00  0.00    +0.049 A 
ATOM     16  C   UNL     1      -3.498  -1.243  -5.659  0.00  0.00    +0.162 A 
BRANCH  16  17
ATOM     17  O   UNL     1      -4.707  -1.692  -5.227  0.00  0.00    -0.491 OA
ATOM     18  C   UNL     1      -5.667  -2.037  -6.228  0.00  0.00    +0.277 C 
ENDBRANCH  16  17
ENDBRANCH  10  11
ENDBRANCH   9  10
ENDBRANCH   5   9
BRANCH   2  19
ATOM     19  S   UNL     1      -2.441   0.674   2.201  0.00  0.00    -0.110 S 
BRANCH  19  20
ATOM     20  C   UNL     1      -3.290   1.819   1.080  0.00  0.00    +0.146 C 
BRANCH  20  21
ATOM     21  C   UNL     1      -3.562   3.116   1.797  0.00  0.00    +0.120 A 
ATOM     22  N   UNL     1      -4.201   4.106   1.120  0.00  0.00    -0.310 N 
ATOM     23  H   UNL     1      -4.468   3.962   0.199  0.00  0.00    +0.170 HD
ATOM     24  C   UNL     1      -4.469   5.289   1.720  0.00  0.00    +0.259 A 
ATOM     25  O   UNL     1      -5.042   6.184   1.125  0.00  0.00    -0.267 OA
ATOM     26  C   UNL     1      -4.042   5.451   3.118  0.00  0.00    +0.065 A 
ATOM     27  C   UNL     1      -4.270   6.630   3.825  0.00  0.00    +0.015 A 
ATOM     28  C   UNL     1      -3.848   6.728   5.133  0.00  0.00    +0.001 A 
ATOM     29  C   UNL     1      -3.201   5.665   5.748  0.00  0.00    +0.002 A 
ATOM     30  C   UNL     1      -2.966   4.492   5.066  0.00  0.00    +0.028 A 
ATOM     31  C   UNL     1      -3.384   4.368   3.740  0.00  0.00    +0.078 A 
ATOM     32  N   UNL     1      -3.179   3.229   3.033  0.00  0.00    -0.233 NA
ENDBRANCH  20  21
ENDBRANCH  19  20
ENDBRANCH   2  19
TORSDOF 8
