REMARK  Name = ZINC49950522
REMARK  3 active torsions:
REMARK  status: ('A' for Active; 'I' for Inactive)
REMARK    1  A    between atoms: C_1  and  C_2
REMARK    2  A    between atoms: C_8  and  N_10
REMARK    3  A    between atoms: C_11  and  C_13
REMARK                            x       y       z     vdW  Elec       q    Type
REMARK                         _______ _______ _______ _____ _____    ______ ____
ROOT
ATOM      1  C   UNL     1       0.047   0.569   4.816  0.00  0.00    +0.038 A 
ATOM      2  C   UNL     1      -1.316   0.882   4.784  0.00  0.00    +0.015 A 
ATOM      3  C   UNL     1      -1.967   1.325   5.905  0.00  0.00    +0.025 A 
ATOM      4  C   UNL     1      -1.284   1.479   7.127  0.00  0.00    +0.050 A 
ATOM      5  C   UNL     1       0.078   1.160   7.134  0.00  0.00    +0.037 A 
ATOM      6  C   UNL     1       0.743   0.710   6.023  0.00  0.00    +0.030 A 
ATOM      7  S   UNL     1       0.567   1.478   8.812  0.00  0.00    -0.051 S 
ATOM      8  C   UNL     1      -1.015   2.014   9.425  0.00  0.00    +0.186 C 
ATOM      9  N   UNL     1      -1.278   2.401  10.635  0.00  0.00    -0.110 NA
ATOM     10  S   UNL     1      -2.829   2.868  11.008  0.00  0.00    +0.073 S 
ATOM     11  O   UNL     1      -2.681   3.988  11.870  0.00  0.00    -0.151 OA
ATOM     12  O   UNL     1      -3.475   1.684  11.456  0.00  0.00    -0.151 OA
ATOM     13  C   UNL     1      -3.504   3.389   9.401  0.00  0.00    +0.212 C 
ATOM     14  C   UNL     1      -3.289   2.259   8.393  0.00  0.00    +0.137 C 
ATOM     15  N   UNL     1      -1.845   1.919   8.330  0.00  0.00    -0.276 N 
ENDROOT
BRANCH   1  17
ATOM     16  N   UNL     1       0.056  -0.038   2.447  0.00  0.00    -0.308 N 
ATOM     17  C   UNL     1       0.738   0.093   3.602  0.00  0.00    +0.244 C 
ATOM     18  O   UNL     1       1.922  -0.180   3.644  0.00  0.00    -0.270 OA
ATOM     19  H   UNL     1      -0.888   0.180   2.413  0.00  0.00    +0.149 HD
BRANCH  16  26
ATOM     20  C   UNL     1      -0.019   1.526   0.010  0.00  0.00    +0.009 C 
ATOM     21  C   UNL     1       0.002  -0.004   0.002  0.00  0.00    +0.006 C 
ATOM     22  C   UNL     1      -1.433  -0.534   0.013  0.00  0.00    +0.005 C 
ATOM     23  C   UNL     1      -1.413  -2.063   0.004  0.00  0.00    +0.000 C 
ATOM     24  C   UNL     1      -0.673  -2.570   1.244  0.00  0.00    +0.002 C 
ATOM     25  C   UNL     1       0.763  -2.041   1.233  0.00  0.00    +0.022 C 
ATOM     26  C   UNL     1       0.742  -0.511   1.242  0.00  0.00    +0.076 C 
ENDBRANCH  16  26
ENDBRANCH   1  17
TORSDOF 2
