REMARK  Name = ZINC09409549
REMARK  12 active torsions:
REMARK  status: ('A' for Active; 'I' for Inactive)
REMARK    1  A    between atoms: C_1  and  C_2
REMARK    2  A    between atoms: C_12  and  C_13
REMARK    3  A    between atoms: C_13  and  C_14
REMARK    4  A    between atoms: N_16  and  C_17
REMARK    5  A    between atoms: C_17  and  C_18
REMARK    6  A    between atoms: C_18  and  C_19
REMARK    7  A    between atoms: C_26  and  O_29
REMARK    8  A    between atoms: O_29  and  C_30
REMARK    9  A    between atoms: C_33  and  C_34
REMARK   10  A    between atoms: C_34  and  C_35
REMARK   11  A    between atoms: C_34  and  C_36
REMARK   12  A    between atoms: C_34  and  C_37
REMARK                            x       y       z     vdW  Elec       q    Type
REMARK                         _______ _______ _______ _____ _____    ______ ____
ROOT
ATOM      1  C   UNL     1      -1.280  -0.795   0.009  0.00  0.00    +0.045 C 
ATOM      2  C   UNL     1       0.002  -0.004   0.002  0.00  0.00    -0.029 A 
ATOM      3  C   UNL     1       1.303  -0.679  -0.014  0.00  0.00    +0.022 A 
ATOM      4  C   UNL     1       1.385  -2.072  -0.023  0.00  0.00    +0.023 A 
ATOM      5  C   UNL     1       2.632  -2.679  -0.038  0.00  0.00    +0.025 A 
ATOM      6  C   UNL     1       3.807  -1.900  -0.045  0.00  0.00    +0.139 A 
ATOM      7  C   UNL     1       3.718  -0.516  -0.037  0.00  0.00    +0.093 A 
ATOM      8  C   UNL     1       2.479   0.100  -0.021  0.00  0.00    +0.143 A 
ATOM      9  O   UNL     1       2.387   1.449  -0.013  0.00  0.00    -0.422 OA
ATOM     10  C   UNL     1       1.198   2.071   0.002  0.00  0.00    +0.341 A 
ATOM     11  O   UNL     1       1.167   3.289   0.008  0.00  0.00    -0.245 OA
ATOM     12  C   UNL     1      -0.016   1.353   0.009  0.00  0.00    +0.049 A 
ATOM     13  O   UNL     1       4.851  -2.754  -0.060  0.00  0.00    -0.463 OA
ATOM     14  C   UNL     1       4.427  -4.031  -0.064  0.00  0.00    +0.200 A 
ATOM     15  C   UNL     1       3.089  -4.076  -0.051  0.00  0.00    +0.003 A 
ENDROOT
BRANCH  15  16
ATOM     16  C   UNL     1       2.225  -5.311  -0.049  0.00  0.00    -0.009 C 
ATOM     17  C   UNL     1       3.115  -6.556  -0.065  0.00  0.00    +0.015 C 
ATOM     18  C   UNL     1       1.355  -5.323   1.209  0.00  0.00    +0.015 C 
ATOM     19  C   UNL     1       1.330  -5.309  -1.289  0.00  0.00    +0.015 C 
ENDBRANCH  15  16
BRANCH  12  20
ATOM     20  C   UNL     1      -1.330   2.091   0.020  0.00  0.00    +0.138 C 
BRANCH  20  21
ATOM     21  C   UNL     1      -1.762   2.329   1.444  0.00  0.00    +0.218 C 
ATOM     22  O   UNL     1      -1.070   1.938   2.360  0.00  0.00    -0.275 OA
ATOM     23  N   UNL     1      -2.916   2.976   1.699  0.00  0.00    -0.315 N 
ATOM     24  H   UNL     1      -3.469   3.289   0.966  0.00  0.00    +0.149 HD
BRANCH  23  25
ATOM     25  C   UNL     1      -3.335   3.208   3.084  0.00  0.00    +0.109 C 
BRANCH  25  26
ATOM     26  C   UNL     1      -4.669   3.957   3.094  0.00  0.00    +0.056 C 
BRANCH  26  27
ATOM     27  C   UNL     1      -5.101   4.195   4.518  0.00  0.00    -0.021 A 
ATOM     28  C   UNL     1      -5.933   3.427   5.239  0.00  0.00    +0.087 A 
ATOM     29  N   UNL     1      -6.090   3.957   6.491  0.00  0.00    -0.360 N 
ATOM     30  H   UNL     1      -6.644   3.578   7.191  0.00  0.00    +0.165 HD
ATOM     31  C   UNL     1      -5.343   5.110   6.608  0.00  0.00    +0.047 A 
ATOM     32  C   UNL     1      -4.687   5.305   5.380  0.00  0.00    +0.006 A 
ATOM     33  C   UNL     1      -3.856   6.413   5.200  0.00  0.00    +0.056 A 
ATOM     34  C   UNL     1      -3.674   7.304   6.239  0.00  0.00    +0.121 A 
ATOM     35  C   UNL     1      -4.321   7.105   7.456  0.00  0.00    +0.047 A 
ATOM     36  C   UNL     1      -5.148   6.020   7.642  0.00  0.00    +0.030 A 
BRANCH  34  37
ATOM     37  O   UNL     1      -2.861   8.382   6.072  0.00  0.00    -0.495 OA
ATOM     38  C   UNL     1      -2.718   9.265   7.187  0.00  0.00    +0.277 C 
ENDBRANCH  34  37
ENDBRANCH  26  27
ENDBRANCH  25  26
ENDBRANCH  23  25
ENDBRANCH  20  21
ENDBRANCH  12  20
TORSDOF 7
