REMARK  Name = ZINC20466656
REMARK  12 active torsions:
REMARK  status: ('A' for Active; 'I' for Inactive)
REMARK    1  A    between atoms: C_1  and  C_2
REMARK    2  A    between atoms: C_4  and  N_34
REMARK    3  A    between atoms: C_8  and  C_33
REMARK    4  A    between atoms: C_11  and  O_32
REMARK    5  A    between atoms: C_13  and  C_17
REMARK    6  A    between atoms: C_17  and  C_19
REMARK    7  A    between atoms: C_17  and  C_20
REMARK    8  A    between atoms: N_22  and  C_23
REMARK    9  A    between atoms: C_23  and  C_24
REMARK   10  A    between atoms: C_27  and  O_30
REMARK   11  A    between atoms: O_30  and  C_31
REMARK   12  A    between atoms: C_35  and  C_37
REMARK                            x       y       z     vdW  Elec       q    Type
REMARK                         _______ _______ _______ _____ _____    ______ ____
ROOT
ATOM      1  C   UNL     1      -3.542   2.636  -2.317  0.00  0.00    +0.010 C 
ATOM      2  C   UNL     1      -3.679   2.095  -0.893  0.00  0.00    +0.012 C 
ATOM      3  C   UNL     1      -2.784   0.866  -0.726  0.00  0.00    +0.076 C 
ATOM      4  C   UNL     1      -2.920   0.324   0.698  0.00  0.00    +0.023 C 
ATOM      5  C   UNL     1      -4.377  -0.066   0.958  0.00  0.00    +0.009 C 
ATOM      6  C   UNL     1      -5.272   1.163   0.792  0.00  0.00    -0.027 C 
ATOM      7  C   UNL     1      -5.135   1.705  -0.633  0.00  0.00    +0.028 C 
ATOM      8  C   UNL     1      -6.030   2.934  -0.799  0.00  0.00    +0.122 C 
ATOM      9  C   UNL     1      -7.487   2.544  -0.539  0.00  0.00    +0.029 C 
ATOM     10  C   UNL     1      -7.623   2.003   0.885  0.00  0.00    +0.007 C 
ATOM     11  C   UNL     1      -6.728   0.773   1.052  0.00  0.00    +0.007 C 
ATOM     12  C   UNL     1      -4.847   2.242   1.790  0.00  0.00    +0.011 C 
ENDROOT
BRANCH   3  13
ATOM     13  N   UNL     1      -1.389   1.239  -0.975  0.00  0.00    -0.312 N 
ATOM     14  C   UNL     1      -0.504   0.308  -1.383  0.00  0.00    +0.216 C 
ATOM     15  O   UNL     1      -0.863  -0.840  -1.543  0.00  0.00    -0.276 OA
ATOM     16  H   UNL     1      -1.065   2.280  -0.830  0.00  0.00    +0.149 HD
BRANCH  14  17
ATOM     17  C   UNL     1       0.929   0.694  -1.645  0.00  0.00    +0.075 C 
ATOM     18  C   UNL     1       1.414   0.666  -3.095  0.00  0.00    +0.013 C 
ATOM     19  C   UNL     1       1.883  -0.408  -2.111  0.00  0.00    +0.013 C 
ENDBRANCH  14  17
ENDBRANCH   3  13
BRANCH   9  20
ATOM     20  C   UNL     1      -8.382   3.774  -0.706  0.00  0.00    +0.077 C 
ATOM     21  C   UNL     1      -8.056   4.793   0.387  0.00  0.00    +0.017 C 
BRANCH  20  22
ATOM     22  C   UNL     1      -9.827   3.362  -0.594  0.00  0.00    +0.216 C 
ATOM     23  O   UNL     1     -10.115   2.194  -0.439  0.00  0.00    -0.276 OA
ATOM     24  N   UNL     1     -10.800   4.292  -0.665  0.00  0.00    -0.311 N 
ATOM     25  H   UNL     1     -10.540   5.351  -0.805  0.00  0.00    +0.149 HD
BRANCH  24  26
ATOM     26  C   UNL     1     -12.205   3.891  -0.556  0.00  0.00    +0.139 C 
BRANCH  26  27
ATOM     27  C   UNL     1     -13.085   5.110  -0.666  0.00  0.00    -0.030 A 
ATOM     28  C   UNL     1     -13.441   5.809   0.472  0.00  0.00    +0.009 A 
ATOM     29  C   UNL     1     -14.243   6.930   0.373  0.00  0.00    +0.046 A 
ATOM     30  C   UNL     1     -14.700   7.347  -0.869  0.00  0.00    +0.120 A 
ATOM     31  C   UNL     1     -14.345   6.640  -2.009  0.00  0.00    +0.046 A 
ATOM     32  C   UNL     1     -13.539   5.523  -1.905  0.00  0.00    +0.009 A 
BRANCH  30  33
ATOM     33  O   UNL     1     -15.493   8.446  -0.969  0.00  0.00    -0.495 OA
ATOM     34  C   UNL     1     -15.817   9.124   0.246  0.00  0.00    +0.277 C 
ENDBRANCH  30  33
ENDBRANCH  26  27
ENDBRANCH  24  26
ENDBRANCH  20  22
ENDBRANCH   9  20
BRANCH   8  35
ATOM     35  O   UNL     1      -5.903   3.440  -2.130  0.00  0.00    -0.391 OA
ATOM     36  H   UNL     1      -6.475   4.327  -2.438  0.00  0.00    +0.210 HD
ENDBRANCH   8  35
TORSDOF 8
