REMARK  Name = ZINC12040196
REMARK  13 active torsions:
REMARK  status: ('A' for Active; 'I' for Inactive)
REMARK    1  A    between atoms: C_1  and  C_2
REMARK    2  A    between atoms: C_2  and  C_3
REMARK    3  A    between atoms: C_3  and  C_5
REMARK    4  A    between atoms: C_3  and  C_6
REMARK    5  A    between atoms: C_6  and  C_8
REMARK    6  A    between atoms: C_6  and  N_69
REMARK    7  A    between atoms: C_8  and  O_10
REMARK    8  A    between atoms: O_10  and  C_11
REMARK    9  A    between atoms: C_12  and  N_69
REMARK   10  A    between atoms: N_15  and  C_18
REMARK   11  A    between atoms: C_21  and  C_24
REMARK   12  A    between atoms: N_26  and  C_27
REMARK   13  A    between atoms: C_27  and  C_28
REMARK                            x       y       z     vdW  Elec       q    Type
REMARK                         _______ _______ _______ _____ _____    ______ ____
ROOT
ATOM      1  C   UNL     1       0.025   8.135   5.868  0.00  0.00    +0.030 A 
ATOM      2  C   UNL     1       0.016   9.192   4.962  0.00  0.00    +0.024 A 
ATOM      3  C   UNL     1      -0.179   8.950   3.622  0.00  0.00    +0.015 A 
ATOM      4  C   UNL     1      -0.369   7.641   3.170  0.00  0.00    +0.037 A 
ATOM      5  C   UNL     1      -0.366   6.582   4.083  0.00  0.00    +0.015 A 
ATOM      6  C   UNL     1      -0.164   6.830   5.421  0.00  0.00    +0.024 A 
ENDROOT
BRANCH   1  10
ATOM      7  C   UNL     1       1.560   8.229   9.776  0.00  0.00    -0.068 C 
ATOM      8  C   UNL     1       0.269   7.457   9.489  0.00  0.00    +0.003 C 
ATOM      9  C   UNL     1       0.195   7.135   7.995  0.00  0.00    +0.103 C 
ATOM     10  N   UNL     1       0.222   8.383   7.222  0.00  0.00    -0.330 N 
ATOM     11  C   UNL     1       1.474   9.119   7.445  0.00  0.00    +0.103 C 
ATOM     12  C   UNL     1       1.587   9.500   8.923  0.00  0.00    +0.003 C 
BRANCH   7  13
ATOM     13  N   UNL     1       1.601   8.592  11.206  0.00  0.00    +0.390 N 
ATOM     14  H   UNL     1       1.098   9.476  11.345  0.00  0.00    -0.084 HD
ATOM     15  H   UNL     1       1.152   7.851  11.756  0.00  0.00    -0.084 HD
BRANCH  13  16
ATOM     16  C   UNL     1       2.998   8.752  11.653  0.00  0.00    +0.042 C 
BRANCH  16  17
ATOM     17  C   UNL     1       3.043   9.752  12.810  0.00  0.00    -0.018 C 
ATOM     18  C   UNL     1       2.312   9.167  14.020  0.00  0.00    +0.006 C 
BRANCH  17  20
ATOM     19  C   UNL     1       5.202  10.724  12.009  0.00  0.00    +0.004 C 
ATOM     20  C   UNL     1       4.500  10.036  13.182  0.00  0.00    -0.001 C 
ENDBRANCH  17  20
ENDBRANCH  16  17
BRANCH  16  21
ATOM     21  C   UNL     1       3.532   7.422  12.119  0.00  0.00    +0.293 C 
ATOM     22  O   UNL     1       2.828   6.440  12.076  0.00  0.00    -0.253 OA
BRANCH  21  23
ATOM     23  O   UNL     1       4.789   7.327  12.580  0.00  0.00    -0.469 OA
ATOM     24  C   UNL     1       5.236   6.015  13.011  0.00  0.00    +0.280 C 
ENDBRANCH  21  23
ENDBRANCH  16  21
ENDBRANCH  13  16
ENDBRANCH   7  13
ENDBRANCH   1  10
BRANCH   4  25
ATOM     25  C   UNL     1      -0.579   7.378   1.734  0.00  0.00    +0.244 C 
ATOM     26  O   UNL     1      -0.587   8.300   0.942  0.00  0.00    -0.270 OA
ATOM     27  N   UNL     1      -0.762   6.115   1.300  0.00  0.00    -0.307 N 
ATOM     28  H   UNL     1      -0.756   5.379   1.932  0.00  0.00    +0.149 HD
BRANCH  27  29
ATOM     29  C   UNL     1      -0.971   5.854  -0.127  0.00  0.00    +0.140 C 
BRANCH  29  30
ATOM     30  C   UNL     1      -1.148   4.373  -0.345  0.00  0.00    -0.027 A 
ATOM     31  C   UNL     1      -0.047   3.576  -0.595  0.00  0.00    +0.009 A 
ATOM     32  C   UNL     1      -0.205   2.218  -0.798  0.00  0.00    +0.050 A 
ATOM     33  C   UNL     1      -1.469   1.652  -0.749  0.00  0.00    +0.166 A 
ATOM     34  C   UNL     1      -2.578   2.455  -0.496  0.00  0.00    +0.167 A 
ATOM     35  C   UNL     1      -2.412   3.815  -0.294  0.00  0.00    +0.054 A 
ATOM     36  O   UNL     1      -3.695   1.669  -0.498  0.00  0.00    -0.453 OA
ATOM     37  C   UNL     1      -3.306   0.451  -1.159  0.00  0.00    +0.466 C 
ATOM     38  O   UNL     1      -1.890   0.363  -0.910  0.00  0.00    -0.453 OA
ENDBRANCH  29  30
ENDBRANCH  27  29
ENDBRANCH   4  25
TORSDOF 10
