REMARK  Name = ZINC21814827
REMARK  7 active torsions:
REMARK  status: ('A' for Active; 'I' for Inactive)
REMARK    1  A    between atoms: C_1  and  C_2
REMARK    2  A    between atoms: C_2  and  C_4
REMARK    3  A    between atoms: C_2  and  O_16
REMARK    4  A    between atoms: N_6  and  C_7
REMARK    5  A    between atoms: C_8  and  N_15
REMARK    6  A    between atoms: O_16  and  C_17
REMARK    7  A    between atoms: C_17  and  C_18
REMARK                            x       y       z     vdW  Elec       q    Type
REMARK                         _______ _______ _______ _____ _____    ______ ____
ROOT
ATOM      1  C   UNL     1       3.531   3.246  -0.216  0.00  0.00    +0.246 C 
ATOM      2  O   UNL     1       3.530   2.065  -0.494  0.00  0.00    -0.273 OA
ATOM      3  N   UNL     1       2.365   3.887   0.000  0.00  0.00    -0.281 N 
ATOM      4  H   UNL     1       2.359   4.974   0.171  0.00  0.00    +0.155 HD
ENDROOT
BRANCH   3   5
ATOM      5  C   UNL     1       1.161   3.169   0.009  0.00  0.00    +0.073 A 
ATOM      6  C   UNL     1       0.440   2.999  -1.173  0.00  0.00    +0.049 A 
ATOM      7  C   UNL     1      -0.751   2.289  -1.159  0.00  0.00    +0.044 A 
ATOM      8  C   UNL     1      -1.219   1.746   0.025  0.00  0.00    +0.044 A 
ATOM      9  C   UNL     1      -0.506   1.919   1.198  0.00  0.00    +0.042 A 
ATOM     10  C   UNL     1       0.683   2.626   1.192  0.00  0.00    +0.065 A 
ATOM     11 CL   UNL     1       1.576   2.835   2.666  0.00  0.00    -0.082 Cl
ATOM     12 CL   UNL     1      -2.706   0.851   0.039  0.00  0.00    -0.083 Cl
BRANCH   6  13
ATOM     13  N   UNL     1       0.917   3.544  -2.370  0.00  0.00    -0.356 N 
ATOM     14  H   UNL     1       0.347   3.410  -3.301  0.00  0.00    +0.142 HD
ATOM     15  H   UNL     1       1.862   4.107  -2.380  0.00  0.00    +0.142 HD
ENDBRANCH   6  13
ENDBRANCH   3   5
BRANCH   1  17
ATOM     16  C   UNL     1       5.042   4.460   1.331  0.00  0.00    +0.048 C 
ATOM     17  C   UNL     1       4.834   3.995  -0.112  0.00  0.00    +0.201 C 
BRANCH  17  18
ATOM     18  O   UNL     1       5.909   3.136  -0.496  0.00  0.00    -0.365 OA
BRANCH  18  19
ATOM     19  C   UNL     1       7.019   3.820  -1.081  0.00  0.00    +0.192 C 
BRANCH  19  20
ATOM     20  C   UNL     1       8.105   2.807  -1.451  0.00  0.00    +0.144 C 
ATOM     21  C   UNL     1       9.256   3.518  -2.189  0.00  0.00    +0.036 C 
ATOM     22  C   UNL     1      10.502   3.228  -1.317  0.00  0.00    +0.031 C 
ATOM     23  C   UNL     1      10.056   1.978  -0.518  0.00  0.00    +0.160 C 
ATOM     24  O   UNL     1       8.655   2.223  -0.258  0.00  0.00    -0.374 OA
ENDBRANCH  19  20
ENDBRANCH  18  19
ENDBRANCH  17  18
ENDBRANCH   1  17
TORSDOF 6
