REMARK  Name = ZINC62495686
REMARK  4 active torsions:
REMARK  status: ('A' for Active; 'I' for Inactive)
REMARK    1  A    between atoms: C_3  and  N_20
REMARK    2  A    between atoms: C_6  and  C_7
REMARK    3  A    between atoms: C_7  and  C_8
REMARK    4  A    between atoms: C_15  and  O_19
REMARK                            x       y       z     vdW  Elec       q    Type
REMARK                         _______ _______ _______ _____ _____    ______ ____
ROOT
ATOM      1  C   UNL     1      -1.294  -0.773   0.011  0.00  0.00    +0.081 C 
ENDROOT
BRANCH   1   2
ATOM      2  C   UNL     1      -1.756  -1.009  -1.428  0.00  0.00    +0.195 C 
ATOM      3  C   UNL     1      -3.134  -1.688  -1.421  0.00  0.00    +0.146 C 
ATOM      4  N   UNL     1      -3.514  -1.938  -2.822  0.00  0.00    -0.337 N 
ATOM      5  C   UNL     1      -2.518  -2.415  -3.695  0.00  0.00    +0.070 A 
ATOM      6  C   UNL     1      -2.870  -2.935  -4.929  0.00  0.00    +0.030 A 
ATOM      7  C   UNL     1      -1.890  -3.401  -5.787  0.00  0.00    +0.047 A 
ATOM      8  C   UNL     1      -0.556  -3.347  -5.410  0.00  0.00    +0.120 A 
ATOM      9  C   UNL     1      -0.202  -2.829  -4.174  0.00  0.00    +0.093 A 
ATOM     10  C   UNL     1      -1.181  -2.362  -3.311  0.00  0.00    +0.145 A 
ATOM     11  O   UNL     1      -0.823  -1.860  -2.098  0.00  0.00    -0.485 OA
ATOM     12  H   UNL     1      -4.419  -1.779  -3.133  0.00  0.00    +0.146 HD
BRANCH   8  13
ATOM     13  O   UNL     1       0.406  -3.803  -6.255  0.00  0.00    -0.507 OA
ATOM     14  H   UNL     1       0.753  -3.130  -6.857  0.00  0.00    +0.292 HD
ENDBRANCH   8  13
ENDBRANCH   1   2
BRANCH   1  20
ATOM     15  C   UNL     1      -0.017   1.379   0.026  0.00  0.00    +0.005 A 
ATOM     16  C   UNL     1       1.169   2.087   0.018  0.00  0.00    +0.023 A 
ATOM     17  C   UNL     1       2.381   1.409  -0.013  0.00  0.00    +0.030 A 
ATOM     18  C   UNL     1       2.396   0.020  -0.037  0.00  0.00    +0.023 A 
ATOM     19  C   UNL     1       1.207  -0.682  -0.029  0.00  0.00    +0.005 A 
ATOM     20  C   UNL     1       0.002  -0.004   0.002  0.00  0.00    -0.044 A 
BRANCH  17  21
ATOM     21  N   UNL     1       3.582   2.122  -0.021  0.00  0.00    -0.330 N 
ATOM     22  C   UNL     1       4.870   1.420   0.067  0.00  0.00    +0.105 C 
ATOM     23  C   UNL     1       5.753   1.862  -1.104  0.00  0.00    +0.019 C 
ATOM     24  C   UNL     1       5.867   3.388  -1.105  0.00  0.00    +0.003 C 
ATOM     25  C   UNL     1       4.479   4.005  -1.287  0.00  0.00    +0.019 C 
ATOM     26  C   UNL     1       3.582   3.588  -0.124  0.00  0.00    +0.105 C 
ENDBRANCH  17  21
ENDBRANCH   1  20
TORSDOF 4
