REMARK  Name = ZINC36501102
REMARK  20 active torsions:
REMARK  status: ('A' for Active; 'I' for Inactive)
REMARK    1  A    between atoms: C_1  and  C_2
REMARK    2  A    between atoms: C_5  and  C_9
REMARK    3  A    between atoms: C_6  and  C_8
REMARK    4  A    between atoms: C_9  and  C_11
REMARK    5  A    between atoms: C_9  and  N_22
REMARK    6  A    between atoms: N_13  and  C_14
REMARK    7  A    between atoms: C_14  and  C_15
REMARK    8  A    between atoms: C_14  and  C_16
REMARK    9  A    between atoms: C_14  and  C_17
REMARK   10  A    between atoms: C_17  and  C_18
REMARK   11  A    between atoms: C_18  and  C_19
REMARK   12  A    between atoms: C_18  and  C_20
REMARK   13  A    between atoms: C_18  and  C_21
REMARK   14  A    between atoms: N_22  and  C_23
REMARK   15  A    between atoms: C_23  and  C_24
REMARK   16  A    between atoms: C_29  and  C_31
REMARK   17  A    between atoms: C_31  and  C_32
REMARK   18  A    between atoms: C_32  and  C_33
REMARK   19  A    between atoms: C_36  and  O_39
REMARK   20  A    between atoms: O_39  and  C_40
REMARK                            x       y       z     vdW  Elec       q    Type
REMARK                         _______ _______ _______ _____ _____    ______ ____
ROOT
ATOM      1  C   UNL     1      -0.821  -4.861   0.770  0.00  0.00    +0.193 C 
ENDROOT
BRANCH   1   6
ATOM      2  C   UNL     1       2.149  -0.478   3.087  0.00  0.00    +0.044 C 
ATOM      3  C   UNL     1       1.374  -1.621   2.482  0.00  0.00    -0.050 A 
ATOM      4  C   UNL     1       0.075  -1.425   2.051  0.00  0.00    +0.004 A 
ATOM      5  C   UNL     1      -0.635  -2.473   1.497  0.00  0.00    +0.006 A 
ATOM      6  C   UNL     1      -0.046  -3.718   1.373  0.00  0.00    -0.015 A 
ATOM      7  C   UNL     1       1.252  -3.914   1.803  0.00  0.00    -0.045 A 
ATOM      8  C   UNL     1       1.964  -2.864   2.353  0.00  0.00    +0.007 A 
ATOM      9  C   UNL     1       1.894  -5.271   1.668  0.00  0.00    +0.044 C 
ENDBRANCH   1   6
BRANCH   1  10
ATOM     10  C   UNL     1      -2.290  -4.524   0.763  0.00  0.00    +0.239 C 
ATOM     11  O   UNL     1      -2.902  -4.499  -0.284  0.00  0.00    -0.273 OA
ATOM     12  N   UNL     1      -2.924  -4.249   1.920  0.00  0.00    -0.308 N 
ATOM     13  H   UNL     1      -2.421  -4.198   2.748  0.00  0.00    +0.149 HD
BRANCH  12  14
ATOM     14  C   UNL     1      -4.372  -4.028   1.927  0.00  0.00    +0.030 C 
ATOM     15  C   UNL     1      -4.697  -2.748   1.155  0.00  0.00    +0.031 C 
ATOM     16  C   UNL     1      -5.073  -5.216   1.264  0.00  0.00    +0.031 C 
BRANCH  14  17
ATOM     17  C   UNL     1      -4.860  -3.890   3.371  0.00  0.00    +0.031 C 
BRANCH  17  18
ATOM     18  C   UNL     1      -3.975  -4.734   4.291  0.00  0.00    -0.036 C 
ATOM     19  C   UNL     1      -2.697  -3.961   4.619  0.00  0.00    +0.010 C 
ATOM     20  C   UNL     1      -4.732  -5.041   5.585  0.00  0.00    +0.010 C 
ATOM     21  C   UNL     1      -3.614  -6.045   3.589  0.00  0.00    +0.010 C 
ENDBRANCH  17  18
ENDBRANCH  14  17
ENDBRANCH  12  14
ENDBRANCH   1  10
BRANCH   1  22
ATOM     22  N   UNL     1      -0.366  -5.088  -0.604  0.00  0.00    -0.279 N 
ATOM     23  C   UNL     1      -0.479  -4.108  -1.522  0.00  0.00    +0.217 C 
ATOM     24  O   UNL     1      -0.958  -3.038  -1.212  0.00  0.00    -0.276 OA
BRANCH  22  25
ATOM     25  C   UNL     1       0.212  -6.380  -0.980  0.00  0.00    +0.183 C 
BRANCH  25  26
ATOM     26  C   UNL     1      -0.889  -7.322  -1.393  0.00  0.00    +0.122 A 
ATOM     27  C   UNL     1      -1.366  -7.474  -2.642  0.00  0.00    +0.046 A 
ATOM     28  C   UNL     1      -2.384  -8.453  -2.575  0.00  0.00    +0.041 A 
ATOM     29  C   UNL     1      -2.469  -8.840  -1.289  0.00  0.00    +0.195 A 
ATOM     30  O   UNL     1      -1.556  -8.156  -0.579  0.00  0.00    -0.466 OA
ENDBRANCH  25  26
ENDBRANCH  22  25
BRANCH  23  31
ATOM     31  C   UNL     1      -0.011  -4.342  -2.936  0.00  0.00    +0.100 C 
BRANCH  31  32
ATOM     32  C   UNL     1      -0.251  -3.080  -3.768  0.00  0.00    +0.044 C 
BRANCH  32  33
ATOM     33  C   UNL     1       0.218  -3.314  -5.181  0.00  0.00    -0.047 A 
ATOM     34  C   UNL     1       1.523  -3.025  -5.532  0.00  0.00    +0.007 A 
ATOM     35  C   UNL     1       1.955  -3.238  -6.827  0.00  0.00    +0.046 A 
ATOM     36  C   UNL     1       1.078  -3.743  -7.775  0.00  0.00    +0.120 A 
ATOM     37  C   UNL     1      -0.232  -4.033  -7.420  0.00  0.00    +0.046 A 
ATOM     38  C   UNL     1      -0.657  -3.823  -6.123  0.00  0.00    +0.007 A 
BRANCH  36  39
ATOM     39  O   UNL     1       1.500  -3.953  -9.050  0.00  0.00    -0.495 OA
ATOM     40  C   UNL     1       0.542  -4.475  -9.973  0.00  0.00    +0.277 C 
ENDBRANCH  36  39
ENDBRANCH  32  33
ENDBRANCH  31  32
ENDBRANCH  23  31
ENDBRANCH   1  22
TORSDOF 12
