REMARK  Name = ZINC09216831
REMARK  8 active torsions:
REMARK  status: ('A' for Active; 'I' for Inactive)
REMARK    1  A    between atoms: C_1  and  C_2
REMARK    2  A    between atoms: C_5  and  C_32
REMARK    3  A    between atoms: C_5  and  C_33
REMARK    4  A    between atoms: N_11  and  C_15
REMARK    5  A    between atoms: C_15  and  C_16
REMARK    6  A    between atoms: C_23  and  C_24
REMARK    7  A    between atoms: C_23  and  N_69
REMARK    8  A    between atoms: C_25  and  C_26
REMARK                            x       y       z     vdW  Elec       q    Type
REMARK                         _______ _______ _______ _____ _____    ______ ____
ROOT
ATOM      1  C   UNL     1      -1.638   2.422   1.459  0.00  0.00    +0.233 C 
ATOM      2  O   UNL     1      -0.967   1.983   2.369  0.00  0.00    -0.274 OA
ATOM      3  N   UNL     1      -2.741   3.150   1.725  0.00  0.00    -0.304 N 
ATOM      4  C   UNL     1      -3.565   3.696   0.636  0.00  0.00    +0.089 C 
ATOM      5  C   UNL     1      -5.027   3.298   0.892  0.00  0.00    -0.059 C 
ATOM      6  C   UNL     1      -4.623   3.041   3.270  0.00  0.00    -0.059 C 
ATOM      7  C   UNL     1      -3.148   3.424   3.111  0.00  0.00    +0.089 C 
ATOM      8  N   UNL     1      -5.413   3.757   2.244  0.00  0.00    +0.384 N 
ATOM      9  H   UNL     1      -5.222   4.763   2.321  0.00  0.00    -0.081 HD
ENDROOT
BRANCH   1  10
ATOM     10  C   UNL     1      -1.239   2.153   0.031  0.00  0.00    +0.213 C 
BRANCH  10  20
ATOM     11  C   UNL     1       1.755  -3.664  -1.837  0.00  0.00    +0.007 C 
ATOM     12  C   UNL     1       1.303  -2.733  -0.707  0.00  0.00    -0.011 C 
ATOM     13  C   UNL     1       1.817  -3.273   0.626  0.00  0.00    +0.009 C 
ATOM     14  C   UNL     1       1.360  -2.384   1.780  0.00  0.00    -0.032 C 
ATOM     15  C   UNL     1       1.746  -0.930   1.559  0.00  0.00    +0.041 C 
ATOM     16  C   UNL     1       1.449  -0.394   0.171  0.00  0.00    +0.113 C 
ATOM     17  C   UNL     1       1.892  -1.340  -0.936  0.00  0.00    +0.038 C 
ATOM     18  C   UNL     1       0.002  -0.004   0.002  0.00  0.00    +0.247 C 
ATOM     19  O   UNL     1      -0.961  -0.726  -0.143  0.00  0.00    -0.273 OA
ATOM     20  N   UNL     1      -0.016   1.347   0.009  0.00  0.00    -0.215 N 
ATOM     21  C   UNL     1       1.222   1.852   0.000  0.00  0.00    +0.310 C 
ATOM     22  O   UNL     1       1.466   3.043  -0.012  0.00  0.00    -0.252 OA
ATOM     23  N   UNL     1       2.164   0.893   0.008  0.00  0.00    -0.285 N 
ATOM     24  C   UNL     1       2.071  -2.876   3.060  0.00  0.00    +0.011 C 
ATOM     25  C   UNL     1      -0.145  -2.530   2.004  0.00  0.00    +0.011 C 
ATOM     26  H   UNL     1       3.121   1.004  -0.076  0.00  0.00    +0.151 HD
ENDBRANCH  10  20
ENDBRANCH   1  10
BRANCH   8  27
ATOM     27  C   UNL     1      -6.855   3.524   2.464  0.00  0.00    -0.051 C 
BRANCH  27  28
ATOM     28  C   UNL     1      -7.638   4.431   1.550  0.00  0.00    -0.045 C 
ATOM     29  C   UNL     1      -8.552   3.923   0.736  0.00  0.00    +0.002 C 
BRANCH  29  30
ATOM     30  C   UNL     1      -9.320   4.814  -0.160  0.00  0.00    -0.025 A 
ATOM     31  C   UNL     1      -9.089   6.190  -0.147  0.00  0.00    +0.008 A 
ATOM     32  C   UNL     1      -9.805   7.014  -0.990  0.00  0.00    +0.001 A 
ATOM     33  C   UNL     1     -10.759   6.481  -1.839  0.00  0.00    +0.000 A 
ATOM     34  C   UNL     1     -10.996   5.118  -1.853  0.00  0.00    +0.001 A 
ATOM     35  C   UNL     1     -10.283   4.282  -1.019  0.00  0.00    +0.008 A 
ENDBRANCH  29  30
ENDBRANCH  27  28
ENDBRANCH   8  27
TORSDOF 5
