REMARK  Name = ZINC57579991
REMARK  5 active torsions:
REMARK  status: ('A' for Active; 'I' for Inactive)
REMARK    1  A    between atoms: C_1  and  C_2
REMARK    2  A    between atoms: C_5  and  N_8
REMARK    3  A    between atoms: C_9  and  C_15
REMARK    4  A    between atoms: C_20  and  O_21
REMARK    5  A    between atoms: O_21  and  C_22
REMARK                            x       y       z     vdW  Elec       q    Type
REMARK                         _______ _______ _______ _____ _____    ______ ____
ROOT
ATOM      1  N   UNL     1       0.059  -4.170  -0.021  0.00  0.00    -0.247 N 
ATOM      2  C   UNL     1       0.176  -5.027   1.168  0.00  0.00    +0.133 C 
ATOM      3  C   UNL     1       0.146  -6.458   0.597  0.00  0.00    +0.133 C 
ATOM      4  N   UNL     1       0.016  -6.255  -0.854  0.00  0.00    -0.297 N 
ATOM      5  C   UNL     1      -0.031  -4.941  -1.112  0.00  0.00    +0.307 C 
ATOM      6  O   UNL     1      -0.142  -4.490  -2.236  0.00  0.00    -0.252 OA
ATOM      7  H   UNL     1      -0.033  -6.960  -1.518  0.00  0.00    +0.150 HD
ENDROOT
BRANCH   1  12
ATOM      8  C   UNL     1      -0.018   1.503   0.011  0.00  0.00    +0.044 C 
ATOM      9  C   UNL     1       0.002  -0.004   0.002  0.00  0.00    -0.050 A 
ATOM     10  C   UNL     1      -0.221  -0.691  -1.177  0.00  0.00    +0.005 A 
ATOM     11  C   UNL     1      -0.203  -2.072  -1.188  0.00  0.00    +0.024 A 
ATOM     12  C   UNL     1       0.041  -2.771  -0.013  0.00  0.00    +0.038 A 
ATOM     13  C   UNL     1       0.264  -2.078   1.169  0.00  0.00    +0.024 A 
ATOM     14  C   UNL     1       0.250  -0.697   1.173  0.00  0.00    +0.005 A 
ENDBRANCH   1  12
BRANCH   2  15
ATOM     15  C   UNL     1      -0.988  -4.801   2.099  0.00  0.00    +0.017 A 
ATOM     16  C   UNL     1      -2.189  -4.331   1.603  0.00  0.00    +0.009 A 
ATOM     17  C   UNL     1      -3.257  -4.123   2.456  0.00  0.00    +0.001 A 
ATOM     18  C   UNL     1      -3.126  -4.386   3.807  0.00  0.00    +0.004 A 
ATOM     19  C   UNL     1      -1.928  -4.857   4.308  0.00  0.00    +0.046 A 
ATOM     20  C   UNL     1      -0.856  -5.071   3.453  0.00  0.00    +0.125 A 
BRANCH  20  21
ATOM     21  O   UNL     1       0.322  -5.540   3.942  0.00  0.00    -0.495 OA
ATOM     22  C   UNL     1       0.385  -5.795   5.347  0.00  0.00    +0.277 C 
ENDBRANCH  20  21
ENDBRANCH   2  15
TORSDOF 3
