REMARK  Name = ZINC38690717
REMARK  11 active torsions:
REMARK  status: ('A' for Active; 'I' for Inactive)
REMARK    1  A    between atoms: C_1  and  C_2
REMARK    2  A    between atoms: C_2  and  C_4
REMARK    3  A    between atoms: C_2  and  N_23
REMARK    4  A    between atoms: N_6  and  C_7
REMARK    5  A    between atoms: C_11  and  C_13
REMARK    6  A    between atoms: C_13  and  O_15
REMARK    7  A    between atoms: O_15  and  C_16
REMARK    8  A    between atoms: C_20  and  O_21
REMARK    9  A    between atoms: O_21  and  C_22
REMARK   10  A    between atoms: N_26  and  C_29
REMARK   11  A    between atoms: C_33  and  C_35
REMARK                            x       y       z     vdW  Elec       q    Type
REMARK                         _______ _______ _______ _____ _____    ______ ____
ROOT
ATOM      1  C   UNL     1       0.066  -0.175  -1.875  0.00  0.00    +0.234 C 
ATOM      2  O   UNL     1       1.198  -0.304  -1.461  0.00  0.00    -0.274 OA
ATOM      3  N   UNL     1      -0.288  -0.728  -3.052  0.00  0.00    -0.285 N 
ATOM      4  H   UNL     1      -1.179  -0.583  -3.408  0.00  0.00    +0.155 HD
ENDROOT
BRANCH   3   5
ATOM      5  C   UNL     1       0.605  -1.491  -3.743  0.00  0.00    +0.056 C 
ATOM      6  C   UNL     1       0.364  -2.226  -4.886  0.00  0.00    +0.059 A 
ATOM      7  C   UNL     1       1.612  -2.898  -5.293  0.00  0.00    +0.048 A 
ATOM      8  N   UNL     1       2.585  -2.603  -4.454  0.00  0.00    -0.367 N 
ATOM      9  C   UNL     1       2.067  -1.703  -3.418  0.00  0.00    +0.234 C 
ATOM     10  C   UNL     1       1.584  -3.709  -6.452  0.00  0.00    +0.026 A 
ATOM     11  C   UNL     1       0.438  -3.858  -7.162  0.00  0.00    +0.006 A 
ATOM     12  C   UNL     1      -0.755  -3.236  -6.801  0.00  0.00    +0.046 A 
ATOM     13  C   UNL     1      -0.835  -2.433  -5.699  0.00  0.00    +0.131 A 
ATOM     14  H   UNL     1       3.498  -2.926  -4.514  0.00  0.00    +0.161 HD
BRANCH   9  15
ATOM     15  C   UNL     1       2.803  -0.388  -3.454  0.00  0.00    +0.335 C 
ATOM     16  O   UNL     1       3.031   0.148  -4.513  0.00  0.00    -0.248 OA
BRANCH  15  17
ATOM     17  O   UNL     1       3.204   0.188  -2.310  0.00  0.00    -0.466 OA
ATOM     18  C   UNL     1       3.895   1.434  -2.419  0.00  0.00    +0.280 C 
ENDBRANCH  15  17
ENDBRANCH   9  15
BRANCH  13  19
ATOM     19  O   UNL     1      -2.006  -1.836  -5.365  0.00  0.00    -0.494 OA
ATOM     20  C   UNL     1      -3.153  -2.176  -6.147  0.00  0.00    +0.277 C 
ENDBRANCH  13  19
ENDBRANCH   3   5
BRANCH   1  22
ATOM     21  C   UNL     1      -0.900   2.076  -1.489  0.00  0.00    +0.034 C 
ATOM     22  C   UNL     1      -0.945   0.604  -1.074  0.00  0.00    +0.140 C 
BRANCH  22  23
ATOM     23  N   UNL     1      -2.289   0.065  -1.325  0.00  0.00    -0.289 NA
ATOM     24  C   UNL     1      -2.397  -1.321  -0.853  0.00  0.00    +0.104 C 
ATOM     25  C   UNL     1      -3.744  -1.904  -1.293  0.00  0.00    +0.120 C 
ATOM     26  N   UNL     1      -4.814  -1.005  -0.834  0.00  0.00    -0.327 N 
ATOM     27  C   UNL     1      -4.705   0.426  -1.152  0.00  0.00    +0.120 C 
ATOM     28  C   UNL     1      -3.320   0.917  -0.717  0.00  0.00    +0.104 C 
BRANCH  26  29
ATOM     29  C   UNL     1      -5.905  -1.499  -0.115  0.00  0.00    +0.030 A 
ATOM     30  C   UNL     1      -6.971  -0.663   0.194  0.00  0.00    +0.023 A 
ATOM     31  C   UNL     1      -8.049  -1.154   0.904  0.00  0.00    +0.002 A 
ATOM     32  C   UNL     1      -8.067  -2.476   1.309  0.00  0.00    +0.012 A 
ATOM     33  C   UNL     1      -7.008  -3.311   1.004  0.00  0.00    +0.057 A 
ATOM     34  C   UNL     1      -5.930  -2.828   0.289  0.00  0.00    +0.035 A 
BRANCH  33  35
ATOM     35  C   UNL     1      -7.032  -4.751   1.448  0.00  0.00    +0.417 C 
ATOM     36  F   UNL     1      -8.218  -5.004   2.146  0.00  0.00    -0.166 F 
ATOM     37  F   UNL     1      -6.962  -5.586   0.328  0.00  0.00    -0.166 F 
ATOM     38  F   UNL     1      -5.938  -4.999   2.284  0.00  0.00    -0.166 F 
ENDBRANCH  33  35
ENDBRANCH  26  29
ENDBRANCH  22  23
ENDBRANCH   1  22
TORSDOF 8
