REMARK  Name = ZINC05099615
REMARK  5 active torsions:
REMARK  status: ('A' for Active; 'I' for Inactive)
REMARK    1  A    between atoms: C_1  and  C_2
REMARK    2  A    between atoms: C_4  and  S_9
REMARK    3  A    between atoms: S_9  and  N_12
REMARK    4  A    between atoms: N_12  and  C_13
REMARK    5  A    between atoms: C_23  and  C_25
REMARK                            x       y       z     vdW  Elec       q    Type
REMARK                         _______ _______ _______ _____ _____    ______ ____
ROOT
ATOM      1  C   UNL     1       3.593   3.166  -2.553  0.00  0.00    +0.048 A 
ATOM      2  C   UNL     1       2.230   3.302  -2.321  0.00  0.00    +0.026 A 
ATOM      3  C   UNL     1       1.442   3.976  -3.232  0.00  0.00    +0.025 A 
ATOM      4  C   UNL     1       2.009   4.507  -4.385  0.00  0.00    +0.040 A 
ATOM      5  C   UNL     1       3.368   4.371  -4.620  0.00  0.00    -0.024 A 
ATOM      6  C   UNL     1       4.157   3.698  -3.703  0.00  0.00    +0.030 A 
ATOM      7  C   UNL     1       4.014   4.945  -5.853  0.00  0.00    +0.038 C 
ATOM      8  C   UNL     1       2.971   5.179  -6.946  0.00  0.00    +0.024 C 
ATOM      9  C   UNL     1       1.808   5.988  -6.356  0.00  0.00    +0.114 C 
ATOM     10  N   UNL     1       1.184   5.176  -5.303  0.00  0.00    -0.265 N 
ATOM     11  C   UNL     1      -0.157   5.075  -5.220  0.00  0.00    +0.286 C 
ATOM     12  O   UNL     1      -0.661   4.297  -4.431  0.00  0.00    -0.266 OA
ENDROOT
BRANCH  11  13
ATOM     13  C   UNL     1      -1.009   5.902  -6.080  0.00  0.00    +0.190 A 
ATOM     14  C   UNL     1      -2.367   5.807  -6.194  0.00  0.00    +0.054 A 
ATOM     15  C   UNL     1      -2.763   6.785  -7.120  0.00  0.00    +0.042 A 
ATOM     16  C   UNL     1      -1.645   7.426  -7.525  0.00  0.00    +0.196 A 
ATOM     17  O   UNL     1      -0.591   6.894  -6.892  0.00  0.00    -0.458 OA
ENDBRANCH  11  13
BRANCH   1  18
ATOM     18  N   UNL     1       4.395   2.487  -1.630  0.00  0.00    -0.216 N 
ATOM     19  H   UNL     1       4.366   1.519  -1.581  0.00  0.00    +0.174 HD
BRANCH  18  20
ATOM     20  S   UNL     1       5.395   3.337  -0.619  0.00  0.00    +0.072 S 
ATOM     21  O   UNL     1       6.157   4.210  -1.441  0.00  0.00    -0.150 OA
ATOM     22  O   UNL     1       5.998   2.387   0.249  0.00  0.00    -0.150 OA
BRANCH  20  26
ATOM     23  C   UNL     1       2.341   4.075   3.558  0.00  0.00    +0.047 C 
ATOM     24  C   UNL     1       2.981   4.641   2.316  0.00  0.00    -0.013 A 
ATOM     25  C   UNL     1       3.783   3.840   1.526  0.00  0.00    +0.035 A 
ATOM     26  C   UNL     1       4.371   4.359   0.387  0.00  0.00    +0.109 A 
ATOM     27  C   UNL     1       4.157   5.679   0.038  0.00  0.00    +0.031 A 
ATOM     28  C   UNL     1       3.355   6.482   0.826  0.00  0.00    +0.040 A 
ATOM     29  C   UNL     1       2.765   5.963   1.967  0.00  0.00    +0.126 A 
ATOM     30  F   UNL     1       1.981   6.747   2.739  0.00  0.00    -0.205 F 
ENDBRANCH  20  26
ENDBRANCH  18  20
ENDBRANCH   1  18
TORSDOF 4
