REMARK  Name = ZINC11789528
REMARK  7 active torsions:
REMARK  status: ('A' for Active; 'I' for Inactive)
REMARK    1  A    between atoms: C_1  and  C_2
REMARK    2  A    between atoms: C_10  and  C_13
REMARK    3  A    between atoms: C_14  and  C_15
REMARK    4  A    between atoms: C_14  and  N_55
REMARK    5  A    between atoms: N_17  and  C_18
REMARK    6  A    between atoms: C_18  and  C_19
REMARK    7  A    between atoms: C_21  and  C_25
REMARK                            x       y       z     vdW  Elec       q    Type
REMARK                         _______ _______ _______ _____ _____    ______ ____
ROOT
ATOM      1  C   UNL     1      -2.268   1.605  -0.895  0.00  0.00    +0.197 C 
ATOM      2  O   UNL     1      -2.593   0.964   0.081  0.00  0.00    -0.278 OA
ATOM      3  N   UNL     1      -3.199   1.979  -1.796  0.00  0.00    -0.311 N 
ATOM      4  H   UNL     1      -2.939   2.493  -2.577  0.00  0.00    +0.149 HD
ENDROOT
BRANCH   1   5
ATOM      5  C   UNL     1      -0.825   1.985  -1.101  0.00  0.00    +0.019 C 
BRANCH   5  18
ATOM      6  C   UNL     1      -1.833  -2.341   4.041  0.00  0.00    +0.044 C 
ATOM      7  C   UNL     1      -0.705  -1.621   3.348  0.00  0.00    -0.050 A 
ATOM      8  C   UNL     1       0.495  -1.423   4.006  0.00  0.00    +0.007 A 
ATOM      9  C   UNL     1       1.531  -0.755   3.380  0.00  0.00    +0.046 A 
ATOM     10  C   UNL     1       1.360  -0.283   2.086  0.00  0.00    +0.122 A 
ATOM     11  C   UNL     1       0.165  -0.498   1.427  0.00  0.00    -0.022 A 
ATOM     12  C   UNL     1      -0.871  -1.159   2.054  0.00  0.00    +0.008 A 
ATOM     13  C   UNL     1       0.002  -0.004   0.002  0.00  0.00    -0.038 C 
ATOM     14  C   UNL     1       1.323   2.042   0.000  0.00  0.00    -0.033 C 
ATOM     15  C   UNL     1       2.091   1.814   1.284  0.00  0.00    +0.154 C 
ATOM     16  O   UNL     1       2.355   0.419   1.477  0.00  0.00    -0.491 OA
ATOM     17  C   UNL     1       3.418   2.573   1.218  0.00  0.00    +0.050 C 
ATOM     18  N   UNL     1      -0.043   1.477   0.038  0.00  0.00    +0.391 N 
ATOM     19  H   UNL     1      -0.498   1.771   0.910  0.00  0.00    -0.081 HD
ENDBRANCH   5  18
ENDBRANCH   1   5
BRANCH   3  20
ATOM     20  C   UNL     1      -4.602   1.611  -1.596  0.00  0.00    +0.161 C 
BRANCH  20  21
ATOM     21  C   UNL     1      -5.430   2.146  -2.736  0.00  0.00    +0.080 A 
ATOM     22  C   UNL     1      -5.784   1.440  -3.886  0.00  0.00    +0.054 A 
ATOM     23  C   UNL     1      -6.535   2.269  -4.671  0.00  0.00    +0.066 A 
ATOM     24  N   UNL     1      -6.634   3.463  -4.021  0.00  0.00    -0.277 N 
ATOM     25  H   UNL     1      -7.121   4.273  -4.348  0.00  0.00    +0.189 HD
ATOM     26  N   UNL     1      -5.932   3.352  -2.815  0.00  0.00    -0.177 NA
BRANCH  23  27
ATOM     27  C   UNL     1      -7.126   1.934  -5.985  0.00  0.00    -0.000 A 
ATOM     28  C   UNL     1      -6.937   0.666  -6.536  0.00  0.00    +0.010 A 
ATOM     29  C   UNL     1      -7.496   0.357  -7.759  0.00  0.00    +0.001 A 
ATOM     30  C   UNL     1      -8.232   1.306  -8.445  0.00  0.00    +0.000 A 
ATOM     31  C   UNL     1      -8.419   2.567  -7.907  0.00  0.00    +0.001 A 
ATOM     32  C   UNL     1      -7.870   2.886  -6.682  0.00  0.00    +0.010 A 
ENDBRANCH  23  27
ENDBRANCH  20  21
ENDBRANCH   3  20
TORSDOF 5
