REMARK  Name = ZINC39325229
REMARK  8 active torsions:
REMARK  status: ('A' for Active; 'I' for Inactive)
REMARK    1  A    between atoms: C_1  and  C_2
REMARK    2  A    between atoms: C_5  and  C_33
REMARK    3  A    between atoms: C_10  and  C_14
REMARK    4  A    between atoms: C_14  and  N_15
REMARK    5  A    between atoms: N_15  and  C_16
REMARK    6  A    between atoms: N_15  and  S_23
REMARK    7  A    between atoms: C_16  and  C_17
REMARK    8  A    between atoms: S_23  and  C_26
REMARK                            x       y       z     vdW  Elec       q    Type
REMARK                         _______ _______ _______ _____ _____    ______ ____
ROOT
ATOM      1  N   UNL     1      -1.067  -1.299   5.881  0.00  0.00    -0.171 NA
ENDROOT
BRANCH   1   2
ATOM      2  S   UNL     1      -1.699  -2.823   6.020  0.00  0.00    +0.061 S 
ATOM      3  O   UNL     1      -2.082  -2.982   7.380  0.00  0.00    -0.153 OA
ATOM      4  O   UNL     1      -2.618  -2.981   4.947  0.00  0.00    -0.153 OA
BRANCH   2   5
ATOM      5  C   UNL     1      -0.386  -3.961   5.730  0.00  0.00    +0.106 A 
ATOM      6  C   UNL     1      -0.215  -4.514   4.475  0.00  0.00    +0.029 A 
ATOM      7  C   UNL     1       0.816  -5.406   4.247  0.00  0.00    +0.017 A 
ATOM      8  C   UNL     1       1.676  -5.746   5.275  0.00  0.00    +0.018 A 
ATOM      9  C   UNL     1       1.505  -5.192   6.531  0.00  0.00    +0.017 A 
ATOM     10  C   UNL     1       0.477  -4.296   6.757  0.00  0.00    +0.029 A 
ATOM     11 BR   UNL     1       3.086  -6.967   4.964  0.00  0.00    -0.050 Br
ENDBRANCH   2   5
ENDBRANCH   1   2
BRANCH   1  12
ATOM     12  C   UNL     1      -1.186  -0.568   4.617  0.00  0.00    +0.126 C 
BRANCH  12  22
ATOM     13  C   UNL     1      -0.242   2.341   0.490  0.00  0.00    +0.044 C 
ATOM     14  C   UNL     1       0.458   1.007   0.469  0.00  0.00    -0.042 A 
ATOM     15  C   UNL     1       0.995   0.527  -0.683  0.00  0.00    +0.004 A 
ATOM     16  C   UNL     1       1.647  -0.706  -0.722  0.00  0.00    +0.005 A 
ATOM     17  C   UNL     1       1.785  -1.497   0.374  0.00  0.00    -0.029 A 
ATOM     18  C   UNL     1       1.264  -1.093   1.617  0.00  0.00    +0.043 A 
ATOM     19  N   UNL     1       1.405  -1.878   2.685  0.00  0.00    -0.284 N 
ATOM     20  C   UNL     1       0.940  -1.559   3.881  0.00  0.00    +0.225 C 
ATOM     21  O   UNL     1       1.101  -2.316   4.820  0.00  0.00    -0.275 OA
ATOM     22  C   UNL     1       0.210  -0.250   4.078  0.00  0.00    +0.114 C 
ATOM     23  C   UNL     1       0.046   0.646   2.866  0.00  0.00    -0.003 C 
ATOM     24  C   UNL     1       0.576   0.207   1.689  0.00  0.00    -0.004 A 
ATOM     25  C   UNL     1       2.500  -2.818   0.257  0.00  0.00    +0.045 C 
ATOM     26  H   UNL     1       1.871  -2.722   2.580  0.00  0.00    +0.155 HD
ENDBRANCH  12  22
ENDBRANCH   1  12
BRANCH   1  27
ATOM     27  C   UNL     1      -0.387  -0.681   7.023  0.00  0.00    +0.144 C 
BRANCH  27  28
ATOM     28  C   UNL     1      -1.362   0.182   7.781  0.00  0.00    -0.032 A 
ATOM     29  C   UNL     1      -1.516   1.513   7.441  0.00  0.00    +0.005 A 
ATOM     30  C   UNL     1      -2.411   2.305   8.137  0.00  0.00    +0.000 A 
ATOM     31  C   UNL     1      -3.152   1.766   9.172  0.00  0.00    +0.000 A 
ATOM     32  C   UNL     1      -2.998   0.434   9.511  0.00  0.00    +0.000 A 
ATOM     33  C   UNL     1      -2.107  -0.359   8.813  0.00  0.00    +0.005 A 
ENDBRANCH  27  28
ENDBRANCH   1  27
TORSDOF 6
