REMARK  Name = ZINC09836200
REMARK  9 active torsions:
REMARK  status: ('A' for Active; 'I' for Inactive)
REMARK    1  A    between atoms: C_1  and  C_2
REMARK    2  A    between atoms: C_2  and  O_3
REMARK    3  A    between atoms: O_3  and  C_4
REMARK    4  A    between atoms: C_7  and  N_10
REMARK    5  A    between atoms: C_20  and  C_21
REMARK    6  A    between atoms: C_20  and  O_35
REMARK    7  A    between atoms: N_23  and  C_24
REMARK    8  A    between atoms: C_29  and  C_34
REMARK    9  A    between atoms: C_31  and  C_33
REMARK                            x       y       z     vdW  Elec       q    Type
REMARK                         _______ _______ _______ _____ _____    ______ ____
ROOT
ATOM      1  N   UNL     1       1.405   2.671   1.295  0.00  0.00    -0.214 N 
ATOM      2  C   UNL     1       2.092   3.825   1.206  0.00  0.00    +0.314 C 
ATOM      3  O   UNL     1       2.699   4.215   2.185  0.00  0.00    -0.252 OA
ATOM      4  N   UNL     1       2.139   4.563   0.089  0.00  0.00    -0.269 N 
ATOM      5  C   UNL     1       1.478   4.204  -1.086  0.00  0.00    +0.043 A 
ATOM      6  C   UNL     1       1.559   5.005  -2.217  0.00  0.00    +0.025 A 
ATOM      7  C   UNL     1       0.898   4.633  -3.372  0.00  0.00    +0.017 A 
ATOM      8  C   UNL     1       0.155   3.466  -3.407  0.00  0.00    +0.018 A 
ATOM      9  C   UNL     1       0.072   2.663  -2.280  0.00  0.00    +0.025 A 
ATOM     10  C   UNL     1       0.730   3.032  -1.130  0.00  0.00    +0.034 A 
ATOM     11  C   UNL     1       0.664   2.184   0.119  0.00  0.00    +0.247 C 
ATOM     12 BR   UNL     1      -0.746   2.966  -4.992  0.00  0.00    -0.050 Br
ATOM     13  H   UNL     1       2.655   5.384   0.099  0.00  0.00    +0.156 HD
ENDROOT
BRANCH   1  17
ATOM     14  C   UNL     1       1.373   0.504   4.858  0.00  0.00    +0.121 A 
ATOM     15  C   UNL     1       2.286   0.188   3.862  0.00  0.00    +0.047 A 
ATOM     16  C   UNL     1       2.297   0.905   2.682  0.00  0.00    +0.027 A 
ATOM     17  C   UNL     1       1.394   1.943   2.492  0.00  0.00    +0.042 A 
ATOM     18  C   UNL     1       0.484   2.262   3.491  0.00  0.00    +0.027 A 
ATOM     19  C   UNL     1       0.471   1.541   4.669  0.00  0.00    +0.047 A 
BRANCH  14  20
ATOM     20  O   UNL     1       1.363  -0.202   6.020  0.00  0.00    -0.492 OA
BRANCH  20  22
ATOM     21  C   UNL     1       0.535  -0.723   8.230  0.00  0.00    +0.048 C 
ATOM     22  C   UNL     1       0.396   0.178   7.001  0.00  0.00    +0.225 C 
ENDBRANCH  20  22
ENDBRANCH  14  20
ENDBRANCH   1  17
BRANCH  11  23
ATOM     23  C   UNL     1      -0.784   2.042   0.509  0.00  0.00    +0.269 C 
ATOM     24  O   UNL     1      -1.292   0.942   0.566  0.00  0.00    -0.270 OA
ATOM     25  N   UNL     1      -1.517   3.138   0.788  0.00  0.00    -0.308 N 
ATOM     26  H   UNL     1      -1.111   4.018   0.743  0.00  0.00    +0.149 HD
BRANCH  25  27
ATOM     27  C   UNL     1      -2.927   3.001   1.161  0.00  0.00    +0.076 C 
ATOM     28  C   UNL     1      -3.785   2.930  -0.104  0.00  0.00    +0.022 C 
ATOM     29  C   UNL     1      -5.258   2.786   0.286  0.00  0.00    +0.002 C 
ATOM     30  C   UNL     1      -5.684   3.993   1.123  0.00  0.00    +0.003 C 
ATOM     31  C   UNL     1      -4.826   4.064   2.389  0.00  0.00    -0.009 C 
ATOM     32  C   UNL     1      -3.353   4.208   1.999  0.00  0.00    +0.009 C 
ATOM     33  C   UNL     1      -3.164   5.488   1.182  0.00  0.00    +0.009 C 
ATOM     34  C   UNL     1      -5.252   5.272   3.226  0.00  0.00    +0.008 C 
ENDBRANCH  25  27
ENDBRANCH  11  23
BRANCH  11  35
ATOM     35  O   UNL     1       1.159   0.883  -0.205  0.00  0.00    -0.360 OA
ATOM     36  H   UNL     1       0.692   0.456  -0.936  0.00  0.00    +0.213 HD
ENDBRANCH  11  35
TORSDOF 6
