REMARK  Name = ZINC34946976
REMARK  12 active torsions:
REMARK  status: ('A' for Active; 'I' for Inactive)
REMARK    1  A    between atoms: C_1  and  C_2
REMARK    2  A    between atoms: C_2  and  C_3
REMARK    3  A    between atoms: C_3  and  C_4
REMARK    4  A    between atoms: C_4  and  C_5
REMARK    5  A    between atoms: C_5  and  C_6
REMARK    6  A    between atoms: N_8  and  C_9
REMARK    7  A    between atoms: C_9  and  C_11
REMARK    8  A    between atoms: C_9  and  C_22
REMARK    9  A    between atoms: C_11  and  C_12
REMARK   10  A    between atoms: C_28  and  C_31
REMARK   11  A    between atoms: N_34  and  C_35
REMARK   12  A    between atoms: C_35  and  C_36
REMARK                            x       y       z     vdW  Elec       q    Type
REMARK                         _______ _______ _______ _____ _____    ______ ____
ROOT
ATOM      1  C   UNL     1       2.377  -6.498  -3.661  0.00  0.00    +0.163 C 
ENDROOT
BRANCH   1   2
ATOM      2  C   UNL     1       2.834  -7.133  -4.949  0.00  0.00    +0.236 C 
ATOM      3  O   UNL     1       3.685  -6.592  -5.623  0.00  0.00    -0.274 OA
ATOM      4  N   UNL     1       2.298  -8.301  -5.352  0.00  0.00    -0.297 N 
ATOM      5  C   UNL     1       1.184  -8.909  -4.610  0.00  0.00    +0.127 C 
ATOM      6  C   UNL     1       1.579 -10.337  -4.215  0.00  0.00    +0.128 C 
ATOM      7  N   UNL     1       2.097 -11.027  -5.405  0.00  0.00    -0.280 N 
ATOM      8  C   UNL     1       3.210 -10.419  -6.148  0.00  0.00    +0.092 C 
ATOM      9  C   UNL     1       2.811  -8.988  -6.545  0.00  0.00    +0.130 C 
ATOM     10  C   UNL     1       3.498 -11.242  -7.405  0.00  0.00    +0.030 C 
ATOM     11  C   UNL     1       1.560 -12.195  -5.809  0.00  0.00    +0.303 C 
ATOM     12  O   UNL     1       1.935 -12.712  -6.843  0.00  0.00    -0.253 OA
ATOM     13  N   UNL     1       0.607 -12.792  -5.065  0.00  0.00    -0.299 N 
ATOM     14  H   UNL     1       0.256 -12.345  -4.278  0.00  0.00    +0.150 HD
BRANCH  13  15
ATOM     15  C   UNL     1       0.103 -14.114  -5.444  0.00  0.00    +0.102 C 
ATOM     16  C   UNL     1      -0.963 -14.559  -4.441  0.00  0.00    +0.024 C 
ENDBRANCH  13  15
ENDBRANCH   1   2
BRANCH   1  19
ATOM     17  C   UNL     1       1.904  -4.215  -2.953  0.00  0.00    +0.214 C 
ATOM     18  O   UNL     1       1.027  -4.650  -2.236  0.00  0.00    -0.276 OA
ATOM     19  N   UNL     1       2.638  -5.057  -3.707  0.00  0.00    -0.304 N 
ATOM     20  H   UNL     1       3.339  -4.709  -4.280  0.00  0.00    +0.149 HD
BRANCH  17  21
ATOM     21  C   UNL     1       2.172  -2.733  -3.000  0.00  0.00    +0.096 C 
BRANCH  21  22
ATOM     22  C   UNL     1       1.208  -2.009  -2.058  0.00  0.00    +0.009 C 
BRANCH  22  23
ATOM     23  C   UNL     1       1.480  -0.504  -2.106  0.00  0.00    +0.000 C 
BRANCH  23  25
ATOM     24  C   UNL     1       0.788   1.724  -1.212  0.00  0.00    +0.004 C 
ATOM     25  C   UNL     1       0.516   0.219  -1.164  0.00  0.00    -0.003 C 
ENDBRANCH  23  25
ENDBRANCH  22  23
ENDBRANCH  21  22
ENDBRANCH  17  21
ENDBRANCH   1  19
BRANCH   1  26
ATOM     26  C   UNL     1       3.139  -7.117  -2.488  0.00  0.00    +0.069 C 
BRANCH  26  27
ATOM     27  C   UNL     1       2.594  -6.575  -1.192  0.00  0.00    -0.020 A 
ATOM     28  C   UNL     1       3.074  -5.532  -0.498  0.00  0.00    +0.087 A 
ATOM     29  N   UNL     1       2.322  -5.333   0.628  0.00  0.00    -0.360 N 
ATOM     30  H   UNL     1       2.476  -4.638   1.286  0.00  0.00    +0.165 HD
ATOM     31  C   UNL     1       1.313  -6.269   0.686  0.00  0.00    +0.047 A 
ATOM     32  C   UNL     1       1.435  -7.083  -0.454  0.00  0.00    +0.003 A 
ATOM     33  C   UNL     1       0.532  -8.127  -0.665  0.00  0.00    +0.010 A 
ATOM     34  C   UNL     1      -0.470  -8.350   0.237  0.00  0.00    +0.001 A 
ATOM     35  C   UNL     1      -0.598  -7.546   1.362  0.00  0.00    +0.002 A 
ATOM     36  C   UNL     1       0.288  -6.516   1.594  0.00  0.00    +0.026 A 
ENDBRANCH  26  27
ENDBRANCH   1  26
TORSDOF 9
