REMARK  Name = ZINC66876387
REMARK  6 active torsions:
REMARK  status: ('A' for Active; 'I' for Inactive)
REMARK    1  A    between atoms: C_1  and  C_2
REMARK    2  A    between atoms: C_2  and  C_4
REMARK    3  A    between atoms: C_2  and  N_10
REMARK    4  A    between atoms: C_13  and  N_16
REMARK    5  A    between atoms: C_17  and  C_19
REMARK    6  A    between atoms: C_19  and  C_20
REMARK                            x       y       z     vdW  Elec       q    Type
REMARK                         _______ _______ _______ _____ _____    ______ ____
ROOT
ATOM      1  N   UNL     1       1.009  -0.914   0.564  0.00  0.00    +0.387 N 
ATOM      2  C   UNL     1       1.010  -2.170  -0.196  0.00  0.00    -0.076 C 
ATOM      3  C   UNL     1       1.999  -3.152   0.435  0.00  0.00    +0.004 C 
ATOM      4  C   UNL     1       3.403  -2.539   0.413  0.00  0.00    +0.069 C 
ATOM      5  C   UNL     1       3.373  -1.194   1.145  0.00  0.00    +0.004 C 
ATOM      6  C   UNL     1       2.333  -0.284   0.487  0.00  0.00    -0.076 C 
ATOM      7  H   UNL     1       0.785  -1.107   1.529  0.00  0.00    -0.081 HD
ENDROOT
BRANCH   4   8
ATOM      8  N   UNL     1       4.342  -3.441   1.084  0.00  0.00    -0.313 N 
ATOM      9  C   UNL     1       5.653  -3.400   0.775  0.00  0.00    +0.213 C 
ATOM     10  O   UNL     1       6.055  -2.616  -0.059  0.00  0.00    -0.276 OA
ATOM     11  H   UNL     1       4.020  -4.068   1.751  0.00  0.00    +0.149 HD
BRANCH   9  12
ATOM     12  C   UNL     1       6.619  -4.328   1.465  0.00  0.00    +0.099 C 
BRANCH  12  13
ATOM     13  C   UNL     1       8.033  -4.079   0.935  0.00  0.00    -0.002 C 
ATOM     14  C   UNL     1       8.130  -4.522  -0.539  0.00  0.00    +0.004 C 
ATOM     15  C   UNL     1       9.551  -5.128  -0.660  0.00  0.00    +0.000 C 
ATOM     16  C   UNL     1       9.726  -5.862   0.693  0.00  0.00    +0.000 C 
ATOM     17  C   UNL     1       9.047  -4.930   1.719  0.00  0.00    +0.004 C 
ENDBRANCH  12  13
ENDBRANCH   9  12
ENDBRANCH   4   8
BRANCH   1  19
ATOM     18  C   UNL     1       0.019   1.316   0.775  0.00  0.00    -0.004 C 
ATOM     19  C   UNL     1       0.002  -0.004   0.002  0.00  0.00    +0.017 C 
BRANCH  19  20
ATOM     20  C   UNL     1      -1.363  -0.634   0.114  0.00  0.00    +0.207 C 
ATOM     21  O   UNL     1      -1.591  -1.432   0.997  0.00  0.00    -0.277 OA
ATOM     22  N   UNL     1      -2.328  -0.310  -0.769  0.00  0.00    -0.242 N 
ATOM     23  C   UNL     1      -3.549  -0.873  -0.669  0.00  0.00    +0.303 C 
ATOM     24  O   UNL     1      -3.778  -1.673   0.217  0.00  0.00    -0.253 OA
ATOM     25  N   UNL     1      -4.515  -0.549  -1.551  0.00  0.00    -0.313 N 
ATOM     26  H   UNL     1      -2.145   0.329  -1.476  0.00  0.00    +0.159 HD
ATOM     27  H   UNL     1      -4.332   0.089  -2.258  0.00  0.00    +0.146 HD
ATOM     28  H   UNL     1      -5.393  -0.955  -1.479  0.00  0.00    +0.146 HD
ENDBRANCH  19  20
ENDBRANCH   1  19
TORSDOF 5
