REMARK  Name = ZINC22842756
REMARK  9 active torsions:
REMARK  status: ('A' for Active; 'I' for Inactive)
REMARK    1  A    between atoms: C_1  and  C_2
REMARK    2  A    between atoms: C_6  and  N_9
REMARK    3  A    between atoms: C_7  and  C_8
REMARK    4  A    between atoms: C_13  and  C_26
REMARK    5  A    between atoms: C_14  and  C_25
REMARK    6  A    between atoms: C_18  and  S_19
REMARK    7  A    between atoms: S_19  and  C_20
REMARK    8  A    between atoms: C_20  and  C_22
REMARK    9  A    between atoms: C_20  and  C_23
REMARK                            x       y       z     vdW  Elec       q    Type
REMARK                         _______ _______ _______ _____ _____    ______ ____
ROOT
ATOM      1  N   UNL     1       0.053  -2.798   2.394  0.00  0.00    -0.255 N 
ATOM      2  C   UNL     1      -1.112  -3.153   2.967  0.00  0.00    +0.268 A 
ATOM      3  O   UNL     1      -2.173  -2.861   2.441  0.00  0.00    -0.267 OA
ATOM      4  C   UNL     1      -1.090  -3.877   4.200  0.00  0.00    +0.076 A 
ATOM      5  C   UNL     1      -2.201  -4.365   4.999  0.00  0.00    -0.026 A 
ATOM      6  C   UNL     1      -1.948  -5.030   6.136  0.00  0.00    -0.008 A 
ATOM      7  S   UNL     1      -0.167  -5.049   6.217  0.00  0.00    -0.073 S 
ATOM      8  C   UNL     1       0.186  -4.163   4.721  0.00  0.00    +0.117 A 
ATOM      9  N   UNL     1       1.299  -3.783   4.105  0.00  0.00    -0.215 NA
ATOM     10  C   UNL     1       1.251  -3.121   2.967  0.00  0.00    +0.178 A 
ATOM     11  C   UNL     1      -2.933  -5.620   7.112  0.00  0.00    +0.052 C 
ATOM     12  C   UNL     1      -3.622  -4.127   4.556  0.00  0.00    +0.045 C 
ENDROOT
BRANCH   1  18
ATOM     13  C   UNL     1      -0.018   1.503   0.010  0.00  0.00    +0.044 C 
ATOM     14  C   UNL     1       0.002  -0.004   0.002  0.00  0.00    -0.046 A 
ATOM     15  C   UNL     1       0.006  -0.688  -1.200  0.00  0.00    +0.004 A 
ATOM     16  C   UNL     1       0.025  -2.071  -1.212  0.00  0.00    +0.002 A 
ATOM     17  C   UNL     1       0.040  -2.773  -0.022  0.00  0.00    +0.026 A 
ATOM     18  C   UNL     1       0.037  -2.089   1.186  0.00  0.00    +0.055 A 
ATOM     19  C   UNL     1       0.023  -0.700   1.194  0.00  0.00    -0.024 A 
ATOM     20  C   UNL     1       0.025   0.046   2.504  0.00  0.00    +0.046 C 
ENDBRANCH   1  18
BRANCH  10  21
ATOM     21  S   UNL     1       2.750  -2.641   2.176  0.00  0.00    -0.069 S 
BRANCH  21  22
ATOM     22  C   UNL     1       4.048  -3.272   3.275  0.00  0.00    +0.153 C 
ATOM     23  C   UNL     1       3.975  -2.547   4.620  0.00  0.00    +0.035 C 
BRANCH  22  24
ATOM     24  C   UNL     1       5.366  -3.039   2.662  0.00  0.00    +0.077 C 
ATOM     25  N   UNL     1       6.383  -2.859   2.189  0.00  0.00    -0.195 NA
ENDBRANCH  22  24
ENDBRANCH  21  22
ENDBRANCH  10  21
TORSDOF 4
