REMARK  Name = ZINC58360406
REMARK  12 active torsions:
REMARK  status: ('A' for Active; 'I' for Inactive)
REMARK    1  A    between atoms: C_1  and  C_2
REMARK    2  A    between atoms: C_4  and  C_13
REMARK    3  A    between atoms: C_5  and  C_12
REMARK    4  A    between atoms: N_6  and  C_7
REMARK    5  A    between atoms: C_7  and  C_8
REMARK    6  A    between atoms: C_8  and  C_9
REMARK    7  A    between atoms: C_9  and  C_10
REMARK    8  A    between atoms: C_9  and  C_11
REMARK    9  A    between atoms: C_13  and  C_15
REMARK   10  A    between atoms: C_15  and  S_16
REMARK   11  A    between atoms: S_16  and  C_17
REMARK   12  A    between atoms: N_21  and  C_22
REMARK                            x       y       z     vdW  Elec       q    Type
REMARK                         _______ _______ _______ _____ _____    ______ ____
ROOT
ATOM      1  C   UNL     1      -0.018   1.503   0.010  0.00  0.00    +0.063 C 
ATOM      2  C   UNL     1       0.002  -0.004   0.002  0.00  0.00    +0.017 A 
ATOM      3  C   UNL     1       0.008  -0.777  -1.097  0.00  0.00    +0.034 A 
ATOM      4  C   UNL     1       0.030  -2.167  -0.625  0.00  0.00    +0.039 A 
ATOM      5  C   UNL     1       0.035  -2.098   0.755  0.00  0.00    +0.026 A 
ATOM      6  N   UNL     1       0.023  -0.801   1.110  0.00  0.00    -0.348 N 
ATOM      7  C   UNL     1       0.056  -3.273   1.700  0.00  0.00    +0.064 C 
ENDROOT
BRANCH   4   8
ATOM      8  C   UNL     1       0.043  -3.379  -1.448  0.00  0.00    +0.175 C 
ATOM      9  O   UNL     1       0.060  -4.471  -0.920  0.00  0.00    -0.291 OA
BRANCH   8  10
ATOM     10  C   UNL     1       0.035  -3.269  -2.951  0.00  0.00    +0.157 C 
BRANCH  10  11
ATOM     11  S   UNL     1       0.056  -4.930  -3.679  0.00  0.00    -0.077 S 
BRANCH  11  12
ATOM     12  C   UNL     1       0.044  -4.635  -5.416  0.00  0.00    +0.210 A 
ATOM     13  N   UNL     1       0.031  -3.461  -6.009  0.00  0.00    -0.101 NA
ATOM     14  N   UNL     1       0.026  -3.601  -7.285  0.00  0.00    -0.022 NA
ATOM     15  N   UNL     1       0.035  -4.852  -7.598  0.00  0.00    -0.043 NA
ATOM     16  N   UNL     1       0.053  -5.573  -6.392  0.00  0.00    -0.217 N 
BRANCH  16  17
ATOM     17  C   UNL     1       0.074  -7.029  -6.226  0.00  0.00    +0.112 C 
ATOM     18  C   UNL     1       0.284  -7.880  -7.480  0.00  0.00    +0.029 C 
ATOM     19  C   UNL     1      -1.092  -7.824  -6.815  0.00  0.00    +0.029 C 
ENDBRANCH  16  17
ENDBRANCH  11  12
ENDBRANCH  10  11
ENDBRANCH   8  10
ENDBRANCH   4   8
BRANCH   6  20
ATOM     20  C   UNL     1       0.029  -0.312   2.491  0.00  0.00    +0.122 C 
BRANCH  20  21
ATOM     21  C   UNL     1      -1.411  -0.163   2.985  0.00  0.00    +0.024 C 
BRANCH  21  22
ATOM     22  C   UNL     1      -1.405   0.348   4.427  0.00  0.00    -0.016 C 
ATOM     23  C   UNL     1      -0.816   1.759   4.466  0.00  0.00    +0.007 C 
ATOM     24  C   UNL     1      -2.838   0.379   4.963  0.00  0.00    +0.007 C 
ENDBRANCH  21  22
ENDBRANCH  20  21
ENDBRANCH   6  20
TORSDOF 8
