REMARK  Name = ZINC03841484
REMARK  5 active torsions:
REMARK  status: ('A' for Active; 'I' for Inactive)
REMARK    1  A    between atoms: C_5  and  S_7
REMARK    2  A    between atoms: S_7  and  N_10
REMARK    3  A    between atoms: N_10  and  C_11
REMARK    4  A    between atoms: C_26  and  C_27
REMARK    5  A    between atoms: C_26  and  N_62
REMARK                            x       y       z     vdW  Elec       q    Type
REMARK                         _______ _______ _______ _____ _____    ______ ____
ROOT
ATOM      1  C   UNL     1      -1.063   1.390  -0.842  0.00  0.00    +0.112 A 
ATOM      2  C   UNL     1      -0.812   2.499  -1.603  0.00  0.00    +0.031 A 
ATOM      3  C   UNL     1       0.449   3.103  -1.524  0.00  0.00    +0.023 A 
ATOM      4  C   UNL     1       1.410   2.589  -0.715  0.00  0.00    +0.023 A 
ATOM      5  N   UNL     1       1.194   1.440  -0.027  0.00  0.00    -0.310 N 
ATOM      6  C   UNL     1      -0.041   0.883  -0.015  0.00  0.00    +0.274 A 
ATOM      7  O   UNL     1      -0.269  -0.068   0.716  0.00  0.00    -0.266 OA
ATOM      8  C   UNL     1       2.257   0.720   0.676  0.00  0.00    +0.127 C 
ATOM      9  C   UNL     1       3.442   1.615   0.999  0.00  0.00    -0.007 C 
ATOM     10  C   UNL     1       3.841   2.405  -0.251  0.00  0.00    +0.011 C 
ATOM     11  C   UNL     1       2.696   3.372  -0.574  0.00  0.00    +0.020 C 
ATOM     12  C   UNL     1       2.529   4.327   0.619  0.00  0.00    -0.069 C 
ATOM     13  C   UNL     1       3.139   2.556   2.156  0.00  0.00    -0.074 C 
ATOM     14  N   UNL     1       2.085   3.519   1.777  0.00  0.00    +0.381 N 
ATOM     15  H   UNL     1       1.238   3.000   1.517  0.00  0.00    -0.082 HD
ENDROOT
BRANCH   1  16
ATOM     16  N   UNL     1      -2.318   0.771  -0.880  0.00  0.00    -0.211 N 
ATOM     17  H   UNL     1      -2.468  -0.053  -0.390  0.00  0.00    +0.174 HD
BRANCH  16  18
ATOM     18  S   UNL     1      -3.547   1.445  -1.762  0.00  0.00    +0.073 S 
ATOM     19  O   UNL     1      -2.998   1.792  -3.026  0.00  0.00    -0.150 OA
ATOM     20  O   UNL     1      -4.665   0.578  -1.630  0.00  0.00    -0.150 OA
BRANCH  18  25
ATOM     21  C   UNL     1      -3.783   5.337  -0.790  0.00  0.00    +0.005 A 
ATOM     22  C   UNL     1      -4.675   5.333   0.266  0.00  0.00    +0.038 A 
ATOM     23  C   UNL     1      -5.224   4.140   0.704  0.00  0.00    +0.125 A 
ATOM     24  C   UNL     1      -4.883   2.952   0.079  0.00  0.00    +0.067 A 
ATOM     25  C   UNL     1      -3.987   2.957  -0.972  0.00  0.00    +0.111 A 
ATOM     26  C   UNL     1      -3.439   4.149  -1.409  0.00  0.00    +0.029 A 
ATOM     27  F   UNL     1      -6.097   4.135   1.735  0.00  0.00    -0.205 F 
ENDBRANCH  18  25
ENDBRANCH  16  18
ENDBRANCH   1  16
BRANCH  14  28
ATOM     28  C   UNL     1       1.774   4.401   2.920  0.00  0.00    -0.075 C 
BRANCH  28  29
ATOM     29  C   UNL     1       3.031   5.135   3.390  0.00  0.00    -0.028 C 
ATOM     30  C   UNL     1       2.959   5.352   4.903  0.00  0.00    +0.002 C 
ATOM     31  C   UNL     1       4.216   6.087   5.374  0.00  0.00    +0.000 C 
ATOM     32  C   UNL     1       4.309   7.441   4.668  0.00  0.00    +0.000 C 
ATOM     33  C   UNL     1       4.381   7.224   3.155  0.00  0.00    +0.000 C 
ATOM     34  C   UNL     1       3.124   6.490   2.685  0.00  0.00    +0.002 C 
ENDBRANCH  28  29
ENDBRANCH  14  28
TORSDOF 5
