REMARK  Name = ZINC46578706
REMARK  8 active torsions:
REMARK  status: ('A' for Active; 'I' for Inactive)
REMARK    1  A    between atoms: C_1  and  C_2
REMARK    2  A    between atoms: C_2  and  C_3
REMARK    3  A    between atoms: C_3  and  C_5
REMARK    4  A    between atoms: C_3  and  N_19
REMARK    5  A    between atoms: C_5  and  N_6
REMARK    6  A    between atoms: C_7  and  C_9
REMARK    7  A    between atoms: C_12  and  S_15
REMARK    8  A    between atoms: S_15  and  N_18
REMARK                            x       y       z     vdW  Elec       q    Type
REMARK                         _______ _______ _______ _____ _____    ______ ____
ROOT
ATOM      1  N   UNL     1       1.234  -2.587  -2.480  0.00  0.00    -0.313 N 
ATOM      2  C   UNL     1       1.278  -3.920  -2.675  0.00  0.00    +0.244 C 
ATOM      3  O   UNL     1       0.834  -4.673  -1.831  0.00  0.00    -0.270 OA
ATOM      4  H   UNL     1       1.588  -1.986  -3.154  0.00  0.00    +0.149 HD
ENDROOT
BRANCH   2   5
ATOM      5  C   UNL     1       1.867  -4.466  -3.916  0.00  0.00    +0.037 A 
ATOM      6  C   UNL     1       2.383  -3.605  -4.886  0.00  0.00    +0.015 A 
ATOM      7  C   UNL     1       2.931  -4.121  -6.041  0.00  0.00    +0.029 A 
ATOM      8  C   UNL     1       2.970  -5.489  -6.241  0.00  0.00    +0.105 A 
ATOM      9  C   UNL     1       2.460  -6.349  -5.285  0.00  0.00    +0.029 A 
ATOM     10  C   UNL     1       1.914  -5.846  -4.122  0.00  0.00    +0.015 A 
BRANCH   8  11
ATOM     11  S   UNL     1       3.672  -6.140  -7.721  0.00  0.00    +0.056 S 
ATOM     12  O   UNL     1       3.096  -7.425  -7.912  0.00  0.00    -0.153 OA
ATOM     13  O   UNL     1       3.585  -5.112  -8.698  0.00  0.00    -0.153 OA
BRANCH  11  14
ATOM     14  N   UNL     1       5.284  -6.383  -7.432  0.00  0.00    -0.204 NA
ATOM     15  H   UNL     1       5.758  -7.092  -7.894  0.00  0.00    +0.144 HD
ATOM     16  H   UNL     1       5.755  -5.816  -6.801  0.00  0.00    +0.144 HD
ENDBRANCH  11  14
ENDBRANCH   8  11
ENDBRANCH   2   5
BRANCH   1  17
ATOM     17  C   UNL     1       0.650  -2.046  -1.250  0.00  0.00    +0.089 C 
BRANCH  17  18
ATOM     18  C   UNL     1       0.587  -0.520  -1.344  0.00  0.00    -0.051 C 
BRANCH  18  19
ATOM     19  N   UNL     1      -0.495  -0.131  -2.258  0.00  0.00    +0.385 N 
ATOM     20  C   UNL     1      -1.748  -0.781  -1.844  0.00  0.00    -0.073 C 
ATOM     21  C   UNL     1      -2.907  -0.134  -2.603  0.00  0.00    +0.017 C 
ATOM     22  C   UNL     1      -2.601  -0.113  -4.079  0.00  0.00    -0.048 A 
ATOM     23  C   UNL     1      -3.640   0.106  -4.970  0.00  0.00    +0.004 A 
ATOM     24  C   UNL     1      -3.398   0.135  -6.329  0.00  0.00    +0.000 A 
ATOM     25  C   UNL     1      -2.113  -0.055  -6.803  0.00  0.00    +0.000 A 
ATOM     26  C   UNL     1      -1.078  -0.275  -5.916  0.00  0.00    +0.002 A 
ATOM     27  C   UNL     1      -1.320  -0.306  -4.551  0.00  0.00    -0.061 A 
ATOM     28  C   UNL     1      -0.163  -0.557  -3.620  0.00  0.00    -0.042 C 
ATOM     29  H   UNL     1      -0.610   0.872  -2.237  0.00  0.00    -0.081 HD
ENDBRANCH  18  19
BRANCH  18  31
ATOM     30  C   UNL     1       0.331   1.593  -0.036  0.00  0.00    +0.002 C 
ATOM     31  C   UNL     1       0.318   0.065   0.044  0.00  0.00    -0.017 C 
ENDBRANCH  18  31
ENDBRANCH  17  18
ENDBRANCH   1  17
TORSDOF 7
