REMARK  Name = ZINC00861495
REMARK  9 active torsions:
REMARK  status: ('A' for Active; 'I' for Inactive)
REMARK    1  A    between atoms: C_1  and  C_2
REMARK    2  A    between atoms: C_3  and  C_30
REMARK    3  A    between atoms: C_4  and  C_23
REMARK    4  A    between atoms: C_10  and  C_15
REMARK    5  A    between atoms: C_18  and  O_21
REMARK    6  A    between atoms: O_21  and  C_22
REMARK    7  A    between atoms: C_27  and  O_29
REMARK    8  A    between atoms: C_30  and  O_32
REMARK    9  A    between atoms: O_32  and  C_33
REMARK                            x       y       z     vdW  Elec       q    Type
REMARK                         _______ _______ _______ _____ _____    ______ ____
ROOT
ATOM      1  C   UNL     1      -0.018   1.503   0.010  0.00  0.00    +0.061 C 
ATOM      2  C   UNL     1       0.002  -0.004   0.002  0.00  0.00    +0.016 C 
ATOM      3  C   UNL     1      -1.155  -0.688   0.004  0.00  0.00    +0.065 C 
ATOM      4  C   UNL     1      -1.174  -2.188  -0.014  0.00  0.00    +0.092 C 
ATOM      5  C   UNL     1       0.164  -2.751   0.395  0.00  0.00    +0.024 C 
ATOM      6  C   UNL     1       1.271  -1.978   0.381  0.00  0.00    +0.016 C 
ATOM      7  N   UNL     1       1.198  -0.667  -0.013  0.00  0.00    -0.321 N 
ATOM      8  C   UNL     1       2.612  -2.532   0.794  0.00  0.00    +0.059 C 
ATOM      9  C   UNL     1       2.675  -4.025   0.462  0.00  0.00    +0.032 C 
ATOM     10  C   UNL     1       1.529  -4.734   1.190  0.00  0.00    +0.088 C 
ATOM     11  C   UNL     1       0.226  -4.099   0.788  0.00  0.00    +0.162 C 
ATOM     12  O   UNL     1      -0.791  -4.764   0.802  0.00  0.00    -0.292 OA
ATOM     13  H   UNL     1       2.000  -0.204  -0.301  0.00  0.00    +0.152 HD
ENDROOT
BRANCH   9  14
ATOM     14  C   UNL     1       3.997  -4.589   0.917  0.00  0.00    -0.043 A 
ATOM     15  C   UNL     1       4.346  -4.536   2.253  0.00  0.00    +0.007 A 
ATOM     16  C   UNL     1       5.557  -5.052   2.673  0.00  0.00    +0.046 A 
ATOM     17  C   UNL     1       6.422  -5.624   1.752  0.00  0.00    +0.120 A 
ATOM     18  C   UNL     1       6.069  -5.677   0.411  0.00  0.00    +0.046 A 
ATOM     19  C   UNL     1       4.855  -5.164  -0.002  0.00  0.00    +0.007 A 
BRANCH  17  20
ATOM     20  O   UNL     1       7.614  -6.132   2.162  0.00  0.00    -0.495 OA
ATOM     21  C   UNL     1       8.454  -6.706   1.159  0.00  0.00    +0.277 C 
ENDBRANCH  17  20
ENDBRANCH   9  14
BRANCH   4  22
ATOM     22  C   UNL     1      -1.505  -2.662  -1.405  0.00  0.00    -0.032 A 
ATOM     23  C   UNL     1      -0.682  -2.326  -2.464  0.00  0.00    +0.005 A 
ATOM     24  C   UNL     1      -0.983  -2.760  -3.742  0.00  0.00    +0.004 A 
ATOM     25  C   UNL     1      -2.108  -3.530  -3.964  0.00  0.00    +0.045 A 
ATOM     26  C   UNL     1      -2.935  -3.869  -2.903  0.00  0.00    +0.117 A 
ATOM     27  C   UNL     1      -2.628  -3.438  -1.621  0.00  0.00    +0.050 A 
BRANCH  26  28
ATOM     28  O   UNL     1      -4.043  -4.627  -3.119  0.00  0.00    -0.507 OA
ATOM     29  H   UNL     1      -3.888  -5.579  -3.045  0.00  0.00    +0.292 HD
ENDBRANCH  26  28
ENDBRANCH   4  22
BRANCH   3  30
ATOM     30  C   UNL     1      -2.379   0.021   0.023  0.00  0.00    +0.338 C 
ATOM     31  O   UNL     1      -2.378   1.238   0.038  0.00  0.00    -0.245 OA
BRANCH  30  32
ATOM     32  O   UNL     1      -3.549  -0.652   0.025  0.00  0.00    -0.458 OA
BRANCH  32  33
ATOM     33  C   UNL     1      -4.746   0.127   0.045  0.00  0.00    +0.177 C 
ATOM     34  C   UNL     1      -5.216   0.338   1.499  0.00  0.00    +0.044 C 
ATOM     35  C   UNL     1      -6.761   0.268   1.414  0.00  0.00    +0.004 C 
ATOM     36  C   UNL     1      -6.995  -0.846   0.363  0.00  0.00    +0.004 C 
ATOM     37  C   UNL     1      -5.878  -0.625  -0.677  0.00  0.00    +0.044 C 
ENDBRANCH  32  33
ENDBRANCH  30  32
ENDBRANCH   3  30
TORSDOF 7
