REMARK  Name = ZINC04468419
REMARK  4 active torsions:
REMARK  status: ('A' for Active; 'I' for Inactive)
REMARK    1  A    between atoms: C_1  and  C_2
REMARK    2  A    between atoms: C_2  and  C_20
REMARK    3  A    between atoms: N_5  and  C_9
REMARK    4  A    between atoms: C_9  and  C_10
REMARK                            x       y       z     vdW  Elec       q    Type
REMARK                         _______ _______ _______ _____ _____    ______ ____
ROOT
ATOM      1  C   UNL     1      -1.780   2.363  -1.423  0.00  0.00    +0.047 C 
ATOM      2  C   UNL     1      -1.294   2.140   0.010  0.00  0.00    +0.135 C 
ATOM      3  C   UNL     1      -1.165   3.461   0.742  0.00  0.00    +0.251 C 
ATOM      4  O   UNL     1      -0.442   4.390   0.454  0.00  0.00    -0.272 OA
ATOM      5  N   UNL     1      -2.021   3.387   1.780  0.00  0.00    -0.220 N 
ATOM      6  C   UNL     1      -2.666   2.216   1.806  0.00  0.00    +0.310 C 
ATOM      7  O   UNL     1      -3.488   1.915   2.649  0.00  0.00    -0.252 OA
ATOM      8  N   UNL     1      -2.302   1.406   0.795  0.00  0.00    -0.281 N 
ATOM      9  H   UNL     1      -2.638   0.514   0.617  0.00  0.00    +0.152 HD
ENDROOT
BRANCH   2  10
ATOM     10  C   UNL     1       0.020   1.402   0.013  0.00  0.00    -0.015 A 
ATOM     11  C   UNL     1       1.209   2.107   0.032  0.00  0.00    +0.007 A 
ATOM     12  C   UNL     1       2.414   1.431   0.029  0.00  0.00    +0.020 A 
ATOM     13  C   UNL     1       2.431   0.048   0.007  0.00  0.00    +0.041 A 
ATOM     14  C   UNL     1       1.241  -0.658  -0.011  0.00  0.00    +0.020 A 
ATOM     15  C   UNL     1       0.037   0.019  -0.008  0.00  0.00    +0.007 A 
ATOM     16 CL   UNL     1       3.945  -0.802   0.003  0.00  0.00    -0.084 Cl
ENDBRANCH   2  10
BRANCH   5  17
ATOM     17  C   UNL     1      -2.220   4.458   2.760  0.00  0.00    +0.153 C 
BRANCH  17  18
ATOM     18  C   UNL     1      -3.240   5.435   2.236  0.00  0.00    -0.022 A 
ATOM     19  C   UNL     1      -3.901   5.177   1.075  0.00  0.00    +0.006 A 
ATOM     20  C   UNL     1      -4.849   6.068   0.575  0.00  0.00    +0.001 A 
ATOM     21  C   UNL     1      -5.141   7.223   1.234  0.00  0.00    +0.008 A 
ATOM     22  C   UNL     1      -4.479   7.524   2.436  0.00  0.00    -0.018 A 
ATOM     23  C   UNL     1      -3.519   6.615   2.947  0.00  0.00    -0.013 A 
ATOM     24  C   UNL     1      -2.861   6.913   4.153  0.00  0.00    +0.009 A 
ATOM     25  C   UNL     1      -3.157   8.065   4.814  0.00  0.00    +0.001 A 
ATOM     26  C   UNL     1      -4.104   8.957   4.314  0.00  0.00    +0.001 A 
ATOM     27  C   UNL     1      -4.753   8.706   3.145  0.00  0.00    +0.008 A 
ENDBRANCH  17  18
ENDBRANCH   5  17
TORSDOF 3
