REMARK  Name = ZINC01061708
REMARK  4 active torsions:
REMARK  status: ('A' for Active; 'I' for Inactive)
REMARK    1  A    between atoms: C_4  and  C_7
REMARK    2  A    between atoms: C_7  and  O_29
REMARK    3  A    between atoms: N_16  and  C_17
REMARK    4  A    between atoms: C_20  and  N_23
REMARK                            x       y       z     vdW  Elec       q    Type
REMARK                         _______ _______ _______ _____ _____    ______ ____
ROOT
ATOM      1  C   UNL     1      -2.356   4.143   0.046  0.00  0.00    +0.193 C 
ATOM      2  C   UNL     1      -1.242   3.125   0.031  0.00  0.00    +0.019 A 
ATOM      3  C   UNL     1      -1.222   1.750   0.017  0.00  0.00    +0.009 A 
ATOM      4  C   UNL     1      -0.013   1.076   0.008  0.00  0.00    +0.000 A 
ATOM      5  C   UNL     1       1.177   1.782   0.000  0.00  0.00    +0.001 A 
ATOM      6  C   UNL     1       1.169   3.161   0.008  0.00  0.00    +0.013 A 
ATOM      7  C   UNL     1      -0.047   3.848   0.023  0.00  0.00    +0.045 A 
ATOM      8  C   UNL     1      -0.376   5.286   0.034  0.00  0.00    +0.254 C 
ATOM      9  O   UNL     1       0.442   6.186   0.030  0.00  0.00    -0.270 OA
ATOM     10  N   UNL     1      -1.708   5.460   0.047  0.00  0.00    -0.231 N 
ENDROOT
BRANCH   1  14
ATOM     11  C   UNL     1      -4.795   3.703  -3.433  0.00  0.00    +0.000 A 
ATOM     12  C   UNL     1      -5.116   3.023  -2.273  0.00  0.00    +0.000 A 
ATOM     13  C   UNL     1      -4.327   3.165  -1.147  0.00  0.00    +0.008 A 
ATOM     14  C   UNL     1      -3.216   3.987  -1.181  0.00  0.00    +0.007 A 
ATOM     15  C   UNL     1      -2.897   4.672  -2.339  0.00  0.00    +0.008 A 
ATOM     16  C   UNL     1      -3.684   4.526  -3.467  0.00  0.00    +0.000 A 
ENDBRANCH   1  14
BRANCH  10  17
ATOM     17  C   UNL     1      -2.371   6.694   0.060  0.00  0.00    +0.040 A 
ATOM     18  C   UNL     1      -3.759   6.737   0.068  0.00  0.00    +0.025 A 
ATOM     19  C   UNL     1      -4.411   7.954   0.086  0.00  0.00    +0.025 A 
ATOM     20  C   UNL     1      -3.680   9.134   0.085  0.00  0.00    +0.030 A 
ATOM     21  C   UNL     1      -2.292   9.091   0.072  0.00  0.00    +0.025 A 
ATOM     22  C   UNL     1      -1.639   7.874   0.059  0.00  0.00    +0.025 A 
BRANCH  20  23
ATOM     23  N   UNL     1      -4.341  10.367   0.098  0.00  0.00    -0.326 N 
ATOM     24  C   UNL     1      -3.909  11.185   1.240  0.00  0.00    +0.133 C 
ATOM     25  C   UNL     1      -4.611  12.545   1.181  0.00  0.00    +0.178 C 
ATOM     26  O   UNL     1      -6.027  12.344   1.163  0.00  0.00    -0.377 OA
ATOM     27  C   UNL     1      -6.482  11.552   0.063  0.00  0.00    +0.178 C 
ATOM     28  C   UNL     1      -5.799  10.182   0.111  0.00  0.00    +0.133 C 
ENDBRANCH  20  23
ENDBRANCH  10  17
BRANCH   1  29
ATOM     29  O   UNL     1      -3.149   3.985   1.224  0.00  0.00    -0.364 OA
ATOM     30  H   UNL     1      -3.581   3.123   1.295  0.00  0.00    +0.213 HD
ENDBRANCH   1  29
TORSDOF 4
