REMARK  Name = ZINC08273448
REMARK  10 active torsions:
REMARK  status: ('A' for Active; 'I' for Inactive)
REMARK    1  A    between atoms: C_1  and  C_2
REMARK    2  A    between atoms: C_2  and  C_3
REMARK    3  A    between atoms: C_6  and  C_9
REMARK    4  A    between atoms: C_9  and  C_11
REMARK    5  A    between atoms: C_9  and  N_14
REMARK    6  A    between atoms: C_11  and  C_12
REMARK    7  A    between atoms: C_11  and  C_13
REMARK    8  A    between atoms: C_15  and  C_17
REMARK    9  A    between atoms: C_17  and  N_18
REMARK   10  A    between atoms: C_24  and  C_27
REMARK                            x       y       z     vdW  Elec       q    Type
REMARK                         _______ _______ _______ _____ _____    ______ ____
ROOT
ATOM      1  N   UNL     1      -6.194  -1.340  -1.008  0.00  0.00    -0.307 N 
ATOM      2  C   UNL     1      -7.533  -1.239  -0.896  0.00  0.00    +0.231 C 
ATOM      3  O   UNL     1      -8.097  -1.698   0.074  0.00  0.00    -0.274 OA
ATOM      4  H   UNL     1      -5.742  -0.972  -1.784  0.00  0.00    +0.149 HD
ENDROOT
BRANCH   1   5
ATOM      5  C   UNL     1      -5.419  -2.005   0.043  0.00  0.00    +0.106 C 
BRANCH   5   9
ATOM      6  C   UNL     1      -1.412  -0.526   0.013  0.00  0.00    -0.048 A 
ATOM      7  C   UNL     1      -2.051  -0.766   1.215  0.00  0.00    +0.004 A 
ATOM      8  C   UNL     1      -3.348  -1.244   1.225  0.00  0.00    +0.006 A 
ATOM      9  C   UNL     1      -4.006  -1.482   0.032  0.00  0.00    -0.027 A 
ATOM     10  C   UNL     1      -3.367  -1.241  -1.170  0.00  0.00    +0.006 A 
ATOM     11  C   UNL     1      -2.072  -0.758  -1.179  0.00  0.00    +0.004 A 
BRANCH   6  13
ATOM     12  C   UNL     1      -0.019   1.526   0.010  0.00  0.00    +0.009 C 
ATOM     13  C   UNL     1       0.002  -0.004   0.002  0.00  0.00    +0.032 C 
ENDBRANCH   6  13
ENDBRANCH   5   9
BRANCH   5  14
ATOM     14  C   UNL     1      -5.407  -3.514  -0.210  0.00  0.00    +0.008 C 
ATOM     15  C   UNL     1      -4.598  -4.208   0.887  0.00  0.00    +0.009 C 
ATOM     16  C   UNL     1      -6.842  -4.044  -0.199  0.00  0.00    +0.009 C 
ENDBRANCH   5  14
ENDBRANCH   1   5
BRANCH   2  17
ATOM     17  C   UNL     1      -8.330  -0.554  -1.977  0.00  0.00    +0.213 C 
BRANCH  17  18
ATOM     18  N   UNL     1      -9.751  -0.575  -1.623  0.00  0.00    -0.215 N 
ATOM     19  C   UNL     1     -10.603  -1.563  -1.966  0.00  0.00    +0.247 C 
ATOM     20  O   UNL     1     -10.349  -2.564  -2.601  0.00  0.00    -0.273 OA
ATOM     21  C   UNL     1     -11.942  -1.159  -1.391  0.00  0.00    +0.113 C 
ATOM     22  C   UNL     1     -12.419  -2.193  -0.378  0.00  0.00    +0.035 C 
ATOM     23  C   UNL     1     -13.760  -1.750   0.214  0.00  0.00    +0.006 C 
ATOM     24  C   UNL     1     -14.787  -1.601  -0.910  0.00  0.00    -0.014 C 
ATOM     25  C   UNL     1     -14.306  -0.544  -1.906  0.00  0.00    +0.006 C 
ATOM     26  C   UNL     1     -12.967  -0.982  -2.506  0.00  0.00    +0.035 C 
ATOM     27  C   UNL     1     -16.131  -1.170  -0.319  0.00  0.00    +0.007 C 
ATOM     28  N   UNL     1     -11.673   0.124  -0.730  0.00  0.00    -0.285 N 
ATOM     29  C   UNL     1     -10.364   0.381  -0.915  0.00  0.00    +0.310 C 
ATOM     30  O   UNL     1      -9.803   1.372  -0.489  0.00  0.00    -0.252 OA
ATOM     31  H   UNL     1     -12.312   0.676  -0.252  0.00  0.00    +0.151 HD
ENDBRANCH  17  18
ENDBRANCH   2  17
TORSDOF 6
