REMARK  Name = ZINC03376053
REMARK  14 active torsions:
REMARK  status: ('A' for Active; 'I' for Inactive)
REMARK    1  A    between atoms: C_1  and  C_2
REMARK    2  A    between atoms: C_3  and  C_30
REMARK    3  A    between atoms: C_4  and  C_29
REMARK    4  A    between atoms: C_7  and  C_8
REMARK    5  A    between atoms: C_8  and  C_10
REMARK    6  A    between atoms: C_10  and  S_11
REMARK    7  A    between atoms: S_11  and  C_12
REMARK    8  A    between atoms: C_15  and  C_24
REMARK    9  A    between atoms: N_16  and  C_17
REMARK   10  A    between atoms: C_24  and  C_26
REMARK   11  A    between atoms: C_24  and  N_57
REMARK   12  A    between atoms: C_27  and  N_57
REMARK   13  A    between atoms: C_28  and  N_57
REMARK   14  A    between atoms: C_30  and  C_32
REMARK                            x       y       z     vdW  Elec       q    Type
REMARK                         _______ _______ _______ _____ _____    ______ ____
ROOT
ATOM      1  C   UNL     1      -1.218  -1.192   2.704  0.00  0.00    +0.196 A 
ATOM      2  N   UNL     1      -0.816   0.024   2.414  0.00  0.00    -0.122 NA
ATOM      3  N   UNL     1       0.416   0.169   2.749  0.00  0.00    -0.135 NA
ATOM      4  C   UNL     1       0.873  -0.935   3.268  0.00  0.00    +0.125 A 
ATOM      5  N   UNL     1      -0.151  -1.844   3.259  0.00  0.00    -0.275 N 
ENDROOT
BRANCH   5   6
ATOM      6  C   UNL     1      -0.115  -3.168   3.721  0.00  0.00    +0.050 A 
ATOM      7  C   UNL     1       0.089  -3.428   5.070  0.00  0.00    +0.028 A 
ATOM      8  C   UNL     1       0.118  -4.732   5.524  0.00  0.00    +0.022 A 
ATOM      9  C   UNL     1      -0.042  -5.779   4.634  0.00  0.00    +0.041 A 
ATOM     10  C   UNL     1      -0.239  -5.523   3.288  0.00  0.00    +0.022 A 
ATOM     11  C   UNL     1      -0.275  -4.220   2.831  0.00  0.00    +0.028 A 
ATOM     12 CL   UNL     1       0.004  -7.418   5.207  0.00  0.00    -0.084 Cl
ENDBRANCH   5   6
BRANCH   4  13
ATOM     13  C   UNL     1       2.270  -1.169   3.783  0.00  0.00    -0.003 C 
ATOM     14  C   UNL     1       2.441  -0.467   5.131  0.00  0.00    -0.005 C 
BRANCH  13  17
ATOM     15  C   UNL     1       4.618  -0.840   3.292  0.00  0.00    -0.096 C 
ATOM     16  C   UNL     1       3.046  -1.214   1.489  0.00  0.00    -0.096 C 
ATOM     17  N   UNL     1       3.238  -0.601   2.821  0.00  0.00    +0.382 N 
ATOM     18  H   UNL     1       3.081   0.411   2.748  0.00  0.00    -0.082 HD
ENDBRANCH  13  17
ENDBRANCH   4  13
BRANCH   1  19
ATOM     19  S   UNL     1      -2.826  -1.857   2.429  0.00  0.00    -0.078 S 
BRANCH  19  20
ATOM     20  C   UNL     1      -3.639  -0.421   1.687  0.00  0.00    +0.158 C 
BRANCH  20  21
ATOM     21  C   UNL     1      -5.068  -0.766   1.358  0.00  0.00    +0.190 C 
ATOM     22  O   UNL     1      -5.497  -1.875   1.603  0.00  0.00    -0.290 OA
BRANCH  21  29
ATOM     23  C   UNL     1      -8.039  -1.240   0.580  0.00  0.00    +0.047 C 
ATOM     24  C   UNL     1      -7.231   0.020   0.410  0.00  0.00    -0.012 A 
ATOM     25  C   UNL     1      -7.680   1.242  -0.141  0.00  0.00    +0.041 A 
ATOM     26  C   UNL     1      -6.608   2.123  -0.107  0.00  0.00    +0.024 A 
ATOM     27  N   UNL     1      -5.556   1.496   0.435  0.00  0.00    -0.355 N 
ATOM     28  H   UNL     1      -4.679   1.889   0.574  0.00  0.00    +0.166 HD
ATOM     29  C   UNL     1      -5.912   0.204   0.765  0.00  0.00    +0.087 A 
ATOM     30  C   UNL     1      -6.626   3.547  -0.599  0.00  0.00    +0.064 C 
BRANCH  25  31
ATOM     31  C   UNL     1      -9.023   1.523  -0.657  0.00  0.00    +0.162 C 
ATOM     32  O   UNL     1      -9.262   1.380  -1.837  0.00  0.00    -0.292 OA
ATOM     33  C   UNL     1     -10.107   1.990   0.280  0.00  0.00    +0.091 C 
ENDBRANCH  25  31
ENDBRANCH  21  29
ENDBRANCH  20  21
ENDBRANCH  19  20
ENDBRANCH   1  19
TORSDOF 8
