REMARK  Name = ZINC09754668
REMARK  8 active torsions:
REMARK  status: ('A' for Active; 'I' for Inactive)
REMARK    1  A    between atoms: C_1  and  C_2
REMARK    2  A    between atoms: C_6  and  C_13
REMARK    3  A    between atoms: C_13  and  C_15
REMARK    4  A    between atoms: C_15  and  S_16
REMARK    5  A    between atoms: S_16  and  C_17
REMARK    6  A    between atoms: C_20  and  C_29
REMARK    7  A    between atoms: N_21  and  C_22
REMARK    8  A    between atoms: C_22  and  C_23
REMARK                            x       y       z     vdW  Elec       q    Type
REMARK                         _______ _______ _______ _____ _____    ______ ____
ROOT
ATOM      1  C   UNL     1      -9.148  -2.416  -1.757  0.00  0.00    +0.192 A 
ATOM      2  N   UNL     1      -9.300  -3.183  -0.701  0.00  0.00    -0.122 NA
ATOM      3  N   UNL     1     -10.545  -3.450  -0.525  0.00  0.00    -0.128 NA
ATOM      4  C   UNL     1     -11.264  -2.869  -1.458  0.00  0.00    +0.165 A 
ATOM      5  N   UNL     1     -10.391  -2.185  -2.273  0.00  0.00    -0.300 N 
ENDROOT
BRANCH   4   6
ATOM      6  C   UNL     1     -12.733  -2.934  -1.603  0.00  0.00    +0.019 A 
ATOM      7  C   UNL     1     -13.334  -2.586  -2.814  0.00  0.00    +0.013 A 
ATOM      8  C   UNL     1     -14.706  -2.649  -2.943  0.00  0.00    +0.021 A 
ATOM      9  C   UNL     1     -15.487  -3.056  -1.874  0.00  0.00    +0.041 A 
ATOM     10  C   UNL     1     -14.896  -3.402  -0.670  0.00  0.00    +0.021 A 
ATOM     11  C   UNL     1     -13.525  -3.350  -0.531  0.00  0.00    +0.013 A 
ATOM     12 CL   UNL     1     -17.213  -3.133  -2.044  0.00  0.00    -0.084 Cl
ENDBRANCH   4   6
BRANCH   1  13
ATOM     13  S   UNL     1      -7.624  -1.794  -2.386  0.00  0.00    -0.078 S 
BRANCH  13  14
ATOM     14  C   UNL     1      -6.375  -2.466  -1.254  0.00  0.00    +0.157 C 
BRANCH  14  15
ATOM     15  C   UNL     1      -5.007  -2.004  -1.684  0.00  0.00    +0.173 C 
ATOM     16  O   UNL     1      -4.886  -1.292  -2.659  0.00  0.00    -0.291 OA
BRANCH  15  21
ATOM     17  C   UNL     1       0.316  -0.609  -0.629  0.00  0.00    +0.022 C 
ATOM     18  C   UNL     1       0.034  -2.108  -0.751  0.00  0.00    +0.104 C 
ATOM     19  C   UNL     1      -1.445  -2.383  -0.600  0.00  0.00    -0.014 A 
ATOM     20  C   UNL     1      -2.544  -1.990  -1.319  0.00  0.00    +0.017 A 
ATOM     21  C   UNL     1      -3.820  -2.417  -0.924  0.00  0.00    +0.019 A 
ATOM     22  C   UNL     1      -3.953  -3.239   0.202  0.00  0.00    +0.013 A 
ATOM     23  C   UNL     1      -2.852  -3.622   0.909  0.00  0.00    +0.024 A 
ATOM     24  C   UNL     1      -1.578  -3.201   0.520  0.00  0.00    +0.037 A 
ATOM     25  N   UNL     1      -0.331  -3.459   1.076  0.00  0.00    -0.285 N 
ATOM     26  C   UNL     1       0.668  -2.863   0.398  0.00  0.00    +0.224 C 
ATOM     27  O   UNL     1       1.852  -2.918   0.657  0.00  0.00    -0.275 OA
ATOM     28  H   UNL     1      -0.194  -4.008   1.864  0.00  0.00    +0.155 HD
ENDBRANCH  15  21
ENDBRANCH  14  15
ENDBRANCH  13  14
ENDBRANCH   1  13
BRANCH   5  29
ATOM     29  C   UNL     1     -10.726  -1.379  -3.449  0.00  0.00    +0.157 C 
BRANCH  29  30
ATOM     30  C   UNL     1     -10.548  -2.223  -4.713  0.00  0.00    +0.138 C 
ATOM     31  C   UNL     1     -10.890  -1.378  -5.959  0.00  0.00    +0.035 C 
ATOM     32  C   UNL     1     -11.637  -2.402  -6.857  0.00  0.00    +0.031 C 
ATOM     33  C   UNL     1     -12.365  -3.254  -5.787  0.00  0.00    +0.160 C 
ATOM     34  O   UNL     1     -11.447  -3.338  -4.684  0.00  0.00    -0.375 OA
ENDBRANCH  29  30
ENDBRANCH   5  29
TORSDOF 7
