REMARK  Name = ZINC63829933
REMARK  6 active torsions:
REMARK  status: ('A' for Active; 'I' for Inactive)
REMARK    1  A    between atoms: C_7  and  C_10
REMARK    2  A    between atoms: C_10  and  C_12
REMARK    3  A    between atoms: C_10  and  C_28
REMARK    4  A    between atoms: C_12  and  N_13
REMARK    5  A    between atoms: N_13  and  S_14
REMARK    6  A    between atoms: S_14  and  C_17
REMARK                            x       y       z     vdW  Elec       q    Type
REMARK                         _______ _______ _______ _____ _____    ______ ____
ROOT
ATOM      1  C   UNL     1       0.849  -4.016   1.297  0.00  0.00    +0.115 C 
ENDROOT
BRANCH   1   2
ATOM      2  N   UNL     1      -0.318  -4.879   1.496  0.00  0.00    -0.189 NA
ATOM      3  H   UNL     1      -1.104  -4.767   0.939  0.00  0.00    +0.148 HD
BRANCH   2   4
ATOM      4  S   UNL     1      -0.295  -6.046   2.671  0.00  0.00    +0.059 S 
ATOM      5  O   UNL     1      -1.562  -6.686   2.632  0.00  0.00    -0.153 OA
ATOM      6  O   UNL     1       0.924  -6.758   2.512  0.00  0.00    -0.153 OA
BRANCH   4   7
ATOM      7  C   UNL     1      -0.196  -5.219   4.223  0.00  0.00    +0.109 A 
ATOM      8  C   UNL     1       1.040  -4.925   4.770  0.00  0.00    +0.032 A 
ATOM      9  C   UNL     1       1.125  -4.276   5.989  0.00  0.00    +0.051 A 
ATOM     10  C   UNL     1      -0.032  -3.920   6.660  0.00  0.00    +0.162 A 
ATOM     11  C   UNL     1      -1.272  -4.215   6.111  0.00  0.00    +0.164 A 
ATOM     12  C   UNL     1      -1.354  -4.861   4.889  0.00  0.00    +0.078 A 
ATOM     13  O   UNL     1      -2.407  -3.859   6.780  0.00  0.00    -0.488 OA
ATOM     14  C   UNL     1      -2.662  -4.563   7.997  0.00  0.00    +0.232 C 
ATOM     15  C   UNL     1      -1.912  -3.924   9.156  0.00  0.00    +0.082 C 
ATOM     16  C   UNL     1      -0.404  -4.026   8.996  0.00  0.00    +0.232 C 
ATOM     17  O   UNL     1       0.038  -3.278   7.862  0.00  0.00    -0.488 OA
ENDBRANCH   4   7
ENDBRANCH   2   4
ENDBRANCH   1   2
BRANCH   1  18
ATOM     18  C   UNL     1       0.744  -3.320  -0.061  0.00  0.00    +0.046 C 
BRANCH  18  25
ATOM     19  C   UNL     1       0.730   1.225  -0.693  0.00  0.00    +0.001 A 
ATOM     20  C   UNL     1       2.012   1.786  -0.763  0.00  0.00    +0.002 A 
ATOM     21  C   UNL     1       3.138   1.050  -0.653  0.00  0.00    +0.026 A 
ATOM     22  C   UNL     1       3.060  -0.357  -0.458  0.00  0.00    +0.043 A 
ATOM     23  N   UNL     1       3.989  -1.272  -0.325  0.00  0.00    -0.380 N 
ATOM     24  C   UNL     1       3.339  -2.576  -0.148  0.00  0.00    +0.145 C 
ATOM     25  C   UNL     1       1.852  -2.307  -0.194  0.00  0.00    -0.036 C 
ATOM     26  C   UNL     1       1.717  -0.974  -0.380  0.00  0.00    -0.001 A 
ATOM     27  C   UNL     1       0.544  -0.102  -0.509  0.00  0.00    +0.010 A 
ATOM     28  H   UNL     1       4.946  -1.114  -0.341  0.00  0.00    +0.160 HD
ENDBRANCH  18  25
BRANCH  18  29
ATOM     29  C   UNL     1       0.866  -4.359  -1.178  0.00  0.00    +0.063 C 
ATOM     30  C   UNL     1       0.662  -3.718  -2.576  0.00  0.00    +0.042 C 
ATOM     31  C   UNL     1      -0.115  -4.631  -3.469  0.00  0.00    -0.019 C 
ATOM     32  C   UNL     1      -0.822  -5.614  -2.947  0.00  0.00    +0.036 C 
ATOM     33  S   UNL     1      -0.568  -5.517  -1.183  0.00  0.00    -0.129 S 
ENDBRANCH  18  29
ENDBRANCH   1  18
TORSDOF 6
