REMARK  Name = ZINC64338457
REMARK  4 active torsions:
REMARK  status: ('A' for Active; 'I' for Inactive)
REMARK    1  A    between atoms: C_1  and  N_2
REMARK    2  A    between atoms: C_6  and  S_7
REMARK    3  A    between atoms: S_7  and  C_8
REMARK    4  A    between atoms: C_8  and  C_9
REMARK                            x       y       z     vdW  Elec       q    Type
REMARK                         _______ _______ _______ _____ _____    ______ ____
ROOT
ATOM      1  C   UNL     1       0.072  -1.530   5.192  0.00  0.00    +0.008 A 
ATOM      2  C   UNL     1       1.274  -1.366   5.855  0.00  0.00    +0.008 A 
ATOM      3  C   UNL     1       1.286  -1.081   7.207  0.00  0.00    +0.004 A 
ATOM      4  C   UNL     1       0.097  -0.960   7.902  0.00  0.00    +0.049 A 
ATOM      5  C   UNL     1      -1.112  -1.125   7.243  0.00  0.00    +0.162 A 
ATOM      6  C   UNL     1      -1.124  -1.404   5.881  0.00  0.00    +0.166 A 
ATOM      7  O   UNL     1      -2.300  -1.556   5.213  0.00  0.00    -0.485 OA
ATOM      8  C   UNL     1      -3.467  -1.791   6.008  0.00  0.00    +0.270 C 
ATOM      9  C   UNL     1      -3.466  -0.790   7.171  0.00  0.00    +0.270 C 
ATOM     10  O   UNL     1      -2.274  -1.007   7.941  0.00  0.00    -0.485 OA
ENDROOT
BRANCH   1  11
ATOM     11  C   UNL     1       0.062  -1.841   3.718  0.00  0.00    +0.116 C 
BRANCH  11  12
ATOM     12  S   UNL     1       0.032  -0.293   2.773  0.00  0.00    -0.083 S 
BRANCH  12  18
ATOM     13  C   UNL     1      -0.018   1.461   0.010  0.00  0.00    +0.151 C 
ATOM     14  N   UNL     1       0.002  -0.004   0.002  0.00  0.00    -0.329 N 
ATOM     15  C   UNL     1       0.009  -0.817  -1.109  0.00  0.00    +0.107 A 
ATOM     16  C   UNL     1       0.028  -2.086  -0.667  0.00  0.00    +0.131 A 
ATOM     17  N   UNL     1       0.033  -2.065   0.677  0.00  0.00    -0.230 NA
ATOM     18  C   UNL     1       0.024  -0.820   1.092  0.00  0.00    +0.169 A 
ENDBRANCH  12  18
ENDBRANCH  11  12
ENDBRANCH   1  11
TORSDOF 3
