REMARK  Name = ZINC63426650
REMARK  10 active torsions:
REMARK  status: ('A' for Active; 'I' for Inactive)
REMARK    1  A    between atoms: C_1  and  C_2
REMARK    2  A    between atoms: C_6  and  N_9
REMARK    3  A    between atoms: C_7  and  C_8
REMARK    4  A    between atoms: N_12  and  C_15
REMARK    5  A    between atoms: C_15  and  C_17
REMARK    6  A    between atoms: C_15  and  C_18
REMARK    7  A    between atoms: N_20  and  C_21
REMARK    8  A    between atoms: C_29  and  C_31
REMARK    9  A    between atoms: C_31  and  O_33
REMARK   10  A    between atoms: O_33  and  C_34
REMARK                            x       y       z     vdW  Elec       q    Type
REMARK                         _______ _______ _______ _____ _____    ______ ____
ROOT
ATOM      1  C   UNL     1       1.156  -6.787   5.670  0.00  0.00    +0.234 C 
ATOM      2  O   UNL     1       1.629  -5.760   6.109  0.00  0.00    -0.274 OA
ATOM      3  N   UNL     1       1.601  -7.978   6.117  0.00  0.00    -0.285 N 
ATOM      4  H   UNL     1       1.171  -8.797   5.825  0.00  0.00    +0.155 HD
ENDROOT
BRANCH   3   5
ATOM      5  C   UNL     1       2.655  -8.032   6.979  0.00  0.00    +0.053 C 
ATOM      6  C   UNL     1       3.143  -9.150   7.633  0.00  0.00    +0.019 A 
ATOM      7  C   UNL     1       2.744 -10.508   7.630  0.00  0.00    +0.031 A 
ATOM      8  C   UNL     1       3.421 -11.409   8.385  0.00  0.00    +0.042 A 
ATOM      9  C   UNL     1       4.511 -11.031   9.176  0.00  0.00    +0.022 A 
ATOM     10  C   UNL     1       4.947  -9.750   9.227  0.00  0.00    +0.027 A 
ATOM     11  C   UNL     1       4.292  -8.749   8.464  0.00  0.00    +0.045 A 
ATOM     12  N   UNL     1       4.517  -7.456   8.344  0.00  0.00    -0.367 N 
ATOM     13  C   UNL     1       3.539  -6.884   7.414  0.00  0.00    +0.234 C 
ATOM     14 CL   UNL     1       2.920 -13.072   8.372  0.00  0.00    -0.084 Cl
ATOM     15  H   UNL     1       5.221  -6.963   8.795  0.00  0.00    +0.161 HD
BRANCH  13  16
ATOM     16  C   UNL     1       4.239  -6.287   6.221  0.00  0.00    +0.335 C 
ATOM     17  O   UNL     1       5.307  -6.726   5.865  0.00  0.00    -0.248 OA
BRANCH  16  18
ATOM     18  O   UNL     1       3.677  -5.268   5.552  0.00  0.00    -0.466 OA
ATOM     19  C   UNL     1       4.397  -4.751   4.431  0.00  0.00    +0.280 C 
ENDBRANCH  16  18
ENDBRANCH  13  16
ENDBRANCH   3   5
BRANCH   1  20
ATOM     20  C   UNL     1       0.072  -6.731   4.625  0.00  0.00    +0.140 C 
ATOM     21  C   UNL     1       0.546  -7.447   3.359  0.00  0.00    +0.034 C 
BRANCH  20  25
ATOM     22  N   UNL     1      -0.658  -3.014   2.818  0.00  0.00    -0.327 N 
ATOM     23  C   UNL     1      -1.825  -3.752   3.323  0.00  0.00    +0.120 C 
ATOM     24  C   UNL     1      -1.439  -5.227   3.478  0.00  0.00    +0.104 C 
ATOM     25  N   UNL     1      -0.233  -5.329   4.310  0.00  0.00    -0.289 NA
ATOM     26  C   UNL     1       0.914  -4.673   3.669  0.00  0.00    +0.104 C 
ATOM     27  C   UNL     1       0.626  -3.180   3.518  0.00  0.00    +0.120 C 
BRANCH  22  33
ATOM     28  C   UNL     1      -1.541   1.435   0.926  0.00  0.00    +0.044 C 
ATOM     29  C   UNL     1      -1.190  -0.021   0.754  0.00  0.00    -0.046 A 
ATOM     30  C   UNL     1      -0.972  -0.534  -0.511  0.00  0.00    +0.004 A 
ATOM     31  C   UNL     1      -0.650  -1.869  -0.673  0.00  0.00    +0.002 A 
ATOM     32  C   UNL     1      -0.545  -2.695   0.429  0.00  0.00    +0.023 A 
ATOM     33  C   UNL     1      -0.763  -2.182   1.702  0.00  0.00    +0.033 A 
ATOM     34  C   UNL     1      -1.081  -0.839   1.861  0.00  0.00    -0.027 A 
ATOM     35  C   UNL     1      -1.312  -0.278   3.240  0.00  0.00    +0.046 C 
ENDBRANCH  22  33
ENDBRANCH  20  25
ENDBRANCH   1  20
TORSDOF 6
