REMARK  Name = ZINC63686731
REMARK  9 active torsions:
REMARK  status: ('A' for Active; 'I' for Inactive)
REMARK    1  A    between atoms: C_1  and  C_2
REMARK    2  A    between atoms: C_2  and  C_33
REMARK    3  A    between atoms: C_8  and  O_11
REMARK    4  A    between atoms: O_11  and  C_12
REMARK    5  A    between atoms: C_12  and  C_13
REMARK    6  A    between atoms: C_16  and  C_19
REMARK    7  A    between atoms: N_21  and  C_22
REMARK    8  A    between atoms: C_22  and  C_23
REMARK    9  A    between atoms: C_23  and  C_24
REMARK                            x       y       z     vdW  Elec       q    Type
REMARK                         _______ _______ _______ _____ _____    ______ ____
ROOT
ATOM      1  C   UNL     1       3.855  -0.802   5.228  0.00  0.00    -0.010 A 
ATOM      2  C   UNL     1       3.838   0.422   5.872  0.00  0.00    +0.008 A 
ATOM      3  C   UNL     1       3.518   0.495   7.212  0.00  0.00    +0.013 A 
ATOM      4  C   UNL     1       3.212  -0.669   7.918  0.00  0.00    +0.037 A 
ATOM      5  C   UNL     1       3.232  -1.901   7.262  0.00  0.00    +0.013 A 
ATOM      6  C   UNL     1       3.547  -1.959   5.920  0.00  0.00    +0.008 A 
ENDROOT
BRANCH   4   7
ATOM      7  C   UNL     1       2.870  -0.598   9.354  0.00  0.00    +0.244 C 
ATOM      8  O   UNL     1       2.854   0.476   9.923  0.00  0.00    -0.270 OA
ATOM      9  N   UNL     1       2.575  -1.725  10.033  0.00  0.00    -0.311 N 
ATOM     10  H   UNL     1       2.587  -2.582   9.579  0.00  0.00    +0.149 HD
BRANCH   9  11
ATOM     11  C   UNL     1       2.235  -1.655  11.457  0.00  0.00    +0.109 C 
BRANCH  11  12
ATOM     12  C   UNL     1       1.945  -3.062  11.982  0.00  0.00    +0.052 C 
BRANCH  12  13
ATOM     13  C   UNL     1       1.596  -2.990  13.446  0.00  0.00    -0.040 C 
ATOM     14  C   UNL     1       0.356  -2.930  13.984  0.00  0.00    -0.001 A 
ATOM     15  C   UNL     1      -0.986  -2.915  13.390  0.00  0.00    +0.010 A 
ATOM     16  C   UNL     1      -2.063  -2.848  14.206  0.00  0.00    +0.001 A 
ATOM     17  C   UNL     1      -1.930  -2.793  15.600  0.00  0.00    +0.002 A 
ATOM     18  C   UNL     1      -0.730  -2.803  16.219  0.00  0.00    +0.026 A 
ATOM     19  C   UNL     1       0.470  -2.872  15.459  0.00  0.00    +0.043 A 
ATOM     20  N   UNL     1       1.730  -2.894  15.819  0.00  0.00    -0.380 N 
ATOM     21  C   UNL     1       2.560  -2.976  14.611  0.00  0.00    +0.144 C 
ATOM     22  H   UNL     1       2.060  -2.866  16.730  0.00  0.00    +0.160 HD
ENDBRANCH  12  13
ENDBRANCH  11  12
ENDBRANCH   9  11
ENDBRANCH   4   7
BRANCH   1  23
ATOM     23  C   UNL     1       4.205  -0.874   3.764  0.00  0.00    +0.264 C 
BRANCH  23  24
ATOM     24  O   UNL     1       3.016  -0.742   2.983  0.00  0.00    -0.484 OA
BRANCH  24  32
ATOM     25  C   UNL     1      -0.019   1.526   0.010  0.00  0.00    +0.056 C 
ATOM     26  C   UNL     1       0.002  -0.004   0.002  0.00  0.00    +0.109 C 
ATOM     27  C   UNL     1       0.832  -0.534  -1.191  0.00  0.00    +0.086 C 
ATOM     28  C   UNL     1       2.204  -0.704  -0.568  0.00  0.00    +0.002 A 
ATOM     29  C   UNL     1       3.456  -0.875  -1.120  0.00  0.00    +0.007 A 
ATOM     30  C   UNL     1       4.564  -1.000  -0.301  0.00  0.00    +0.004 A 
ATOM     31  C   UNL     1       4.412  -0.953   1.073  0.00  0.00    +0.049 A 
ATOM     32  C   UNL     1       3.157  -0.786   1.631  0.00  0.00    +0.163 A 
ATOM     33  C   UNL     1       2.034  -0.662   0.808  0.00  0.00    +0.166 A 
ATOM     34  O   UNL     1       0.721  -0.510   1.139  0.00  0.00    -0.482 OA
ATOM     35  C   UNL     1      -1.422  -0.563  -0.032  0.00  0.00    +0.056 C 
ENDBRANCH  24  32
ENDBRANCH  23  24
ENDBRANCH   1  23
TORSDOF 7
