REMARK  Name = ZINC10124958
REMARK  9 active torsions:
REMARK  status: ('A' for Active; 'I' for Inactive)
REMARK    1  A    between atoms: C_1  and  C_2
REMARK    2  A    between atoms: C_2  and  C_3
REMARK    3  A    between atoms: C_2  and  C_4
REMARK    4  A    between atoms: C_2  and  C_5
REMARK    5  A    between atoms: C_8  and  C_11
REMARK    6  A    between atoms: N_13  and  N_14
REMARK    7  A    between atoms: C_15  and  C_17
REMARK    8  A    between atoms: C_17  and  N_18
REMARK    9  A    between atoms: C_19  and  C_21
REMARK                            x       y       z     vdW  Elec       q    Type
REMARK                         _______ _______ _______ _____ _____    ______ ____
ROOT
ATOM      1  N   UNL     1       3.671   1.218  -0.026  0.00  0.00    -0.233 N 
ATOM      2  C   UNL     1       2.406   0.752  -0.017  0.00  0.00    +0.246 C 
ATOM      3  O   UNL     1       2.201  -0.443  -0.021  0.00  0.00    -0.273 OA
ATOM      4  H   UNL     1       3.835   2.174  -0.023  0.00  0.00    +0.173 HD
ENDROOT
BRANCH   1   7
ATOM      5  C   UNL     1       6.012   0.789  -0.051  0.00  0.00    +0.260 C 
ATOM      6  O   UNL     1       6.218   1.987  -0.047  0.00  0.00    -0.269 OA
ATOM      7  N   UNL     1       4.748   0.323  -0.042  0.00  0.00    -0.230 N 
ATOM      8  H   UNL     1       4.583  -0.633  -0.045  0.00  0.00    +0.173 HD
BRANCH   5  12
ATOM      9  C   UNL     1       9.278  -1.927  -0.096  0.00  0.00    -0.042 A 
ATOM     10  C   UNL     1       9.515  -0.564  -0.091  0.00  0.00    +0.005 A 
ATOM     11  C   UNL     1       8.459   0.324  -0.077  0.00  0.00    +0.013 A 
ATOM     12  C   UNL     1       7.149  -0.156  -0.067  0.00  0.00    +0.038 A 
ATOM     13  C   UNL     1       6.916  -1.532  -0.066  0.00  0.00    +0.013 A 
ATOM     14  C   UNL     1       7.981  -2.409  -0.086  0.00  0.00    +0.005 A 
BRANCH   9  16
ATOM     15  C   UNL     1      11.302  -2.668   1.131  0.00  0.00    +0.015 C 
ATOM     16  C   UNL     1      10.436  -2.890  -0.111  0.00  0.00    -0.013 C 
ATOM     17  C   UNL     1       9.906  -4.326  -0.113  0.00  0.00    +0.015 C 
ATOM     18  C   UNL     1      11.277  -2.656  -1.367  0.00  0.00    +0.015 C 
ENDBRANCH   9  16
ENDBRANCH   5  12
ENDBRANCH   1   7
BRANCH   2  19
ATOM     19  C   UNL     1       1.248   1.716  -0.001  0.00  0.00    +0.202 C 
BRANCH  19  20
ATOM     20  N   UNL     1      -0.011   0.966   0.007  0.00  0.00    -0.303 N 
ATOM     21  C   UNL     1      -1.187   1.624   0.017  0.00  0.00    +0.247 C 
ATOM     22  O   UNL     1      -1.204   2.840   0.023  0.00  0.00    -0.270 OA
ATOM     23  H   UNL     1       0.002  -0.004   0.002  0.00  0.00    +0.150 HD
BRANCH  21  24
ATOM     24  C   UNL     1      -2.455   0.869   0.018  0.00  0.00    +0.072 A 
ATOM     25  C   UNL     1      -2.440  -0.529   0.011  0.00  0.00    +0.019 A 
ATOM     26  C   UNL     1      -3.626  -1.228   0.013  0.00  0.00    +0.039 A 
ATOM     27  C   UNL     1      -4.836  -0.550   0.023  0.00  0.00    +0.126 A 
ATOM     28  C   UNL     1      -4.861   0.835   0.031  0.00  0.00    +0.077 A 
ATOM     29  C   UNL     1      -3.678   1.549   0.034  0.00  0.00    +0.138 A 
ATOM     30  F   UNL     1      -3.702   2.899   0.047  0.00  0.00    -0.205 F 
ATOM     31  F   UNL     1      -5.996  -1.244   0.026  0.00  0.00    -0.205 F 
ENDBRANCH  21  24
ENDBRANCH  19  20
ENDBRANCH   2  19
TORSDOF 6
