REMARK  Name = ZINC27533946
REMARK  13 active torsions:
REMARK  status: ('A' for Active; 'I' for Inactive)
REMARK    1  A    between atoms: C_1  and  C_2
REMARK    2  A    between atoms: C_2  and  O_3
REMARK    3  A    between atoms: O_3  and  C_4
REMARK    4  A    between atoms: C_6  and  C_22
REMARK    5  A    between atoms: C_9  and  O_10
REMARK    6  A    between atoms: O_10  and  C_11
REMARK    7  A    between atoms: C_11  and  C_12
REMARK    8  A    between atoms: C_12  and  O_13
REMARK    9  A    between atoms: O_13  and  C_14
REMARK   10  A    between atoms: C_19  and  C_20
REMARK   11  A    between atoms: C_32  and  C_34
REMARK   12  A    between atoms: C_34  and  C_35
REMARK   13  A    between atoms: C_34  and  C_36
REMARK                            x       y       z     vdW  Elec       q    Type
REMARK                         _______ _______ _______ _____ _____    ______ ____
ROOT
ATOM      1  C   UNL     1       1.328  -2.069  -1.384  0.00  0.00    +0.164 A 
ATOM      2  C   UNL     1       0.552  -2.790  -0.499  0.00  0.00    +0.057 A 
ATOM      3  C   UNL     1       0.614  -4.191  -0.498  0.00  0.00    -0.019 A 
ATOM      4  C   UNL     1       1.465  -4.851  -1.396  0.00  0.00    +0.032 A 
ATOM      5  C   UNL     1       2.235  -4.122  -2.276  0.00  0.00    +0.087 A 
ATOM      6  C   UNL     1       2.167  -2.733  -2.279  0.00  0.00    +0.180 A 
ATOM      7 CL   UNL     1       3.287  -4.940  -3.388  0.00  0.00    -0.080 Cl
ENDROOT
BRANCH   3   8
ATOM      8  C   UNL     1      -0.206  -4.962   0.439  0.00  0.00    +0.024 C 
ATOM      9  C   UNL     1      -0.757  -6.160   0.046  0.00  0.00    +0.081 C 
ATOM     10  C   UNL     1      -1.443  -7.064   1.013  0.00  0.00    +0.152 C 
ATOM     11  N   UNL     1      -2.119  -6.631   2.044  0.00  0.00    -0.283 NA
ATOM     12  N   UNL     1      -1.291  -8.433   0.705  0.00  0.00    -0.152 N 
ATOM     13  C   UNL     1      -1.010  -8.763  -0.604  0.00  0.00    +0.181 C 
ATOM     14  N   UNL     1      -0.768  -7.947  -1.599  0.00  0.00    -0.152 NA
ATOM     15  C   UNL     1      -0.707  -6.619  -1.364  0.00  0.00    +0.273 C 
ATOM     16  O   UNL     1      -0.608  -5.821  -2.282  0.00  0.00    -0.268 OA
ATOM     17  S   UNL     1      -1.043 -10.535  -0.555  0.00  0.00    -0.038 S 
ATOM     18  C   UNL     1      -1.324 -10.716   1.201  0.00  0.00    +0.102 C 
ATOM     19  N   UNL     1      -1.410  -9.478   1.596  0.00  0.00    -0.169 NA
ATOM     20  H   UNL     1      -2.546  -7.263   2.643  0.00  0.00    +0.188 HD
BRANCH  18  21
ATOM     21  C   UNL     1      -1.434 -11.978   2.017  0.00  0.00    +0.040 C 
ATOM     22  C   UNL     1      -0.034 -12.449   2.419  0.00  0.00    +0.014 C 
ATOM     23  C   UNL     1      -2.260 -11.703   3.275  0.00  0.00    +0.014 C 
ENDBRANCH  18  21
ENDBRANCH   3   8
BRANCH   1  24
ATOM     24  O   UNL     1       1.270  -0.710  -1.388  0.00  0.00    -0.489 OA
BRANCH  24  26
ATOM     25  C   UNL     1       0.459   1.425  -0.599  0.00  0.00    +0.048 C 
ATOM     26  C   UNL     1       0.389  -0.096  -0.445  0.00  0.00    +0.226 C 
ENDBRANCH  24  26
ENDBRANCH   1  24
BRANCH   6  27
ATOM     27  O   UNL     1       2.925  -2.021  -3.152  0.00  0.00    -0.483 OA
BRANCH  27  28
ATOM     28  C   UNL     1       4.230  -1.638  -2.716  0.00  0.00    +0.270 C 
BRANCH  28  29
ATOM     29  C   UNL     1       4.928  -0.849  -3.825  0.00  0.00    +0.270 C 
BRANCH  29  30
ATOM     30  O   UNL     1       4.229   0.377  -4.050  0.00  0.00    -0.488 OA
BRANCH  30  31
ATOM     31  C   UNL     1       4.723   1.202  -5.011  0.00  0.00    +0.124 A 
ATOM     32  C   UNL     1       5.853   0.835  -5.728  0.00  0.00    +0.046 A 
ATOM     33  C   UNL     1       6.352   1.675  -6.705  0.00  0.00    +0.004 A 
ATOM     34  C   UNL     1       5.726   2.879  -6.968  0.00  0.00    +0.000 A 
ATOM     35  C   UNL     1       4.601   3.247  -6.255  0.00  0.00    +0.007 A 
ATOM     36  C   UNL     1       4.094   2.408  -5.281  0.00  0.00    -0.009 A 
ATOM     37  C   UNL     1       2.863   2.807  -4.508  0.00  0.00    +0.047 C 
ENDBRANCH  30  31
ENDBRANCH  29  30
ENDBRANCH  28  29
ENDBRANCH  27  28
ENDBRANCH   6  27
TORSDOF 9
