REMARK  Name = ZINC13568028
REMARK  3 active torsions:
REMARK  status: ('A' for Active; 'I' for Inactive)
REMARK    1  A    between atoms: C_7  and  C_11
REMARK    2  A    between atoms: C_16  and  C_21
REMARK    3  A    between atoms: C_30  and  C_32
REMARK                            x       y       z     vdW  Elec       q    Type
REMARK                         _______ _______ _______ _____ _____    ______ ____
ROOT
ATOM      1  C   UNL     1       0.666  -3.275  -0.021  0.00  0.00    +0.177 C 
ATOM      2  C   UNL     1       0.922  -4.116   1.211  0.00  0.00    +0.041 C 
ATOM      3  C   UNL     1       1.558  -5.305   1.149  0.00  0.00    +0.020 C 
ATOM      4  C   UNL     1       1.814  -6.114   2.399  0.00  0.00    +0.063 C 
ATOM      5  C   UNL     1       0.694  -5.866   3.411  0.00  0.00    +0.068 C 
ATOM      6  C   UNL     1       0.650  -4.366   3.723  0.00  0.00    +0.091 C 
ATOM      7  C   UNL     1       0.465  -3.606   2.439  0.00  0.00    +0.164 C 
ATOM      8  O   UNL     1      -0.091  -2.525   2.464  0.00  0.00    -0.292 OA
ATOM      9  N   UNL     1       1.992  -5.834  -0.043  0.00  0.00    -0.287 N 
ATOM     10  C   UNL     1       1.516  -5.272  -1.217  0.00  0.00    +0.219 A 
ATOM     11  N   UNL     1       0.888  -4.072  -1.221  0.00  0.00    -0.220 N 
ATOM     12  N   UNL     1       0.540  -3.816  -2.546  0.00  0.00    -0.143 NA
ATOM     13  C   UNL     1       0.966  -4.834  -3.252  0.00  0.00    +0.256 A 
ATOM     14  N   UNL     1       1.556  -5.712  -2.444  0.00  0.00    -0.189 NA
ATOM     15  H   UNL     1       2.614  -6.578  -0.062  0.00  0.00    +0.155 HD
ENDROOT
BRANCH   1  22
ATOM     16  C   UNL     1      -0.017   1.362   0.009  0.00  0.00    +0.001 A 
ATOM     17  C   UNL     1       1.170   2.083   0.002  0.00  0.00    +0.002 A 
ATOM     18  C   UNL     1       2.386   1.436  -0.013  0.00  0.00    +0.026 A 
ATOM     19  C   UNL     1       2.428   0.046  -0.021  0.00  0.00    +0.047 A 
ATOM     20  C   UNL     1       1.223  -0.681  -0.013  0.00  0.00    +0.005 A 
ATOM     21  C   UNL     1       0.002  -0.004   0.002  0.00  0.00    +0.010 A 
ATOM     22  C   UNL     1       1.604  -2.095  -0.025  0.00  0.00    +0.007 A 
ATOM     23  C   UNL     1       2.945  -2.141  -0.038  0.00  0.00    +0.089 A 
ATOM     24  N   UNL     1       3.455  -0.871  -0.036  0.00  0.00    -0.360 N 
ATOM     25  H   UNL     1       4.399  -0.650  -0.044  0.00  0.00    +0.165 HD
ENDBRANCH   1  22
BRANCH   5  26
ATOM     26  C   UNL     1       0.970  -6.640   4.674  0.00  0.00    +0.109 A 
ATOM     27  C   UNL     1       0.179  -7.591   5.203  0.00  0.00    +0.045 A 
ATOM     28  C   UNL     1       0.818  -8.047   6.378  0.00  0.00    +0.041 A 
ATOM     29  C   UNL     1       1.961  -7.348   6.498  0.00  0.00    +0.195 A 
ATOM     30  O   UNL     1       2.050  -6.501   5.460  0.00  0.00    -0.468 OA
ENDBRANCH   5  26
BRANCH  13  31
ATOM     31  C   UNL     1       0.811  -4.989  -4.743  0.00  0.00    +0.454 C 
ATOM     32  F   UNL     1       2.039  -4.748  -5.367  0.00  0.00    -0.163 F 
ATOM     33  F   UNL     1       0.386  -6.289  -5.036  0.00  0.00    -0.163 F 
ATOM     34  F   UNL     1      -0.138  -4.072  -5.211  0.00  0.00    -0.163 F 
ENDBRANCH  13  31
TORSDOF 3
