REMARK  Name = ZINC09493744
REMARK  12 active torsions:
REMARK  status: ('A' for Active; 'I' for Inactive)
REMARK    1  A    between atoms: C_1  and  C_2
REMARK    2  A    between atoms: C_2  and  N_3
REMARK    3  A    between atoms: N_3  and  C_4
REMARK    4  A    between atoms: N_3  and  S_6
REMARK    5  A    between atoms: C_4  and  C_5
REMARK    6  A    between atoms: S_6  and  C_9
REMARK    7  A    between atoms: C_13  and  C_15
REMARK    8  A    between atoms: C_21  and  C_24
REMARK    9  A    between atoms: C_25  and  C_34
REMARK   10  A    between atoms: C_26  and  C_31
REMARK   11  A    between atoms: C_27  and  C_30
REMARK   12  A    between atoms: C_31  and  C_33
REMARK                            x       y       z     vdW  Elec       q    Type
REMARK                         _______ _______ _______ _____ _____    ______ ____
ROOT
ATOM      1  C   UNL     1       5.121   2.215   4.500  0.00  0.00    +0.186 A 
ATOM      2  N   UNL     1       5.056   1.400   5.535  0.00  0.00    -0.126 NA
ATOM      3  N   UNL     1       5.378   2.028   6.617  0.00  0.00    -0.120 NA
ATOM      4  C   UNL     1       5.664   3.259   6.335  0.00  0.00    +0.213 A 
ATOM      5  N   UNL     1       5.513   3.433   4.975  0.00  0.00    -0.186 N 
ATOM      6  N   UNL     1       5.732   4.649   4.338  0.00  0.00    -0.165 NA
ATOM      7  C   UNL     1       6.406   5.621   4.845  0.00  0.00    +0.096 C 
ATOM      8  C   UNL     1       7.108   5.622   6.171  0.00  0.00    +0.136 C 
ATOM      9  S   UNL     1       6.178   4.599   7.364  0.00  0.00    -0.078 S 
ENDROOT
BRANCH   7  10
ATOM     10  C   UNL     1       6.496   6.850   4.048  0.00  0.00    +0.067 A 
ATOM     11  C   UNL     1       5.841   7.091   2.879  0.00  0.00    -0.013 A 
ATOM     12  C   UNL     1       6.214   8.392   2.455  0.00  0.00    +0.041 A 
ATOM     13  C   UNL     1       7.093   8.889   3.402  0.00  0.00    +0.024 A 
ATOM     14  N   UNL     1       7.252   7.958   4.360  0.00  0.00    -0.356 N 
ATOM     15  H   UNL     1       7.814   8.051   5.145  0.00  0.00    +0.166 HD
ATOM     16  C   UNL     1       7.753  10.243   3.369  0.00  0.00    +0.064 C 
ATOM     17  C   UNL     1       4.899   6.153   2.169  0.00  0.00    +0.047 C 
BRANCH  12  18
ATOM     18  C   UNL     1       5.757   9.080   1.244  0.00  0.00    +0.162 C 
ATOM     19  O   UNL     1       6.317   8.882   0.186  0.00  0.00    -0.292 OA
ATOM     20  C   UNL     1       4.591  10.033   1.313  0.00  0.00    +0.091 C 
ENDBRANCH  12  18
ENDBRANCH   7  10
BRANCH   1  25
ATOM     21  C   UNL     1       3.825   0.415   1.469  0.00  0.00    +0.106 A 
ATOM     22  C   UNL     1       4.289   1.232   0.453  0.00  0.00    +0.028 A 
ATOM     23  C   UNL     1       5.021   2.367   0.749  0.00  0.00    +0.003 A 
ATOM     24  C   UNL     1       5.295   2.692   2.061  0.00  0.00    +0.012 A 
ATOM     25  C   UNL     1       4.831   1.873   3.091  0.00  0.00    +0.023 A 
ATOM     26  C   UNL     1       4.088   0.732   2.786  0.00  0.00    +0.040 A 
BRANCH  21  27
ATOM     27  S   UNL     1       2.893  -1.028   1.081  0.00  0.00    +0.061 S 
ATOM     28  O   UNL     1       3.036  -1.913   2.184  0.00  0.00    -0.153 OA
ATOM     29  O   UNL     1       3.249  -1.398  -0.244  0.00  0.00    -0.153 OA
BRANCH  27  30
ATOM     30  N   UNL     1       1.298  -0.584   1.036  0.00  0.00    -0.177 NA
BRANCH  30  32
ATOM     31  C   UNL     1       0.751   1.404  -0.281  0.00  0.00    +0.022 C 
ATOM     32  C   UNL     1       0.701  -0.124  -0.221  0.00  0.00    +0.106 C 
ENDBRANCH  30  32
BRANCH  30  33
ATOM     33  C   UNL     1       0.484  -0.649   2.252  0.00  0.00    +0.106 C 
ATOM     34  C   UNL     1      -0.267  -1.982   2.292  0.00  0.00    +0.022 C 
ENDBRANCH  30  33
ENDBRANCH  27  30
ENDBRANCH  21  27
ENDBRANCH   1  25
TORSDOF 7
