REMARK  Name = ZINC04515122
REMARK  6 active torsions:
REMARK  status: ('A' for Active; 'I' for Inactive)
REMARK    1  A    between atoms: C_1  and  C_2
REMARK    2  A    between atoms: N_11  and  C_15
REMARK    3  A    between atoms: C_15  and  C_16
REMARK    4  A    between atoms: N_18  and  C_19
REMARK    5  A    between atoms: C_19  and  C_21
REMARK    6  A    between atoms: C_19  and  C_22
REMARK                            x       y       z     vdW  Elec       q    Type
REMARK                         _______ _______ _______ _____ _____    ______ ____
ROOT
ATOM      1  C   UNL     1       0.007   1.677   4.867  0.00  0.00    +0.231 C 
ATOM      2  O   UNL     1       1.188   1.404   4.909  0.00  0.00    -0.274 OA
ATOM      3  N   UNL     1      -0.675   1.545   3.712  0.00  0.00    -0.311 N 
ATOM      4  H   UNL     1      -1.619   1.763   3.678  0.00  0.00    +0.149 HD
ENDROOT
BRANCH   3   5
ATOM      5  C   UNL     1       0.011   1.072   2.506  0.00  0.00    +0.076 C 
ATOM      6  C   UNL     1       0.032  -0.457   2.498  0.00  0.00    +0.028 C 
BRANCH   5   7
ATOM      7  C   UNL     1      -0.729   1.579   1.267  0.00  0.00    -0.010 C 
ATOM      8  C   UNL     1      -0.013   1.086   0.008  0.00  0.00    +0.012 C 
ATOM      9  C   UNL     1      -0.753   1.593  -1.232  0.00  0.00    -0.010 C 
ATOM     10  C   UNL     1      -0.773   3.123  -1.223  0.00  0.00    +0.007 C 
ATOM     11  C   UNL     1      -1.490   3.616   0.036  0.00  0.00    -0.010 C 
ATOM     12  C   UNL     1      -0.750   3.109   1.275  0.00  0.00    +0.012 C 
ATOM     13  C   UNL     1      -2.925   3.086   0.047  0.00  0.00    +0.007 C 
ATOM     14  C   UNL     1      -2.904   1.556   0.038  0.00  0.00    -0.010 C 
ATOM     15  C   UNL     1      -2.188   1.063  -1.221  0.00  0.00    +0.007 C 
ATOM     16  C   UNL     1      -2.164   1.050   1.278  0.00  0.00    +0.012 C 
ENDBRANCH   5   7
ENDBRANCH   3   5
BRANCH   1  17
ATOM     17  C   UNL     1      -0.698   2.163   6.107  0.00  0.00    +0.213 C 
BRANCH  17  27
ATOM     18  C   UNL     1       3.614   2.035   7.231  0.00  0.00    +0.010 C 
ATOM     19  C   UNL     1       3.306   2.964   8.406  0.00  0.00    +0.018 C 
ATOM     20  C   UNL     1       4.118   2.527   9.628  0.00  0.00    +0.006 C 
ATOM     21  C   UNL     1       3.794   3.444  10.809  0.00  0.00    +0.000 C 
ATOM     22  C   UNL     1       2.303   3.347  11.138  0.00  0.00    +0.003 C 
ATOM     23  C   UNL     1       1.484   3.789   9.922  0.00  0.00    +0.035 C 
ATOM     24  C   UNL     1       1.818   2.898   8.731  0.00  0.00    +0.115 C 
ATOM     25  C   UNL     1       0.998   3.301   7.526  0.00  0.00    +0.247 C 
ATOM     26  O   UNL     1       1.008   4.371   6.957  0.00  0.00    -0.273 OA
ATOM     27  N   UNL     1       0.253   2.219   7.220  0.00  0.00    -0.215 N 
ATOM     28  C   UNL     1       0.487   1.204   8.061  0.00  0.00    +0.310 C 
ATOM     29  O   UNL     1      -0.069   0.126   7.991  0.00  0.00    -0.252 OA
ATOM     30  N   UNL     1       1.409   1.512   8.993  0.00  0.00    -0.285 N 
ATOM     31  H   UNL     1       1.736   0.934   9.700  0.00  0.00    +0.151 HD
ENDBRANCH  17  27
ENDBRANCH   1  17
TORSDOF 4
