REMARK  Name = ZINC14227775
REMARK  8 active torsions:
REMARK  status: ('A' for Active; 'I' for Inactive)
REMARK    1  A    between atoms: C_3  and  S_25
REMARK    2  A    between atoms: C_6  and  C_7
REMARK    3  A    between atoms: C_7  and  C_9
REMARK    4  A    between atoms: C_9  and  S_10
REMARK    5  A    between atoms: S_10  and  C_11
REMARK    6  A    between atoms: C_14  and  C_19
REMARK    7  A    between atoms: N_15  and  C_16
REMARK    8  A    between atoms: S_25  and  N_28
REMARK                            x       y       z     vdW  Elec       q    Type
REMARK                         _______ _______ _______ _____ _____    ______ ____
ROOT
ATOM      1  C   UNL     1       1.167   3.696  -0.955  0.00  0.00    +0.173 C 
ATOM      2  O   UNL     1       0.114   4.287  -0.839  0.00  0.00    -0.291 OA
ENDROOT
BRANCH   1   8
ATOM      3  C   UNL     1      -0.032   1.587  -1.508  0.00  0.00    +0.013 A 
ATOM      4  C   UNL     1      -0.017   0.248  -1.837  0.00  0.00    +0.029 A 
ATOM      5  C   UNL     1       1.186  -0.423  -1.969  0.00  0.00    +0.106 A 
ATOM      6  C   UNL     1       2.384   0.243  -1.771  0.00  0.00    +0.029 A 
ATOM      7  C   UNL     1       2.385   1.582  -1.441  0.00  0.00    +0.013 A 
ATOM      8  C   UNL     1       1.174   2.267  -1.307  0.00  0.00    +0.018 A 
BRANCH   5   9
ATOM      9  S   UNL     1       1.194  -2.134  -2.390  0.00  0.00    +0.061 S 
ATOM     10  O   UNL     1       2.426  -2.662  -1.918  0.00  0.00    -0.153 OA
ATOM     11  O   UNL     1      -0.064  -2.657  -1.986  0.00  0.00    -0.153 OA
BRANCH   9  12
ATOM     12  N   UNL     1       1.240  -2.231  -4.042  0.00  0.00    -0.172 NA
ATOM     13  C   UNL     1      -0.000  -2.279  -4.833  0.00  0.00    +0.137 C 
ATOM     14  C   UNL     1       0.093  -1.214  -5.937  0.00  0.00    +0.177 C 
ATOM     15  O   UNL     1       1.314  -1.395  -6.660  0.00  0.00    -0.377 OA
ATOM     16  C   UNL     1       2.493  -1.219  -5.871  0.00  0.00    +0.177 C 
ATOM     17  C   UNL     1       2.522  -2.278  -4.763  0.00  0.00    +0.137 C 
ENDBRANCH   9  12
ENDBRANCH   5   9
ENDBRANCH   1   8
BRANCH   1  18
ATOM     18  C   UNL     1       2.468   4.425  -0.739  0.00  0.00    +0.157 C 
BRANCH  18  19
ATOM     19  S   UNL     1       2.129   6.154  -0.323  0.00  0.00    -0.078 S 
BRANCH  19  20
ATOM     20  C   UNL     1       3.776   6.750  -0.130  0.00  0.00    +0.193 A 
ATOM     21  N   UNL     1       4.881   6.049  -0.265  0.00  0.00    -0.122 NA
ATOM     22  N   UNL     1       5.905   6.797  -0.059  0.00  0.00    -0.128 NA
ATOM     23  C   UNL     1       5.518   8.017   0.231  0.00  0.00    +0.165 A 
ATOM     24  N   UNL     1       4.142   8.024   0.194  0.00  0.00    -0.299 N 
BRANCH  23  25
ATOM     25  C   UNL     1       6.394   9.167   0.539  0.00  0.00    +0.022 A 
ATOM     26  C   UNL     1       5.926  10.481   0.418  0.00  0.00    +0.031 A 
ATOM     27  C   UNL     1       6.776  11.524   0.720  0.00  0.00    +0.111 A 
ATOM     28  N   UNL     1       8.017  11.296   1.107  0.00  0.00    -0.263 NA
ATOM     29  C   UNL     1       8.500  10.074   1.230  0.00  0.00    +0.111 A 
ATOM     30  C   UNL     1       7.718   8.973   0.953  0.00  0.00    +0.031 A 
ENDBRANCH  23  25
BRANCH  24  31
ATOM     31  C   UNL     1       3.256   9.162   0.450  0.00  0.00    +0.091 C 
ATOM     32  C   UNL     1       1.782   8.861   0.729  0.00  0.00    +0.027 C 
ATOM     33  C   UNL     1       2.197   9.484  -0.606  0.00  0.00    +0.027 C 
ENDBRANCH  24  31
ENDBRANCH  19  20
ENDBRANCH  18  19
ENDBRANCH   1  18
TORSDOF 8
