REMARK  Name = ZINC01341492
REMARK  10 active torsions:
REMARK  status: ('A' for Active; 'I' for Inactive)
REMARK    1  A    between atoms: C_1  and  C_2
REMARK    2  A    between atoms: C_4  and  N_13
REMARK    3  A    between atoms: C_7  and  N_8
REMARK    4  A    between atoms: N_13  and  C_14
REMARK    5  A    between atoms: C_14  and  C_16
REMARK    6  A    between atoms: C_14  and  C_22
REMARK    7  A    between atoms: N_20  and  C_21
REMARK    8  A    between atoms: N_24  and  C_25
REMARK    9  A    between atoms: C_31  and  C_33
REMARK   10  A    between atoms: C_33  and  C_34
REMARK                            x       y       z     vdW  Elec       q    Type
REMARK                         _______ _______ _______ _____ _____    ______ ____
ROOT
ATOM      1  N   UNL     1       4.409   0.604  -1.970  0.00  0.00    -0.254 N 
ATOM      2  C   UNL     1       5.149   0.468  -3.088  0.00  0.00    +0.226 C 
ATOM      3  O   UNL     1       4.726   0.877  -4.149  0.00  0.00    -0.275 OA
ENDROOT
BRANCH   1   7
ATOM      4  C   UNL     1       0.575   2.000  -4.711  0.00  0.00    +0.046 C 
ATOM      5  C   UNL     1       1.224   1.797  -3.366  0.00  0.00    -0.023 A 
ATOM      6  C   UNL     1       2.509   1.298  -3.288  0.00  0.00    +0.029 A 
ATOM      7  C   UNL     1       3.107   1.111  -2.049  0.00  0.00    +0.038 A 
ATOM      8  C   UNL     1       2.410   1.420  -0.888  0.00  0.00    +0.025 A 
ATOM      9  C   UNL     1       1.127   1.923  -0.967  0.00  0.00    +0.030 A 
ATOM     10  C   UNL     1       0.529   2.111  -2.206  0.00  0.00    +0.072 A 
BRANCH  10  11
ATOM     11  N   UNL     1      -0.776   2.618  -2.286  0.00  0.00    -0.200 N 
ATOM     12  C   UNL     1      -1.544   3.069  -1.271  0.00  0.00    +0.250 A 
ATOM     13  N   UNL     1      -2.684   3.450  -1.786  0.00  0.00    -0.116 NA
ATOM     14  N   UNL     1      -2.692   3.263  -3.056  0.00  0.00    -0.023 NA
ATOM     15  N   UNL     1      -1.569   2.759  -3.439  0.00  0.00    -0.039 NA
ENDBRANCH  10  11
ENDBRANCH   1   7
BRANCH   1  16
ATOM     16  C   UNL     1       4.969   0.223  -0.670  0.00  0.00    +0.213 C 
BRANCH  16  17
ATOM     17  C   UNL     1       5.127   1.451   0.188  0.00  0.00    +0.049 A 
ATOM     18  C   UNL     1       4.822   2.714  -0.174  0.00  0.00    +0.025 A 
ATOM     19  C   UNL     1       5.119   3.550   0.921  0.00  0.00    +0.019 A 
ATOM     20  C   UNL     1       5.602   2.767   1.907  0.00  0.00    +0.085 A 
ATOM     21  N   UNL     1       5.609   1.478   1.464  0.00  0.00    -0.352 N 
ATOM     22  C   UNL     1       6.060   0.314   2.230  0.00  0.00    +0.148 C 
ENDBRANCH  16  17
BRANCH  16  23
ATOM     23  C   UNL     1       4.041  -0.750   0.010  0.00  0.00    +0.240 C 
ATOM     24  O   UNL     1       3.526  -0.457   1.068  0.00  0.00    -0.273 OA
ATOM     25  N   UNL     1       3.783  -1.945  -0.557  0.00  0.00    -0.311 N 
ATOM     26  H   UNL     1       4.250  -2.209  -1.365  0.00  0.00    +0.149 HD
BRANCH  25  27
ATOM     27  C   UNL     1       2.797  -2.845   0.047  0.00  0.00    +0.073 C 
ATOM     28  C   UNL     1       3.469  -3.675   1.143  0.00  0.00    +0.022 C 
ATOM     29  C   UNL     1       2.440  -4.615   1.774  0.00  0.00    +0.002 C 
ATOM     30  C   UNL     1       1.876  -5.548   0.700  0.00  0.00    +0.000 C 
ATOM     31  C   UNL     1       1.205  -4.719  -0.396  0.00  0.00    +0.002 C 
ATOM     32  C   UNL     1       2.234  -3.779  -1.027  0.00  0.00    +0.022 C 
ENDBRANCH  25  27
ENDBRANCH  16  23
ENDBRANCH   1  16
BRANCH   2  33
ATOM     33  C   UNL     1       6.501  -0.194  -3.021  0.00  0.00    +0.138 C 
BRANCH  33  34
ATOM     34  C   UNL     1       7.062  -0.331  -4.413  0.00  0.00    -0.001 A 
ATOM     35  C   UNL     1       7.838   0.535  -5.110  0.00  0.00    +0.011 A 
ATOM     36  C   UNL     1       8.236   0.198  -6.390  0.00  0.00    +0.008 A 
ATOM     37  C   UNL     1       7.848  -0.994  -6.906  0.00  0.00    +0.045 A 
ATOM     38  S   UNL     1       6.879  -1.677  -5.571  0.00  0.00    -0.101 S 
ENDBRANCH  33  34
ENDBRANCH   2  33
TORSDOF 8
