REMARK  Name = ZINC22734328
REMARK  9 active torsions:
REMARK  status: ('A' for Active; 'I' for Inactive)
REMARK    1  A    between atoms: C_1  and  N_2
REMARK    2  A    between atoms: N_5  and  C_8
REMARK    3  A    between atoms: C_8  and  C_10
REMARK    4  A    between atoms: C_8  and  C_27
REMARK    5  A    between atoms: C_10  and  N_11
REMARK    6  A    between atoms: C_12  and  C_14
REMARK    7  A    between atoms: N_16  and  C_17
REMARK    8  A    between atoms: C_17  and  C_18
REMARK    9  A    between atoms: N_35  and  C_36
REMARK                            x       y       z     vdW  Elec       q    Type
REMARK                         _______ _______ _______ _____ _____    ______ ____
ROOT
ATOM      1  C   UNL     1      11.915  -2.378   0.437  0.00  0.00    +0.104 C 
ENDROOT
BRANCH   1   2
ATOM      2  C   UNL     1      12.888  -2.526  -0.704  0.00  0.00    -0.028 A 
ATOM      3  C   UNL     1      13.255  -1.420  -1.449  0.00  0.00    +0.007 A 
ATOM      4  C   UNL     1      14.147  -1.550  -2.493  0.00  0.00    +0.024 A 
ATOM      5  C   UNL     1      14.677  -2.799  -2.811  0.00  0.00    +0.033 A 
ATOM      6  C   UNL     1      14.301  -3.904  -2.057  0.00  0.00    -0.025 A 
ATOM      7  C   UNL     1      13.412  -3.768  -1.012  0.00  0.00    +0.010 A 
ATOM      8  C   UNL     1      15.029  -5.114  -2.608  0.00  0.00    +0.056 C 
ATOM      9  C   UNL     1      16.146  -4.481  -3.468  0.00  0.00    +0.109 C 
ATOM     10  N   UNL     1      15.574  -3.164  -3.822  0.00  0.00    -0.332 N 
ATOM     11  C   UNL     1      16.631  -2.156  -3.977  0.00  0.00    +0.129 C 
ENDBRANCH   1   2
BRANCH   1  16
ATOM     12  C   UNL     1      13.197   1.627   4.208  0.00  0.00    -0.096 C 
ATOM     13  N   UNL     1      12.903   0.390   3.471  0.00  0.00    +0.379 N 
ATOM     14  C   UNL     1      11.530   0.402   2.949  0.00  0.00    -0.064 C 
ATOM     15  C   UNL     1      11.238  -0.932   2.258  0.00  0.00    +0.066 C 
ATOM     16  N   UNL     1      12.208  -1.142   1.174  0.00  0.00    -0.297 NA
ATOM     17  C   UNL     1      13.582  -1.154   1.696  0.00  0.00    +0.066 C 
ATOM     18  C   UNL     1      13.874   0.180   2.387  0.00  0.00    -0.064 C 
ATOM     19  H   UNL     1      12.993  -0.451   4.174  0.00  0.00    -0.082 HD
ENDBRANCH   1  16
BRANCH   1  20
ATOM     20  C   UNL     1      10.489  -2.318  -0.114  0.00  0.00    +0.128 C 
BRANCH  20  21
ATOM     21  N   UNL     1      10.165  -3.586  -0.772  0.00  0.00    -0.306 N 
ATOM     22  C   UNL     1       8.995  -3.725  -1.427  0.00  0.00    +0.299 C 
ATOM     23  O   UNL     1       8.210  -2.801  -1.471  0.00  0.00    -0.265 OA
ATOM     24  H   UNL     1      10.877  -4.423  -0.732  0.00  0.00    +0.149 HD
BRANCH  22  25
ATOM     25  C   UNL     1       8.665  -5.019  -2.098  0.00  0.00    +0.299 C 
ATOM     26  O   UNL     1       9.450  -5.943  -2.054  0.00  0.00    -0.265 OA
ATOM     27  N   UNL     1       7.495  -5.159  -2.753  0.00  0.00    -0.303 N 
ATOM     28  H   UNL     1       6.783  -4.321  -2.793  0.00  0.00    +0.149 HD
BRANCH  27  29
ATOM     29  C   UNL     1       7.171  -6.427  -3.411  0.00  0.00    +0.140 C 
BRANCH  29  30
ATOM     30  C   UNL     1       5.817  -6.322  -4.065  0.00  0.00    -0.027 A 
ATOM     31  C   UNL     1       5.715  -5.883  -5.372  0.00  0.00    +0.009 A 
ATOM     32  C   UNL     1       4.476  -5.785  -5.976  0.00  0.00    +0.050 A 
ATOM     33  C   UNL     1       3.332  -6.127  -5.273  0.00  0.00    +0.166 A 
ATOM     34  C   UNL     1       3.436  -6.569  -3.956  0.00  0.00    +0.167 A 
ATOM     35  C   UNL     1       4.681  -6.666  -3.357  0.00  0.00    +0.054 A 
ATOM     36  O   UNL     1       2.182  -6.840  -3.488  0.00  0.00    -0.453 OA
ATOM     37  C   UNL     1       1.350  -6.949  -4.657  0.00  0.00    +0.466 C 
ATOM     38  O   UNL     1       2.014  -6.120  -5.629  0.00  0.00    -0.453 OA
ENDBRANCH  29  30
ENDBRANCH  27  29
ENDBRANCH  22  25
ENDBRANCH  20  21
ENDBRANCH   1  20
TORSDOF 7
