REMARK  Name = ZINC35216628
REMARK  5 active torsions:
REMARK  status: ('A' for Active; 'I' for Inactive)
REMARK    1  A    between atoms: C_1  and  C_2
REMARK    2  A    between atoms: C_4  and  C_18
REMARK    3  A    between atoms: N_8  and  C_9
REMARK    4  A    between atoms: C_9  and  C_11
REMARK    5  A    between atoms: C_9  and  C_12
REMARK                            x       y       z     vdW  Elec       q    Type
REMARK                         _______ _______ _______ _____ _____    ______ ____
ROOT
ATOM      1  C   UNL     1      -0.018   1.503   0.010  0.00  0.00    +0.066 C 
ATOM      2  C   UNL     1       0.002  -0.004   0.002  0.00  0.00    +0.044 A 
ATOM      3  C   UNL     1       0.006  -0.699  -1.197  0.00  0.00    +0.046 A 
ATOM      4  C   UNL     1       0.025  -2.084  -1.160  0.00  0.00    +0.044 A 
ATOM      5  N   UNL     1       0.040  -2.698   0.011  0.00  0.00    -0.220 NA
ATOM      6  C   UNL     1       0.035  -2.004   1.140  0.00  0.00    +0.216 A 
ATOM      7  N   UNL     1       0.022  -0.679   1.139  0.00  0.00    -0.220 NA
ATOM      8  N   UNL     1       0.050  -2.679   2.348  0.00  0.00    -0.308 N 
ATOM      9  C   UNL     1       0.030  -2.881  -2.439  0.00  0.00    +0.066 C 
ATOM     10  H   UNL     1       0.063  -3.649   2.362  0.00  0.00    +0.149 HD
ENDROOT
BRANCH   8  11
ATOM     11  C   UNL     1       0.046  -1.929   3.606  0.00  0.00    +0.099 C 
ATOM     12  C   UNL     1       1.479  -1.540   3.973  0.00  0.00    +0.030 C 
BRANCH  11  13
ATOM     13  C   UNL     1      -0.547  -2.799   4.717  0.00  0.00    +0.138 C 
ATOM     14  C   UNL     1      -1.938  -3.336   4.295  0.00  0.00    +0.035 C 
ATOM     15  C   UNL     1      -2.039  -4.614   5.172  0.00  0.00    +0.031 C 
ATOM     16  C   UNL     1      -0.572  -5.093   5.222  0.00  0.00    +0.160 C 
ATOM     17  O   UNL     1       0.263  -3.968   4.920  0.00  0.00    -0.375 OA
ENDBRANCH  11  13
ENDBRANCH   8  11
TORSDOF 2
