REMARK  Name = ZINC34942669
REMARK  8 active torsions:
REMARK  status: ('A' for Active; 'I' for Inactive)
REMARK    1  A    between atoms: C_1  and  O_2
REMARK    2  A    between atoms: O_2  and  C_3
REMARK    3  A    between atoms: C_3  and  C_5
REMARK    4  A    between atoms: C_8  and  C_11
REMARK    5  A    between atoms: C_13  and  C_31
REMARK    6  A    between atoms: C_26  and  C_27
REMARK    7  A    between atoms: C_26  and  C_29
REMARK    8  A    between atoms: C_31  and  C_33
REMARK                            x       y       z     vdW  Elec       q    Type
REMARK                         _______ _______ _______ _____ _____    ______ ____
ROOT
ATOM      1  C   UNL     1       0.885  -7.036  -1.265  0.00  0.00    +0.083 C 
ATOM      2  C   UNL     1       0.077  -6.862  -2.580  0.00  0.00    +0.151 C 
ATOM      3  N   UNL     1       0.551  -7.962  -3.421  0.00  0.00    -0.310 N 
ATOM      4  C   UNL     1      -0.139  -8.739  -4.344  0.00  0.00    +0.038 A 
ATOM      5  C   UNL     1      -1.156  -8.265  -5.141  0.00  0.00    +0.024 A 
ATOM      6  C   UNL     1      -1.770  -9.117  -6.044  0.00  0.00    +0.002 A 
ATOM      7  C   UNL     1      -1.365 -10.438  -6.147  0.00  0.00    +0.001 A 
ATOM      8  C   UNL     1      -0.350 -10.927  -5.348  0.00  0.00    +0.010 A 
ATOM      9  C   UNL     1       0.270 -10.086  -4.432  0.00  0.00    -0.004 A 
ATOM     10  C   UNL     1       1.332 -10.564  -3.525  0.00  0.00    +0.007 C 
ATOM     11  C   UNL     1       2.130  -9.709  -2.891  0.00  0.00    -0.002 C 
ATOM     12  C   UNL     1       1.968  -8.226  -3.090  0.00  0.00    +0.132 C 
ATOM     13  C   UNL     1       2.282  -7.449  -1.802  0.00  0.00    +0.173 C 
ENDROOT
BRANCH   1  17
ATOM     14  C   UNL     1       1.104  -3.352   0.896  0.00  0.00    +0.059 A 
ATOM     15  C   UNL     1       1.331  -3.372  -0.482  0.00  0.00    +0.015 A 
ATOM     16  C   UNL     1       1.259  -4.564  -1.173  0.00  0.00    +0.005 A 
ATOM     17  C   UNL     1       0.963  -5.738  -0.504  0.00  0.00    -0.039 A 
ATOM     18  C   UNL     1       0.735  -5.726   0.861  0.00  0.00    +0.005 A 
ATOM     19  C   UNL     1       0.810  -4.542   1.565  0.00  0.00    +0.015 A 
BRANCH  14  20
ATOM     20  C   UNL     1       1.179  -2.080   1.642  0.00  0.00    +0.339 C 
ATOM     21  O   UNL     1       0.986  -2.067   2.841  0.00  0.00    -0.245 OA
BRANCH  20  23
ATOM     22  C   UNL     1       1.520   0.259   1.777  0.00  0.00    +0.280 C 
ATOM     23  O   UNL     1       1.463  -0.934   0.993  0.00  0.00    -0.464 OA
ENDBRANCH  20  23
ENDBRANCH  14  20
ENDBRANCH   1  17
BRANCH  13  24
ATOM     24  C   UNL     1       3.092  -6.257  -2.103  0.00  0.00    +0.087 C 
ATOM     25  N   UNL     1       3.717  -5.337  -2.336  0.00  0.00    -0.195 NA
ENDBRANCH  13  24
BRANCH  13  26
ATOM     26  C   UNL     1       2.974  -8.313  -0.832  0.00  0.00    +0.087 C 
ATOM     27  N   UNL     1       3.508  -8.980  -0.083  0.00  0.00    -0.195 NA
ENDBRANCH  13  26
BRANCH   2  28
ATOM     28  C   UNL     1      -1.401  -6.992  -2.315  0.00  0.00    +0.160 C 
ATOM     29  O   UNL     1      -1.863  -8.055  -1.979  0.00  0.00    -0.295 OA
BRANCH  28  30
ATOM     30  C   UNL     1      -2.302  -5.794  -2.470  0.00  0.00    +0.032 C 
ATOM     31  C   UNL     1      -2.339  -5.370  -3.940  0.00  0.00    +0.018 C 
ATOM     32  C   UNL     1      -3.254  -4.154  -4.097  0.00  0.00    -0.010 C 
ATOM     33  C   UNL     1      -4.667  -4.515  -3.636  0.00  0.00    +0.007 C 
ATOM     34  C   UNL     1      -4.630  -4.939  -2.166  0.00  0.00    -0.010 C 
ATOM     35  C   UNL     1      -3.716  -6.156  -2.009  0.00  0.00    +0.018 C 
ATOM     36  C   UNL     1      -4.096  -3.786  -1.315  0.00  0.00    +0.007 C 
ATOM     37  C   UNL     1      -2.683  -3.424  -1.777  0.00  0.00    -0.010 C 
ATOM     38  C   UNL     1      -2.719  -3.000  -3.246  0.00  0.00    +0.007 C 
ATOM     39  C   UNL     1      -1.768  -4.640  -1.619  0.00  0.00    +0.018 C 
ENDBRANCH  28  30
ENDBRANCH   2  28
TORSDOF 7
