REMARK  Name = ZINC35894204
REMARK  4 active torsions:
REMARK  status: ('A' for Active; 'I' for Inactive)
REMARK    1  A    between atoms: C_8  and  C_22
REMARK    2  A    between atoms: N_15  and  C_17
REMARK    3  A    between atoms: N_24  and  C_25
REMARK    4  A    between atoms: C_25  and  C_26
REMARK                            x       y       z     vdW  Elec       q    Type
REMARK                         _______ _______ _______ _____ _____    ______ ____
ROOT
ATOM      1  C   UNL     1      -0.017   1.378   0.010  0.00  0.00    +0.000 A 
ATOM      2  C   UNL     1       1.170   2.088   0.002  0.00  0.00    +0.002 A 
ATOM      3  C   UNL     1       2.376   1.417  -0.011  0.00  0.00    +0.023 A 
ATOM      4  C   UNL     1       2.397   0.025  -0.018  0.00  0.00    +0.033 A 
ATOM      5  C   UNL     1       1.208  -0.683  -0.014  0.00  0.00    -0.026 A 
ATOM      6  C   UNL     1       0.002  -0.004   0.002  0.00  0.00    +0.005 A 
ATOM      7  C   UNL     1       1.205  -2.189  -0.034  0.00  0.00    +0.051 C 
ATOM      8  C   UNL     1       2.497  -2.692  -0.676  0.00  0.00    +0.098 C 
ATOM      9  C   UNL     1       3.701  -2.081   0.050  0.00  0.00    +0.069 C 
ATOM     10  N   UNL     1       3.640  -0.629  -0.026  0.00  0.00    -0.329 N 
ATOM     11  C   UNL     1       4.842   0.207  -0.080  0.00  0.00    +0.087 C 
ATOM     12  C   UNL     1       5.961  -0.511  -0.830  0.00  0.00    -0.059 C 
ATOM     13  N   UNL     1       6.145  -1.840  -0.229  0.00  0.00    +0.384 N 
ATOM     14  C   UNL     1       4.977  -2.664  -0.535  0.00  0.00    -0.055 C 
ATOM     15  H   UNL     1       6.242  -1.748   0.771  0.00  0.00    -0.081 HD
ENDROOT
BRANCH  13  16
ATOM     16  C   UNL     1       7.350  -2.469  -0.786  0.00  0.00    -0.068 C 
ATOM     17  C   UNL     1       7.594  -3.834  -0.112  0.00  0.00    -0.015 C 
ATOM     18  C   UNL     1       9.135  -3.926   0.015  0.00  0.00    -0.002 C 
ATOM     19  C   UNL     1       9.536  -2.471   0.365  0.00  0.00    -0.002 C 
ATOM     20  C   UNL     1       8.585  -1.602  -0.484  0.00  0.00    -0.015 C 
ENDBRANCH  13  16
BRANCH   8  21
ATOM     21  C   UNL     1       2.527  -2.287  -2.127  0.00  0.00    +0.218 C 
ATOM     22  O   UNL     1       3.421  -1.579  -2.541  0.00  0.00    -0.275 OA
ATOM     23  N   UNL     1       1.560  -2.711  -2.965  0.00  0.00    -0.313 N 
ATOM     24  H   UNL     1       0.845  -3.276  -2.634  0.00  0.00    +0.149 HD
BRANCH  23  25
ATOM     25  C   UNL     1       1.590  -2.317  -4.376  0.00  0.00    +0.135 C 
BRANCH  25  26
ATOM     26  C   UNL     1       0.389  -2.928  -5.101  0.00  0.00    +0.135 C 
ATOM     27  C   UNL     1       0.476  -2.619  -6.611  0.00  0.00    +0.035 C 
ATOM     28  C   UNL     1      -1.006  -2.328  -6.974  0.00  0.00    +0.031 C 
ATOM     29  C   UNL     1      -1.501  -1.653  -5.670  0.00  0.00    +0.160 C 
ATOM     30  O   UNL     1      -0.824  -2.346  -4.608  0.00  0.00    -0.375 OA
ENDBRANCH  25  26
ENDBRANCH  23  25
ENDBRANCH   8  21
TORSDOF 4
