REMARK  Name = ZINC39898085
REMARK  11 active torsions:
REMARK  status: ('A' for Active; 'I' for Inactive)
REMARK    1  A    between atoms: C_1  and  C_2
REMARK    2  A    between atoms: C_2  and  C_3
REMARK    3  A    between atoms: C_3  and  O_4
REMARK    4  A    between atoms: O_4  and  C_5
REMARK    5  A    between atoms: C_9  and  C_11
REMARK    6  A    between atoms: C_14  and  C_26
REMARK    7  A    between atoms: N_21  and  C_22
REMARK    8  A    between atoms: C_22  and  C_23
REMARK    9  A    between atoms: C_23  and  C_24
REMARK   10  A    between atoms: C_24  and  O_25
REMARK   11  A    between atoms: C_31  and  O_32
REMARK                            x       y       z     vdW  Elec       q    Type
REMARK                         _______ _______ _______ _____ _____    ______ ____
ROOT
ATOM      1  C   UNL     1       2.079  -5.988  -3.572  0.00  0.00    +0.141 C 
ATOM      2  C   UNL     1       3.467  -6.494  -3.290  0.00  0.00    +0.035 A 
ATOM      3  C   UNL     1       4.528  -6.582  -2.383  0.00  0.00    +0.102 A 
ATOM      4  N   UNL     1       5.491  -7.268  -2.967  0.00  0.00    -0.173 NA
ATOM      5  N   UNL     1       5.143  -7.620  -4.154  0.00  0.00    -0.272 N 
ATOM      6  H   UNL     1       5.694  -8.132  -4.766  0.00  0.00    +0.189 HD
ATOM      7  C   UNL     1       3.882  -7.167  -4.423  0.00  0.00    +0.126 A 
ATOM      8  C   UNL     1       2.808  -7.111  -5.420  0.00  0.00    +0.265 C 
ATOM      9  O   UNL     1       2.862  -7.611  -6.527  0.00  0.00    -0.268 OA
ATOM     10  N   UNL     1       1.754  -6.428  -4.936  0.00  0.00    -0.285 N 
ENDROOT
BRANCH   3  11
ATOM     11  C   UNL     1       4.564  -6.010  -1.014  0.00  0.00    +0.045 A 
ATOM     12  C   UNL     1       3.424  -5.418  -0.473  0.00  0.00    +0.033 A 
ATOM     13  C   UNL     1       3.462  -4.887   0.801  0.00  0.00    +0.042 A 
ATOM     14  C   UNL     1       4.630  -4.940   1.543  0.00  0.00    +0.023 A 
ATOM     15  C   UNL     1       5.766  -5.524   1.015  0.00  0.00    +0.047 A 
ATOM     16  C   UNL     1       5.739  -6.067  -0.260  0.00  0.00    +0.126 A 
ATOM     17 CL   UNL     1       2.042  -4.149   1.474  0.00  0.00    -0.084 Cl
BRANCH  16  18
ATOM     18  O   UNL     1       6.853  -6.647  -0.777  0.00  0.00    -0.506 OA
ATOM     19  H   UNL     1       7.427  -6.036  -1.260  0.00  0.00    +0.292 HD
ENDBRANCH  16  18
ENDBRANCH   3  11
BRANCH   1  24
ATOM     20  C   UNL     1       1.311  -2.476  -2.409  0.00  0.00    +0.121 A 
ATOM     21  C   UNL     1       1.996  -1.719  -3.349  0.00  0.00    +0.045 A 
ATOM     22  C   UNL     1       2.704  -2.347  -4.355  0.00  0.00    +0.004 A 
ATOM     23  C   UNL     1       2.730  -3.728  -4.427  0.00  0.00    +0.006 A 
ATOM     24  C   UNL     1       2.048  -4.484  -3.491  0.00  0.00    -0.019 A 
ATOM     25  C   UNL     1       1.343  -3.861  -2.479  0.00  0.00    +0.051 A 
BRANCH  20  26
ATOM     26  O   UNL     1       0.614  -1.861  -1.417  0.00  0.00    -0.492 OA
BRANCH  26  27
ATOM     27  C   UNL     1       0.625  -0.432  -1.406  0.00  0.00    +0.229 C 
BRANCH  27  29
ATOM     28  C   UNL     1      -0.196   1.605  -0.215  0.00  0.00    +0.007 C 
ATOM     29  C   UNL     1      -0.207   0.075  -0.227  0.00  0.00    +0.038 C 
ENDBRANCH  27  29
ENDBRANCH  26  27
ENDBRANCH  20  26
ENDBRANCH   1  24
BRANCH  10  30
ATOM     30  C   UNL     1       0.498  -6.167  -5.645  0.00  0.00    +0.111 C 
BRANCH  30  31
ATOM     31  C   UNL     1       0.613  -4.852  -6.418  0.00  0.00    +0.047 C 
BRANCH  31  32
ATOM     32  C   UNL     1      -0.698  -4.580  -7.159  0.00  0.00    +0.157 C 
BRANCH  32  33
ATOM     33  O   UNL     1      -0.591  -3.352  -7.881  0.00  0.00    -0.395 OA
ATOM     34  H   UNL     1      -1.387  -3.115  -8.376  0.00  0.00    +0.209 HD
ENDBRANCH  32  33
ENDBRANCH  31  32
ENDBRANCH  30  31
ENDBRANCH  10  30
TORSDOF 10
