REMARK  Name = ZINC07315825
REMARK  7 active torsions:
REMARK  status: ('A' for Active; 'I' for Inactive)
REMARK    1  A    between atoms: C_1  and  C_2
REMARK    2  A    between atoms: C_13  and  C_15
REMARK    3  A    between atoms: C_15  and  C_16
REMARK    4  A    between atoms: C_16  and  O_18
REMARK    5  A    between atoms: O_18  and  C_19
REMARK    6  A    between atoms: C_19  and  C_20
REMARK    7  A    between atoms: C_23  and  C_25
REMARK                            x       y       z     vdW  Elec       q    Type
REMARK                         _______ _______ _______ _____ _____    ______ ____
ROOT
ATOM      1  C   UNL     1      -2.697   2.143  -2.498  0.00  0.00    +0.310 C 
ATOM      2  O   UNL     1      -3.463   1.826  -1.619  0.00  0.00    -0.251 OA
ENDROOT
BRANCH   1   3
ATOM      3  C   UNL     1      -1.416   2.860  -2.156  0.00  0.00    +0.148 C 
BRANCH   3  16
ATOM      4  C   UNL     1      -2.184  -0.114   1.317  0.00  0.00    +0.109 C 
ATOM      5  C   UNL     1      -2.296   1.225   0.635  0.00  0.00    +0.217 C 
ATOM      6  O   UNL     1      -3.351   1.823   0.642  0.00  0.00    -0.276 OA
ATOM      7  N   UNL     1      -1.223   1.758   0.017  0.00  0.00    -0.270 N 
ATOM      8  C   UNL     1      -0.013   1.076   0.008  0.00  0.00    +0.079 C 
ATOM      9  C   UNL     1       1.135   1.764   0.001  0.00  0.00    +0.023 C 
ATOM     10  C   UNL     1       1.092   3.239  -0.019  0.00  0.00    -0.019 A 
ATOM     11  C   UNL     1       2.240   3.991   0.226  0.00  0.00    +0.008 A 
ATOM     12  C   UNL     1       2.169   5.370   0.212  0.00  0.00    +0.001 A 
ATOM     13  C   UNL     1       0.967   6.003  -0.049  0.00  0.00    +0.000 A 
ATOM     14  C   UNL     1      -0.172   5.261  -0.311  0.00  0.00    +0.006 A 
ATOM     15  C   UNL     1      -0.113   3.885  -0.309  0.00  0.00    -0.019 A 
ATOM     16  C   UNL     1      -1.331   3.062  -0.642  0.00  0.00    +0.122 C 
ENDBRANCH   3  16
ENDBRANCH   1   3
BRANCH   1  17
ATOM     17  O   UNL     1      -2.986   1.857  -3.777  0.00  0.00    -0.455 OA
BRANCH  17  18
ATOM     18  C   UNL     1      -4.237   1.165  -4.031  0.00  0.00    +0.327 C 
BRANCH  18  19
ATOM     19  C   UNL     1      -4.389   0.931  -5.512  0.00  0.00    +0.234 A 
ATOM     20  N   UNL     1      -3.964  -0.117  -6.160  0.00  0.00    -0.218 NA
ATOM     21  C   UNL     1      -4.278   0.017  -7.457  0.00  0.00    +0.161 A 
ATOM     22  C   UNL     1      -4.915   1.207  -7.602  0.00  0.00    +0.155 A 
ATOM     23  O   UNL     1      -4.978   1.770  -6.375  0.00  0.00    -0.436 OA
BRANCH  22  24
ATOM     24  C   UNL     1      -5.439   1.778  -8.861  0.00  0.00    +0.019 A 
ATOM     25  C   UNL     1      -5.295   1.080 -10.061  0.00  0.00    +0.011 A 
ATOM     26  C   UNL     1      -5.792   1.615 -11.231  0.00  0.00    +0.001 A 
ATOM     27  C   UNL     1      -6.422   2.848 -11.219  0.00  0.00    +0.000 A 
ATOM     28  C   UNL     1      -6.563   3.547 -10.034  0.00  0.00    +0.001 A 
ATOM     29  C   UNL     1      -6.076   3.020  -8.856  0.00  0.00    +0.011 A 
ENDBRANCH  22  24
ENDBRANCH  18  19
ENDBRANCH  17  18
ENDBRANCH   1  17
TORSDOF 6
