REMARK  Name = ZINC04524483
REMARK  11 active torsions:
REMARK  status: ('A' for Active; 'I' for Inactive)
REMARK    1  A    between atoms: C_1  and  C_2
REMARK    2  A    between atoms: C_2  and  C_3
REMARK    3  A    between atoms: C_14  and  O_37
REMARK    4  A    between atoms: C_18  and  C_36
REMARK    5  A    between atoms: C_23  and  C_35
REMARK    6  A    between atoms: C_24  and  C_26
REMARK    7  A    between atoms: C_26  and  C_34
REMARK    8  A    between atoms: N_27  and  N_28
REMARK    9  A    between atoms: C_29  and  O_31
REMARK   10  A    between atoms: O_31  and  C_32
REMARK   11  A    between atoms: C_32  and  C_33
REMARK                            x       y       z     vdW  Elec       q    Type
REMARK                         _______ _______ _______ _____ _____    ______ ____
ROOT
ATOM      1  C   UNL     1      -1.199   1.107  -1.132  0.00  0.00    -0.002 C 
ATOM      2  C   UNL     1      -2.606   0.544  -1.479  0.00  0.00    +0.008 C 
ATOM      3  C   UNL     1      -2.370  -0.163  -2.825  0.00  0.00    -0.000 C 
ATOM      4  C   UNL     1      -3.584  -0.505  -3.632  0.00  0.00    +0.000 C 
ATOM      5  C   UNL     1      -4.855   0.225  -3.193  0.00  0.00    +0.031 C 
ATOM      6  C   UNL     1      -5.976  -0.273  -4.070  0.00  0.00    -0.027 C 
ATOM      7  C   UNL     1      -5.789  -0.759  -5.259  0.00  0.00    -0.065 C 
ATOM      8  C   UNL     1      -6.984  -1.288  -6.035  0.00  0.00    +0.062 C 
ATOM      9  C   UNL     1      -6.617  -2.683  -6.555  0.00  0.00    +0.119 C 
ATOM     10  C   UNL     1      -5.357  -3.193  -5.864  0.00  0.00    +0.032 C 
ATOM     11  C   UNL     1      -4.136  -2.333  -6.188  0.00  0.00    +0.014 C 
ATOM     12  C   UNL     1      -4.445  -0.862  -5.938  0.00  0.00    -0.008 C 
ATOM     13  C   UNL     1      -3.362  -0.174  -5.116  0.00  0.00    +0.003 C 
ATOM     14  C   UNL     1      -1.960  -0.597  -5.528  0.00  0.00    +0.005 C 
ATOM     15  C   UNL     1      -0.895   0.260  -4.825  0.00  0.00    +0.008 C 
ATOM     16  C   UNL     1      -1.428   0.830  -3.536  0.00  0.00    -0.021 C 
ATOM     17  C   UNL     1      -0.362   1.025  -2.433  0.00  0.00    +0.044 C 
ATOM     18  C   UNL     1      -2.071   2.200  -3.764  0.00  0.00    +0.012 C 
ATOM     19  C   UNL     1      -4.531  -0.144  -7.290  0.00  0.00    +0.016 C 
ENDROOT
BRANCH  17  20
ATOM     20  C   UNL     1       0.379   2.312  -2.664  0.00  0.00    +0.038 C 
ATOM     21  N   UNL     1       1.250   2.391  -3.599  0.00  0.00    -0.187 NA
ATOM     22  C   UNL     1       0.096   3.510  -1.795  0.00  0.00    +0.062 C 
BRANCH  21  23
ATOM     23  N   UNL     1       1.629   1.240  -4.302  0.00  0.00    -0.172 N 
ATOM     24  C   UNL     1       2.452   1.340  -5.364  0.00  0.00    +0.420 C 
ATOM     25  O   UNL     1       2.781   0.341  -5.974  0.00  0.00    -0.225 OA
ATOM     26  H   UNL     1       1.299   0.371  -4.024  0.00  0.00    +0.181 HD
BRANCH  24  27
ATOM     27  O   UNL     1       2.910   2.546  -5.750  0.00  0.00    -0.450 OA
BRANCH  27  28
ATOM     28  C   UNL     1       3.793   2.578  -6.903  0.00  0.00    +0.230 C 
ATOM     29  C   UNL     1       4.207   4.023  -7.188  0.00  0.00    +0.048 C 
ENDBRANCH  27  28
ENDBRANCH  24  27
ENDBRANCH  21  23
ENDBRANCH  17  20
BRANCH   1  31
ATOM     30  C   UNL     1      -1.341   0.414   1.264  0.00  0.00    +0.004 C 
ATOM     31  C   UNL     1      -0.552   0.257  -0.037  0.00  0.00    +0.001 C 
ENDBRANCH   1  31
BRANCH   9  32
ATOM     32  O   UNL     1      -6.411  -2.634  -7.968  0.00  0.00    -0.391 OA
ATOM     33  H   UNL     1      -7.177  -2.317  -8.466  0.00  0.00    +0.210 HD
ENDBRANCH   9  32
TORSDOF 6
