REMARK  Name = ZINC49455433
REMARK  2 active torsions:
REMARK  status: ('A' for Active; 'I' for Inactive)
REMARK    1  A    between atoms: C_6  and  N_7
REMARK    2  A    between atoms: C_8  and  C_19
REMARK                            x       y       z     vdW  Elec       q    Type
REMARK                         _______ _______ _______ _____ _____    ______ ____
ROOT
ATOM      1  C   UNL     1       0.004   1.505  -0.124  0.00  0.00    +0.025 A 
ATOM      2  C   UNL     1       1.181   2.185  -0.112  0.00  0.00    +0.028 A 
ATOM      3  C   UNL     1       2.399   1.482  -0.070  0.00  0.00    +0.049 A 
ATOM      4  C   UNL     1       2.378   0.065  -0.040  0.00  0.00    +0.014 A 
ATOM      5  C   UNL     1       1.158  -0.614  -0.053  0.00  0.00    +0.033 A 
ATOM      6  C   UNL     1      -0.020   0.106  -0.095  0.00  0.00    +0.025 A 
ATOM      7  C   UNL     1       3.653  -0.655   0.004  0.00  0.00    +0.075 A 
ATOM      8  C   UNL     1       4.814   0.107   0.013  0.00  0.00    +0.057 A 
ATOM      9  C   UNL     1       4.720   1.505  -0.018  0.00  0.00    +0.100 A 
ATOM     10  N   UNL     1       3.567   2.131  -0.057  0.00  0.00    -0.343 N 
ATOM     11  N   UNL     1       5.889   2.254  -0.008  0.00  0.00    -0.317 N 
ATOM     12  C   UNL     1       5.789   3.692   0.115  0.00  0.00    +0.106 C 
ATOM     13  C   UNL     1       5.671   4.326  -1.292  0.00  0.00    +0.019 C 
ATOM     14  C   UNL     1       6.954   4.229  -2.006  0.00  0.00    +0.002 C 
ATOM     15  C   UNL     1       7.417   2.800  -2.274  0.00  0.00    +0.002 C 
ATOM     16  C   UNL     1       8.156   2.279  -1.066  0.00  0.00    +0.019 C 
ATOM     17  C   UNL     1       7.182   1.551  -0.117  0.00  0.00    +0.106 C 
ATOM     18  H   UNL     1       3.562   3.101  -0.078  0.00  0.00    +0.167 HD
ENDROOT
BRANCH   6  19
ATOM     19  N   UNL     1      -1.242  -0.566  -0.108  0.00  0.00    -0.358 N 
ATOM     20  H   UNL     1      -2.072  -0.064  -0.137  0.00  0.00    +0.142 HD
ATOM     21  H   UNL     1      -1.263  -1.536  -0.087  0.00  0.00    +0.142 HD
ENDBRANCH   6  19
BRANCH   7  22
ATOM     22  C   UNL     1       3.701  -2.129   0.037  0.00  0.00    +0.387 C 
ATOM     23  O   UNL     1       4.776  -2.708  -0.036  0.00  0.00    -0.241 OA
ATOM     24  O   UNL     1       2.666  -2.773   0.137  0.00  0.00    -0.241 OA
ENDBRANCH   7  22
TORSDOF 2
