REMARK  Name = ZINC20077787
REMARK  4 active torsions:
REMARK  status: ('A' for Active; 'I' for Inactive)
REMARK    1  A    between atoms: C_1  and  C_2
REMARK    2  A    between atoms: C_5  and  O_9
REMARK    3  A    between atoms: O_9  and  C_10
REMARK    4  A    between atoms: C_15  and  N_16
REMARK                            x       y       z     vdW  Elec       q    Type
REMARK                         _______ _______ _______ _____ _____    ______ ____
ROOT
ATOM      1  C   UNL     1      -3.508   2.666   0.026  0.00  0.00    +0.153 A 
ATOM      2  C   UNL     1      -3.371   4.044  -0.026  0.00  0.00    +0.097 A 
ATOM      3  C   UNL     1      -4.496   4.856  -0.023  0.00  0.00    +0.166 A 
ATOM      4  C   UNL     1      -5.763   4.287   0.029  0.00  0.00    +0.164 A 
ATOM      5  C   UNL     1      -5.901   2.908   0.082  0.00  0.00    +0.075 A 
ATOM      6  C   UNL     1      -4.777   2.095   0.074  0.00  0.00    +0.071 A 
ATOM      7  O   UNL     1      -6.878   5.069   0.028  0.00  0.00    -0.485 OA
ATOM      8  C   UNL     1      -6.696   6.451   0.353  0.00  0.00    +0.270 C 
ATOM      9  C   UNL     1      -5.492   6.976  -0.441  0.00  0.00    +0.270 C 
ATOM     10  O   UNL     1      -4.341   6.208  -0.070  0.00  0.00    -0.485 OA
ENDROOT
BRANCH   6  11
ATOM     11  N   UNL     1      -4.918   0.702   0.122  0.00  0.00    -0.355 N 
ATOM     12  H   UNL     1      -5.921   0.251   0.160  0.00  0.00    +0.142 HD
ATOM     13  H   UNL     1      -4.026   0.058   0.120  0.00  0.00    +0.142 HD
ENDBRANCH   6  11
BRANCH   1  14
ATOM     14  O   UNL     1      -2.403   1.872   0.023  0.00  0.00    -0.453 OA
BRANCH  14  19
ATOM     15  C   UNL     1      -0.616  -0.152  -4.920  0.00  0.00    +0.044 C 
ATOM     16  C   UNL     1      -1.091   0.392  -3.598  0.00  0.00    -0.049 A 
ATOM     17  C   UNL     1      -2.142   1.290  -3.559  0.00  0.00    +0.007 A 
ATOM     18  C   UNL     1      -2.580   1.791  -2.348  0.00  0.00    +0.047 A 
ATOM     19  C   UNL     1      -1.970   1.386  -1.170  0.00  0.00    +0.142 A 
ATOM     20  C   UNL     1      -0.911   0.489  -1.212  0.00  0.00    +0.060 A 
ATOM     21  C   UNL     1      -0.477  -0.008  -2.426  0.00  0.00    +0.022 A 
ATOM     22 BR   UNL     1      -0.071  -0.060   0.391  0.00  0.00    -0.046 Br
ENDBRANCH  14  19
ENDBRANCH   1  14
TORSDOF 3
