REMARK  Name = ZINC64815858
REMARK  8 active torsions:
REMARK  status: ('A' for Active; 'I' for Inactive)
REMARK    1  A    between atoms: C_1  and  C_2
REMARK    2  A    between atoms: C_2  and  C_24
REMARK    3  A    between atoms: C_7  and  C_9
REMARK    4  A    between atoms: N_16  and  C_17
REMARK    5  A    between atoms: N_26  and  C_27
REMARK    6  A    between atoms: C_27  and  C_28
REMARK    7  A    between atoms: C_27  and  C_29
REMARK    8  A    between atoms: C_27  and  C_30
REMARK                            x       y       z     vdW  Elec       q    Type
REMARK                         _______ _______ _______ _____ _____    ______ ____
ROOT
ATOM      1  C   UNL     1      -0.469   1.436  -0.200  0.00  0.00    +0.044 C 
ATOM      2  C   UNL     1      -0.165  -0.058  -0.071  0.00  0.00    +0.135 C 
ATOM      3  C   UNL     1      -1.478  -0.814   0.119  0.00  0.00    +0.179 C 
ATOM      4  N   UNL     1      -1.982  -0.578   1.478  0.00  0.00    -0.256 N 
ATOM      5  C   UNL     1      -1.119  -0.342   2.527  0.00  0.00    +0.125 A 
ATOM      6  C   UNL     1      -1.879  -0.189   3.649  0.00  0.00    +0.063 A 
ATOM      7  C   UNL     1      -3.214  -0.332   3.209  0.00  0.00    +0.100 A 
ATOM      8  N   UNL     1      -3.183  -0.556   1.907  0.00  0.00    -0.170 NA
ATOM      9  C   UNL     1       0.337  -0.278   2.323  0.00  0.00    +0.270 C 
ATOM     10  O   UNL     1       1.115  -0.246   3.257  0.00  0.00    -0.268 OA
ATOM     11  N   UNL     1       0.763  -0.256   1.037  0.00  0.00    -0.250 N 
ENDROOT
BRANCH  11  12
ATOM     12  C   UNL     1       2.124  -0.428   0.765  0.00  0.00    +0.038 A 
ATOM     13  C   UNL     1       2.860   0.611   0.210  0.00  0.00    +0.025 A 
ATOM     14  C   UNL     1       4.204   0.438  -0.057  0.00  0.00    +0.022 A 
ATOM     15  C   UNL     1       4.818  -0.769   0.229  0.00  0.00    +0.041 A 
ATOM     16  C   UNL     1       4.088  -1.806   0.782  0.00  0.00    +0.022 A 
ATOM     17  C   UNL     1       2.745  -1.637   1.056  0.00  0.00    +0.025 A 
ATOM     18 CL   UNL     1       6.507  -0.982  -0.108  0.00  0.00    -0.084 Cl
ENDBRANCH  11  12
BRANCH   7  19
ATOM     19  C   UNL     1      -4.427  -0.246   4.052  0.00  0.00    +0.039 A 
ATOM     20  C   UNL     1      -5.740  -0.380   3.691  0.00  0.00    +0.018 A 
ATOM     21  C   UNL     1      -6.710  -0.258   4.662  0.00  0.00    +0.008 A 
ATOM     22  C   UNL     1      -6.336  -0.010   5.943  0.00  0.00    +0.046 A 
ATOM     23  S   UNL     1      -4.557   0.052   5.808  0.00  0.00    -0.095 S 
ENDBRANCH   7  19
BRANCH   2  24
ATOM     24  C   UNL     1       0.488  -0.533  -1.344  0.00  0.00    +0.239 C 
ATOM     25  O   UNL     1       0.390   0.125  -2.358  0.00  0.00    -0.273 OA
ATOM     26  N   UNL     1       1.180  -1.689  -1.355  0.00  0.00    -0.309 N 
ATOM     27  H   UNL     1       1.202  -2.249  -0.564  0.00  0.00    +0.149 HD
BRANCH  26  28
ATOM     28  C   UNL     1       1.901  -2.100  -2.563  0.00  0.00    +0.026 C 
ATOM     29  C   UNL     1       2.902  -1.011  -2.955  0.00  0.00    +0.031 C 
ATOM     30  C   UNL     1       2.649  -3.407  -2.291  0.00  0.00    +0.031 C 
ATOM     31  C   UNL     1       0.904  -2.311  -3.704  0.00  0.00    +0.031 C 
ENDBRANCH  26  28
ENDBRANCH   2  24
TORSDOF 4
