REMARK  Name = ZINC54910847
REMARK  5 active torsions:
REMARK  status: ('A' for Active; 'I' for Inactive)
REMARK    1  A    between atoms: C_1  and  C_2
REMARK    2  A    between atoms: C_2  and  C_3
REMARK    3  A    between atoms: C_15  and  O_22
REMARK    4  A    between atoms: C_18  and  C_20
REMARK    5  A    between atoms: C_18  and  C_21
REMARK                            x       y       z     vdW  Elec       q    Type
REMARK                         _______ _______ _______ _____ _____    ______ ____
ROOT
ATOM      1  C   UNL     1      -2.208  -1.643  -1.521  0.00  0.00    +0.075 C 
ATOM      2  C   UNL     1      -3.615  -2.248  -1.538  0.00  0.00    +0.022 C 
ATOM      3  C   UNL     1      -4.370  -1.810  -0.281  0.00  0.00    +0.003 C 
ATOM      4  C   UNL     1      -4.500  -0.285  -0.267  0.00  0.00    +0.019 C 
ATOM      5  C   UNL     1      -3.103   0.342  -0.236  0.00  0.00    +0.107 C 
ATOM      6  N   UNL     1      -2.318  -0.187  -1.361  0.00  0.00    -0.307 N 
ATOM      7  C   UNL     1      -1.698   0.672  -2.255  0.00  0.00    +0.161 A 
ATOM      8  N   UNL     1      -2.147   1.115  -3.409  0.00  0.00    -0.229 NA
ATOM      9  C   UNL     1      -1.435   1.944  -4.169  0.00  0.00    +0.057 A 
ATOM     10  C   UNL     1      -0.225   2.287  -3.660  0.00  0.00    +0.043 A 
ATOM     11  S   UNL     1      -0.187   1.406  -2.125  0.00  0.00    -0.054 S 
ATOM     12  C   UNL     1       0.795   3.191  -4.266  0.00  0.00    +0.153 C 
ATOM     13  C   UNL     1       0.123   3.980  -5.401  0.00  0.00    +0.043 C 
ATOM     14  C   UNL     1      -0.672   3.007  -6.276  0.00  0.00    -0.027 C 
ATOM     15  C   UNL     1      -1.894   2.492  -5.513  0.00  0.00    +0.063 C 
ATOM     16  C   UNL     1      -1.133   3.726  -7.545  0.00  0.00    +0.011 C 
ATOM     17  C   UNL     1       0.221   1.826  -6.661  0.00  0.00    +0.011 C 
ENDROOT
BRANCH   1  19
ATOM     18  C   UNL     1      -1.266  -3.470  -2.942  0.00  0.00    +0.006 C 
ATOM     19  C   UNL     1      -1.497  -1.961  -2.838  0.00  0.00    +0.019 C 
ENDBRANCH   1  19
BRANCH  12  20
ATOM     20  O   UNL     1       1.287   4.095  -3.274  0.00  0.00    -0.387 OA
ATOM     21  H   UNL     1       1.706   3.660  -2.519  0.00  0.00    +0.210 HD
ENDBRANCH  12  20
TORSDOF 2
