REMARK  Name = ZINC62934713
REMARK  7 active torsions:
REMARK  status: ('A' for Active; 'I' for Inactive)
REMARK    1  A    between atoms: C_1  and  C_2
REMARK    2  A    between atoms: C_4  and  C_8
REMARK    3  A    between atoms: C_5  and  C_7
REMARK    4  A    between atoms: C_8  and  C_10
REMARK    5  A    between atoms: C_8  and  N_11
REMARK    6  A    between atoms: C_17  and  C_19
REMARK    7  A    between atoms: C_17  and  C_20
REMARK                            x       y       z     vdW  Elec       q    Type
REMARK                         _______ _______ _______ _____ _____    ______ ____
ROOT
ATOM      1  N   UNL     1      -2.752  -3.099  -0.586  0.00  0.00    -0.293 N 
ATOM      2  C   UNL     1      -3.473  -4.086  -1.154  0.00  0.00    +0.303 C 
ATOM      3  O   UNL     1      -3.031  -5.219  -1.188  0.00  0.00    -0.253 OA
ATOM      4  N   UNL     1      -4.682  -3.818  -1.684  0.00  0.00    -0.285 N 
ATOM      5  C   UNL     1      -5.332  -2.496  -1.716  0.00  0.00    +0.110 C 
ATOM      6  C   UNL     1      -6.322  -2.569  -2.906  0.00  0.00    +0.038 C 
ATOM      7  C   UNL     1      -6.825  -4.033  -2.803  0.00  0.00    +0.086 C 
ATOM      8  C   UNL     1      -5.569  -4.796  -2.331  0.00  0.00    +0.127 C 
ATOM      9  C   UNL     1      -7.952  -4.146  -1.774  0.00  0.00    +0.024 C 
ATOM     10  H   UNL     1      -3.105  -2.196  -0.558  0.00  0.00    +0.151 HD
ENDROOT
BRANCH   7  11
ATOM     11  C   UNL     1      -7.278  -4.538  -4.149  0.00  0.00    +0.363 C 
ATOM     12  O   UNL     1      -7.186  -5.723  -4.418  0.00  0.00    -0.246 OA
ATOM     13  O   UNL     1      -7.735  -3.760  -4.969  0.00  0.00    -0.246 OA
ENDBRANCH   7  11
BRANCH   1  14
ATOM     14  C   UNL     1      -1.437  -3.390  -0.009  0.00  0.00    +0.105 C 
ATOM     15  C   UNL     1      -1.609  -3.892   1.426  0.00  0.00    +0.033 C 
BRANCH  14  19
ATOM     16  C   UNL     1      -0.018   1.503   0.010  0.00  0.00    +0.086 C 
ATOM     17  C   UNL     1       0.002  -0.004   0.002  0.00  0.00    +0.103 A 
ATOM     18  C   UNL     1      -1.078  -0.805   0.003  0.00  0.00    +0.050 A 
ATOM     19  C   UNL     1      -0.601  -2.136  -0.007  0.00  0.00    +0.013 A 
ATOM     20  C   UNL     1       0.742  -2.069  -0.013  0.00  0.00    +0.107 A 
ATOM     21  O   UNL     1       1.102  -0.775  -0.013  0.00  0.00    -0.465 OA
ATOM     22  C   UNL     1       1.684  -3.245  -0.023  0.00  0.00    +0.086 C 
ENDBRANCH  14  19
ENDBRANCH   1  14
TORSDOF 3
