REMARK  Name = ZINC39776479
REMARK  8 active torsions:
REMARK  status: ('A' for Active; 'I' for Inactive)
REMARK    1  A    between atoms: C_1  and  C_2
REMARK    2  A    between atoms: C_2  and  C_3
REMARK    3  A    between atoms: C_3  and  C_5
REMARK    4  A    between atoms: C_3  and  C_6
REMARK    5  A    between atoms: C_6  and  C_8
REMARK    6  A    between atoms: C_6  and  N_25
REMARK    7  A    between atoms: C_13  and  C_16
REMARK    8  A    between atoms: C_26  and  C_28
REMARK                            x       y       z     vdW  Elec       q    Type
REMARK                         _______ _______ _______ _____ _____    ______ ____
ROOT
ATOM      1  C   UNL     1       0.461  -0.839   3.574  0.00  0.00    +0.236 C 
ATOM      2  O   UNL     1       0.699  -0.145   4.540  0.00  0.00    -0.274 OA
ATOM      3  N   UNL     1       0.729  -2.159   3.610  0.00  0.00    -0.296 N 
ATOM      4  C   UNL     1       1.197  -2.812   4.844  0.00  0.00    +0.113 C 
ATOM      5  C   UNL     1       0.148  -3.845   5.261  0.00  0.00    +0.054 C 
ATOM      6  C   UNL     1      -0.284  -4.659   4.077  0.00  0.00    -0.043 C 
ATOM      7  C   UNL     1      -0.109  -4.289   2.814  0.00  0.00    -0.004 C 
ATOM      8  C   UNL     1       0.559  -3.005   2.420  0.00  0.00    +0.135 C 
ENDROOT
BRANCH   6   9
ATOM      9  C   UNL     1      -0.915  -5.896   4.322  0.00  0.00    -0.016 C 
ATOM     10  C   UNL     1      -1.292  -6.418   5.553  0.00  0.00    +0.003 A 
ATOM     11  C   UNL     1      -1.180  -5.925   6.874  0.00  0.00    +0.010 A 
ATOM     12  C   UNL     1      -1.645  -6.667   7.909  0.00  0.00    +0.001 A 
ATOM     13  C   UNL     1      -2.239  -7.917   7.707  0.00  0.00    +0.002 A 
ATOM     14  C   UNL     1      -2.380  -8.452   6.471  0.00  0.00    +0.026 A 
ATOM     15  C   UNL     1      -1.917  -7.735   5.335  0.00  0.00    +0.043 A 
ATOM     16  N   UNL     1      -1.935  -8.029   4.053  0.00  0.00    -0.380 N 
ATOM     17  C   UNL     1      -1.328  -6.929   3.297  0.00  0.00    +0.149 C 
ATOM     18  H   UNL     1      -2.296  -8.843   3.669  0.00  0.00    +0.160 HD
ENDBRANCH   6   9
BRANCH   1  19
ATOM     19  C   UNL     1      -0.134  -0.224   2.333  0.00  0.00    +0.162 C 
BRANCH  19  20
ATOM     20  N   UNL     1      -0.448   1.184   2.588  0.00  0.00    -0.300 N 
ATOM     21  C   UNL     1      -1.490   1.766   1.962  0.00  0.00    +0.245 C 
ATOM     22  O   UNL     1      -2.224   1.101   1.258  0.00  0.00    -0.270 OA
ATOM     23  H   UNL     1       0.094   1.697   3.208  0.00  0.00    +0.150 HD
BRANCH  21  24
ATOM     24  C   UNL     1      -1.740   3.213   2.133  0.00  0.00    +0.037 A 
ATOM     25  C   UNL     1      -0.895   3.981   2.937  0.00  0.00    +0.013 A 
ATOM     26  C   UNL     1      -1.134   5.331   3.091  0.00  0.00    +0.001 A 
ATOM     27  C   UNL     1      -2.208   5.924   2.451  0.00  0.00    +0.000 A 
ATOM     28  C   UNL     1      -3.049   5.169   1.653  0.00  0.00    +0.001 A 
ATOM     29  C   UNL     1      -2.818   3.819   1.486  0.00  0.00    +0.013 A 
ENDBRANCH  21  24
ENDBRANCH  19  20
BRANCH  19  30
ATOM     30  C   UNL     1       0.871  -0.322   1.183  0.00  0.00    +0.015 C 
ATOM     31  C   UNL     1       0.208   0.146  -0.114  0.00  0.00    +0.010 C 
BRANCH  30  33
ATOM     32  C   UNL     1       2.885  -0.046   2.636  0.00  0.00    +0.004 C 
ATOM     33  C   UNL     1       2.081   0.564   1.486  0.00  0.00    +0.002 C 
ENDBRANCH  30  33
ENDBRANCH  19  30
ENDBRANCH   1  19
TORSDOF 6
