REMARK  Name = ZINC36061133
REMARK  16 active torsions:
REMARK  status: ('A' for Active; 'I' for Inactive)
REMARK    1  A    between atoms: C_1  and  C_2
REMARK    2  A    between atoms: C_3  and  C_30
REMARK    3  A    between atoms: C_4  and  C_20
REMARK    4  A    between atoms: C_7  and  C_12
REMARK    5  A    between atoms: C_13  and  N_15
REMARK    6  A    between atoms: N_15  and  C_16
REMARK    7  A    between atoms: C_16  and  C_17
REMARK    8  A    between atoms: C_23  and  O_28
REMARK    9  A    between atoms: C_25  and  O_26
REMARK   10  A    between atoms: O_26  and  C_27
REMARK   11  A    between atoms: O_28  and  C_29
REMARK   12  A    between atoms: C_30  and  O_32
REMARK   13  A    between atoms: O_32  and  C_33
REMARK   14  A    between atoms: C_33  and  C_34
REMARK   15  A    between atoms: C_34  and  O_35
REMARK   16  A    between atoms: O_35  and  C_36
REMARK                            x       y       z     vdW  Elec       q    Type
REMARK                         _______ _______ _______ _____ _____    ______ ____
ROOT
ATOM      1  C   UNL     1       0.478   1.450   0.394  0.00  0.00    +0.066 C 
ATOM      2  C   UNL     1       0.251  -0.040   0.407  0.00  0.00    +0.053 C 
ATOM      3  C   UNL     1      -1.027  -0.540   0.247  0.00  0.00    +0.083 C 
ATOM      4  C   UNL     1      -1.204  -2.042   0.267  0.00  0.00    +0.153 C 
ATOM      5  N   UNL     1       0.019  -2.865   0.458  0.00  0.00    -0.267 N 
ATOM      6  C   UNL     1       0.095  -4.243   0.508  0.00  0.00    +0.048 C 
ATOM      7  C   UNL     1       1.313  -4.798   0.691  0.00  0.00    +0.072 C 
ATOM      8  S   UNL     1       2.361  -3.361   0.793  0.00  0.00    -0.060 S 
ATOM      9  C   UNL     1       1.190  -2.174   0.598  0.00  0.00    +0.166 C 
ATOM     10  N   UNL     1       1.276  -0.860   0.567  0.00  0.00    -0.230 NA
ENDROOT
BRANCH   4  11
ATOM     11  C   UNL     1      -1.838  -2.452  -1.038  0.00  0.00    +0.020 A 
ATOM     12  C   UNL     1      -3.170  -2.820  -1.073  0.00  0.00    +0.013 A 
ATOM     13  C   UNL     1      -3.754  -3.196  -2.267  0.00  0.00    +0.046 A 
ATOM     14  C   UNL     1      -3.004  -3.205  -3.435  0.00  0.00    +0.124 A 
ATOM     15  C   UNL     1      -1.669  -2.835  -3.403  0.00  0.00    +0.091 A 
ATOM     16  C   UNL     1      -1.086  -2.453  -2.204  0.00  0.00    +0.129 A 
BRANCH  16  17
ATOM     17  O   UNL     1       0.221  -2.085  -2.170  0.00  0.00    -0.495 OA
ATOM     18  C   UNL     1       0.906  -2.007  -3.422  0.00  0.00    +0.277 C 
ENDBRANCH  16  17
BRANCH  14  19
ATOM     19  O   UNL     1      -3.579  -3.575  -4.609  0.00  0.00    -0.495 OA
ATOM     20  C   UNL     1      -4.959  -3.944  -4.568  0.00  0.00    +0.277 C 
ENDBRANCH  14  19
ENDBRANCH   4  11
BRANCH   6  21
ATOM     21  C   UNL     1      -1.108  -5.077   0.368  0.00  0.00    +0.091 C 
ATOM     22  C   UNL     1      -1.029  -6.408   0.554  0.00  0.00    +0.239 C 
ATOM     23  O   UNL     1       0.176  -6.995   0.756  0.00  0.00    -0.271 OA
BRANCH  22  24
ATOM     24  N   UNL     1      -2.180  -7.178   0.538  0.00  0.00    -0.312 N 
ATOM     25  H   UNL     1      -3.042  -6.759   0.393  0.00  0.00    +0.149 HD
BRANCH  24  26
ATOM     26  C   UNL     1      -2.095  -8.627   0.740  0.00  0.00    +0.108 C 
BRANCH  26  27
ATOM     27  C   UNL     1      -3.498  -9.234   0.676  0.00  0.00    +0.006 C 
ATOM     28  C   UNL     1      -3.789 -10.222  -0.455  0.00  0.00    +0.005 C 
ATOM     29  C   UNL     1      -3.636 -10.727   0.981  0.00  0.00    +0.005 C 
ENDBRANCH  26  27
ENDBRANCH  24  26
ENDBRANCH  22  24
ENDBRANCH   6  21
BRANCH   3  30
ATOM     30  C   UNL     1      -2.122   0.315   0.072  0.00  0.00    +0.339 C 
ATOM     31  O   UNL     1      -1.968   1.522   0.134  0.00  0.00    -0.245 OA
BRANCH  30  32
ATOM     32  O   UNL     1      -3.350  -0.199  -0.165  0.00  0.00    -0.459 OA
BRANCH  32  33
ATOM     33  C   UNL     1      -4.399   0.731  -0.442  0.00  0.00    +0.260 C 
BRANCH  33  34
ATOM     34  C   UNL     1      -5.727  -0.020  -0.559  0.00  0.00    +0.200 C 
BRANCH  34  35
ATOM     35  O   UNL     1      -6.074  -0.576   0.712  0.00  0.00    -0.380 OA
ATOM     36  C   UNL     1      -7.245  -1.394   0.688  0.00  0.00    +0.194 C 
ENDBRANCH  34  35
ENDBRANCH  33  34
ENDBRANCH  32  33
ENDBRANCH  30  32
ENDBRANCH   3  30
TORSDOF 12
