REMARK  Name = ZINC02720706
REMARK  6 active torsions:
REMARK  status: ('A' for Active; 'I' for Inactive)
REMARK    1  A    between atoms: C_1  and  C_2
REMARK    2  A    between atoms: C_4  and  C_33
REMARK    3  A    between atoms: C_6  and  N_8
REMARK    4  A    between atoms: C_22  and  S_23
REMARK    5  A    between atoms: S_23  and  C_24
REMARK    6  A    between atoms: C_24  and  C_25
REMARK                            x       y       z     vdW  Elec       q    Type
REMARK                         _______ _______ _______ _____ _____    ______ ____
ROOT
ATOM      1  N   UNL     1       3.364   2.532  -0.015  0.00  0.00    -0.254 N 
ATOM      2  C   UNL     1       2.511   1.607  -0.505  0.00  0.00    +0.283 A 
ATOM      3  O   UNL     1       2.928   0.555  -0.960  0.00  0.00    -0.265 OA
ATOM      4  C   UNL     1       1.128   1.883  -0.479  0.00  0.00    +0.132 A 
ATOM      5  C   UNL     1       0.703   3.099   0.052  0.00  0.00    +0.104 A 
ATOM      6  C   UNL     1      -0.763   3.109  -0.050  0.00  0.00    +0.026 A 
ATOM      7  C   UNL     1      -1.745   4.035   0.306  0.00  0.00    +0.012 A 
ATOM      8  C   UNL     1      -3.063   3.751   0.079  0.00  0.00    +0.001 A 
ATOM      9  C   UNL     1      -3.433   2.547  -0.504  0.00  0.00    +0.002 A 
ATOM     10  C   UNL     1      -2.480   1.619  -0.863  0.00  0.00    +0.026 A 
ATOM     11  C   UNL     1      -1.131   1.890  -0.645  0.00  0.00    +0.049 A 
ATOM     12  N   UNL     1       0.016   1.165  -0.891  0.00  0.00    -0.349 N 
ATOM     13  H   UNL     1       0.041   0.285  -1.296  0.00  0.00    +0.166 HD
ATOM     14  N   UNL     1       1.604   3.976   0.523  0.00  0.00    -0.221 NA
ATOM     15  C   UNL     1       2.890   3.708   0.493  0.00  0.00    +0.177 A 
ENDROOT
BRANCH   1  21
ATOM     16  C   UNL     1       7.365   0.734   2.208  0.00  0.00    +0.044 C 
ATOM     17  C   UNL     1       6.708   1.415   1.036  0.00  0.00    -0.048 A 
ATOM     18  C   UNL     1       7.466   1.797  -0.056  0.00  0.00    +0.006 A 
ATOM     19  C   UNL     1       6.867   2.422  -1.133  0.00  0.00    -0.048 A 
ATOM     20  C   UNL     1       5.508   2.667  -1.123  0.00  0.00    +0.029 A 
ATOM     21  C   UNL     1       4.743   2.285  -0.029  0.00  0.00    +0.052 A 
ATOM     22  C   UNL     1       5.349   1.662   1.054  0.00  0.00    +0.029 A 
ATOM     23  C   UNL     1       7.697   2.837  -2.321  0.00  0.00    +0.044 C 
ENDBRANCH   1  21
BRANCH  15  24
ATOM     24  S   UNL     1       4.030   4.894   1.125  0.00  0.00    -0.078 S 
BRANCH  24  25
ATOM     25  C   UNL     1       2.880   6.193   1.640  0.00  0.00    +0.173 C 
BRANCH  25  26
ATOM     26  C   UNL     1       3.653   7.345   2.228  0.00  0.00    +0.229 C 
ATOM     27  O   UNL     1       4.863   7.292   2.293  0.00  0.00    -0.275 OA
ATOM     28  N   UNL     1       3.000   8.432   2.683  0.00  0.00    -0.264 N 
ATOM     29  C   UNL     1       3.714   9.495   3.226  0.00  0.00    +0.164 A 
ATOM     30  N   UNL     1       5.017   9.622   3.387  0.00  0.00    -0.233 NA
ATOM     31  C   UNL     1       5.536  10.710   3.921  0.00  0.00    +0.120 A 
ATOM     32  C   UNL     1       4.698  11.699   4.316  0.00  0.00    +0.068 A 
ATOM     33  S   UNL     1       3.118  10.992   3.873  0.00  0.00    -0.061 S 
ATOM     34  H   UNL     1       2.033   8.474   2.631  0.00  0.00    +0.157 HD
ENDBRANCH  25  26
ENDBRANCH  24  25
ENDBRANCH  15  24
TORSDOF 4
