REMARK  Name = ZINC36600913
REMARK  14 active torsions:
REMARK  status: ('A' for Active; 'I' for Inactive)
REMARK    1  A    between atoms: C_1  and  C_2
REMARK    2  A    between atoms: C_5  and  C_7
REMARK    3  A    between atoms: C_7  and  N_8
REMARK    4  A    between atoms: N_8  and  C_9
REMARK    5  A    between atoms: C_9  and  C_11
REMARK    6  A    between atoms: C_9  and  C_18
REMARK    7  A    between atoms: C_16  and  O_17
REMARK    8  A    between atoms: N_20  and  C_21
REMARK    9  A    between atoms: C_21  and  C_22
REMARK   10  A    between atoms: C_21  and  C_23
REMARK   11  A    between atoms: C_21  and  C_24
REMARK   12  A    between atoms: C_25  and  C_27
REMARK   13  A    between atoms: C_27  and  N_28
REMARK   14  A    between atoms: C_29  and  C_31
REMARK                            x       y       z     vdW  Elec       q    Type
REMARK                         _______ _______ _______ _____ _____    ______ ____
ROOT
ATOM      1  N   UNL     1       1.972  -3.877  -1.386  0.00  0.00    -0.277 N 
ATOM      2  C   UNL     1       1.090  -4.678  -2.018  0.00  0.00    +0.234 C 
ATOM      3  O   UNL     1       1.180  -4.854  -3.214  0.00  0.00    -0.274 OA
ENDROOT
BRANCH   1   4
ATOM      4  C   UNL     1       1.863  -3.664   0.059  0.00  0.00    +0.183 C 
BRANCH   4   9
ATOM      5  C   UNL     1       0.618   1.120   1.062  0.00  0.00    +0.086 C 
ATOM      6  C   UNL     1       0.496  -0.351   0.760  0.00  0.00    +0.102 A 
ATOM      7  C   UNL     1      -0.656  -1.035   0.635  0.00  0.00    +0.045 A 
ATOM      8  C   UNL     1      -0.307  -2.376   0.354  0.00  0.00    +0.046 A 
ATOM      9  C   UNL     1       1.037  -2.431   0.324  0.00  0.00    +0.122 A 
ATOM     10  O   UNL     1       1.518  -1.200   0.565  0.00  0.00    -0.463 OA
ENDBRANCH   4   9
ENDBRANCH   1   4
BRANCH   1  11
ATOM     11  C   UNL     1       3.039  -3.221  -2.145  0.00  0.00    +0.196 C 
BRANCH  11  12
ATOM     12  C   UNL     1       2.441  -2.469  -3.306  0.00  0.00    +0.023 A 
ATOM     13  C   UNL     1       2.488  -3.007  -4.577  0.00  0.00    +0.009 A 
ATOM     14  C   UNL     1       1.940  -2.318  -5.643  0.00  0.00    +0.001 A 
ATOM     15  C   UNL     1       1.342  -1.088  -5.439  0.00  0.00    +0.004 A 
ATOM     16  C   UNL     1       1.291  -0.545  -4.170  0.00  0.00    +0.046 A 
ATOM     17  C   UNL     1       1.836  -1.237  -3.098  0.00  0.00    +0.122 A 
BRANCH  17  18
ATOM     18  O   UNL     1       1.783  -0.708  -1.847  0.00  0.00    -0.506 OA
ATOM     19  H   UNL     1       2.501  -0.091  -1.651  0.00  0.00    +0.292 HD
ENDBRANCH  17  18
ENDBRANCH  11  12
BRANCH  11  20
ATOM     20  C   UNL     1       4.000  -4.260  -2.662  0.00  0.00    +0.239 C 
ATOM     21  O   UNL     1       3.717  -5.437  -2.589  0.00  0.00    -0.273 OA
ATOM     22  N   UNL     1       5.175  -3.881  -3.205  0.00  0.00    -0.309 N 
ATOM     23  H   UNL     1       5.431  -2.946  -3.201  0.00  0.00    +0.149 HD
BRANCH  22  24
ATOM     24  C   UNL     1       6.063  -4.882  -3.800  0.00  0.00    +0.026 C 
ATOM     25  C   UNL     1       5.338  -5.590  -4.946  0.00  0.00    +0.031 C 
ATOM     26  C   UNL     1       7.318  -4.194  -4.340  0.00  0.00    +0.031 C 
ATOM     27  C   UNL     1       6.461  -5.908  -2.737  0.00  0.00    +0.031 C 
ENDBRANCH  22  24
ENDBRANCH  11  20
ENDBRANCH   1  11
BRANCH   2  28
ATOM     28  C   UNL     1      -0.008  -5.353  -1.237  0.00  0.00    +0.200 C 
BRANCH  28  29
ATOM     29  N   UNL     1      -0.826  -6.161  -2.144  0.00  0.00    -0.303 N 
ATOM     30  C   UNL     1      -1.874  -6.860  -1.665  0.00  0.00    +0.244 C 
ATOM     31  O   UNL     1      -2.140  -6.820  -0.479  0.00  0.00    -0.270 OA
ATOM     32  H   UNL     1      -0.613  -6.194  -3.090  0.00  0.00    +0.150 HD
BRANCH  30  33
ATOM     33  C   UNL     1      -2.699  -7.676  -2.580  0.00  0.00    +0.037 A 
ATOM     34  C   UNL     1      -2.393  -7.730  -3.941  0.00  0.00    +0.013 A 
ATOM     35  C   UNL     1      -3.167  -8.493  -4.790  0.00  0.00    +0.001 A 
ATOM     36  C   UNL     1      -4.245  -9.205  -4.295  0.00  0.00    +0.000 A 
ATOM     37  C   UNL     1      -4.555  -9.156  -2.948  0.00  0.00    +0.001 A 
ATOM     38  C   UNL     1      -3.785  -8.401  -2.087  0.00  0.00    +0.013 A 
ENDBRANCH  30  33
ENDBRANCH  28  29
ENDBRANCH   2  28
TORSDOF 10
