REMARK  Name = ZINC07153839
REMARK  7 active torsions:
REMARK  status: ('A' for Active; 'I' for Inactive)
REMARK    1  A    between atoms: C_1  and  C_2
REMARK    2  A    between atoms: C_2  and  N_3
REMARK    3  A    between atoms: C_11  and  S_12
REMARK    4  A    between atoms: S_12  and  C_13
REMARK    5  A    between atoms: C_13  and  C_14
REMARK    6  A    between atoms: C_23  and  O_26
REMARK    7  A    between atoms: C_24  and  C_25
REMARK                            x       y       z     vdW  Elec       q    Type
REMARK                         _______ _______ _______ _____ _____    ______ ____
ROOT
ATOM      1  C   UNL     1      -3.083  -1.039   5.005  0.00  0.00    -0.020 A 
ATOM      2  C   UNL     1      -3.836  -2.158   5.172  0.00  0.00    +0.097 A 
ATOM      3  C   UNL     1      -5.171  -2.045   5.613  0.00  0.00    +0.338 A 
ATOM      4  O   UNL     1      -5.835  -3.056   5.759  0.00  0.00    -0.245 OA
ATOM      5  O   UNL     1      -5.728  -0.853   5.877  0.00  0.00    -0.422 OA
ATOM      6  C   UNL     1      -5.035   0.297   5.732  0.00  0.00    +0.146 A 
ATOM      7  C   UNL     1      -3.696   0.258   5.300  0.00  0.00    +0.022 A 
ATOM      8  C   UNL     1      -2.972   1.446   5.153  0.00  0.00    +0.015 A 
ATOM      9  C   UNL     1      -3.568   2.642   5.434  0.00  0.00    +0.046 A 
ATOM     10  C   UNL     1      -4.891   2.687   5.867  0.00  0.00    +0.123 A 
ATOM     11  C   UNL     1      -5.626   1.520   6.008  0.00  0.00    +0.034 A 
ATOM     12  C   UNL     1      -7.057   1.580   6.477  0.00  0.00    +0.051 C 
ENDROOT
BRANCH  10  13
ATOM     13  O   UNL     1      -5.469   3.884   6.144  0.00  0.00    -0.506 OA
ATOM     14  H   UNL     1      -5.909   4.292   5.386  0.00  0.00    +0.292 HD
ENDBRANCH  10  13
BRANCH   1  15
ATOM     15  C   UNL     1      -1.655  -1.132   4.535  0.00  0.00    +0.113 C 
BRANCH  15  16
ATOM     16  S   UNL     1      -1.554  -0.611   2.800  0.00  0.00    -0.083 S 
BRANCH  16  25
ATOM     17  N   UNL     1       0.711  -0.489   1.189  0.00  0.00    -0.319 N 
ATOM     18  C   UNL     1       2.069  -0.740   1.290  0.00  0.00    +0.069 A 
ATOM     19  C   UNL     1       3.134  -0.636   0.407  0.00  0.00    +0.028 A 
ATOM     20  C   UNL     1       4.406  -0.972   0.823  0.00  0.00    +0.002 A 
ATOM     21  C   UNL     1       4.628  -1.413   2.119  0.00  0.00    +0.002 A 
ATOM     22  C   UNL     1       3.583  -1.523   3.009  0.00  0.00    +0.030 A 
ATOM     23  C   UNL     1       2.288  -1.186   2.603  0.00  0.00    +0.090 A 
ATOM     24  N   UNL     1       1.084  -1.188   3.232  0.00  0.00    -0.222 NA
ATOM     25  C   UNL     1       0.155  -0.773   2.405  0.00  0.00    +0.170 A 
BRANCH  17  27
ATOM     26  C   UNL     1      -0.019   1.526   0.010  0.00  0.00    +0.027 C 
ATOM     27  C   UNL     1       0.002  -0.004   0.002  0.00  0.00    +0.121 C 
ENDBRANCH  17  27
ENDBRANCH  16  25
ENDBRANCH  15  16
ENDBRANCH   1  15
TORSDOF 5
