REMARK  Name = ZINC33278273
REMARK  13 active torsions:
REMARK  status: ('A' for Active; 'I' for Inactive)
REMARK    1  A    between atoms: C_1  and  C_2
REMARK    2  A    between atoms: C_2  and  C_3
REMARK    3  A    between atoms: C_3  and  C_4
REMARK    4  A    between atoms: C_4  and  N_5
REMARK    5  A    between atoms: N_5  and  C_6
REMARK    6  A    between atoms: C_7  and  C_9
REMARK    7  A    between atoms: C_11  and  N_21
REMARK    8  A    between atoms: N_21  and  S_22
REMARK    9  A    between atoms: S_22  and  C_25
REMARK   10  A    between atoms: C_28  and  C_31
REMARK   11  A    between atoms: C_31  and  C_32
REMARK   12  A    between atoms: C_31  and  C_33
REMARK   13  A    between atoms: C_31  and  C_34
REMARK                            x       y       z     vdW  Elec       q    Type
REMARK                         _______ _______ _______ _____ _____    ______ ____
ROOT
ATOM      1  C   UNL     1      -3.963  -1.302  -0.083  0.00  0.00    +0.057 A 
ATOM      2  C   UNL     1      -2.842  -2.127  -0.265  0.00  0.00    +0.042 A 
ATOM      3  C   UNL     1      -1.620  -1.527  -0.516  0.00  0.00    +0.089 A 
ATOM      4  C   UNL     1      -1.544  -0.130  -0.569  0.00  0.00    +0.144 A 
ATOM      5  N   UNL     1      -2.625   0.615  -0.391  0.00  0.00    -0.238 NA
ATOM      6  C   UNL     1      -3.806   0.082  -0.155  0.00  0.00    +0.126 A 
ATOM      7  N   UNL     1      -0.324   0.481  -0.814  0.00  0.00    -0.317 N 
ATOM      8  C   UNL     1      -0.462   1.944  -0.835  0.00  0.00    +0.087 C 
ATOM      9  C   UNL     1       0.916   2.581  -1.029  0.00  0.00    -0.063 C 
ATOM     10  N   UNL     1       1.506   2.093  -2.283  0.00  0.00    +0.381 N 
ATOM     11  C   UNL     1       1.644   0.630  -2.263  0.00  0.00    -0.063 C 
ATOM     12  C   UNL     1       0.266  -0.007  -2.069  0.00  0.00    +0.087 C 
ATOM     13  H   UNL     1       0.859   2.376  -3.127  0.00  0.00    -0.086 HD
ATOM     14  H   UNL     1       2.502   2.541  -2.418  0.00  0.00    -0.086 HD
ENDROOT
BRANCH   1  17
ATOM     15  N   UNL     1      -6.122  -1.307   1.066  0.00  0.00    -0.301 N 
ATOM     16  C   UNL     1      -5.755  -0.031   1.685  0.00  0.00    +0.132 C 
ATOM     17  C   UNL     1      -5.290  -1.891   0.182  0.00  0.00    +0.248 C 
ATOM     18  O   UNL     1      -5.632  -2.904  -0.398  0.00  0.00    -0.270 OA
BRANCH  15  19
ATOM     19  C   UNL     1      -7.395  -1.948   1.408  0.00  0.00    +0.108 C 
BRANCH  19  20
ATOM     20  C   UNL     1      -7.191  -2.880   2.604  0.00  0.00    +0.019 C 
BRANCH  20  22
ATOM     21  C   UNL     1      -8.316  -4.481   4.158  0.00  0.00    +0.004 C 
ATOM     22  C   UNL     1      -8.520  -3.549   2.961  0.00  0.00    -0.002 C 
ENDBRANCH  20  22
ENDBRANCH  19  20
ENDBRANCH  15  19
ENDBRANCH   1  17
BRANCH   3  23
ATOM     23  N   UNL     1      -0.474  -2.308  -0.711  0.00  0.00    -0.213 N 
ATOM     24  H   UNL     1       0.502  -1.952  -0.348  0.00  0.00    +0.174 HD
BRANCH  23  25
ATOM     25  S   UNL     1      -0.587  -3.766  -1.488  0.00  0.00    +0.072 S 
ATOM     26  O   UNL     1       0.731  -4.295  -1.552  0.00  0.00    -0.150 OA
ATOM     27  O   UNL     1      -1.661  -4.468  -0.878  0.00  0.00    -0.150 OA
BRANCH  25  28
ATOM     28  C   UNL     1      -1.078  -3.436  -3.147  0.00  0.00    +0.109 A 
ATOM     29  C   UNL     1      -2.420  -3.395  -3.476  0.00  0.00    +0.029 A 
ATOM     30  C   UNL     1      -2.806  -3.131  -4.777  0.00  0.00    +0.006 A 
ATOM     31  C   UNL     1      -1.849  -2.918  -5.752  0.00  0.00    -0.042 A 
ATOM     32  C   UNL     1      -0.507  -2.963  -5.424  0.00  0.00    +0.006 A 
ATOM     33  C   UNL     1      -0.121  -3.222  -4.122  0.00  0.00    +0.029 A 
BRANCH  31  34
ATOM     34  C   UNL     1      -2.269  -2.635  -7.171  0.00  0.00    -0.013 C 
ATOM     35  C   UNL     1      -1.700  -3.713  -8.096  0.00  0.00    +0.015 C 
ATOM     36  C   UNL     1      -3.797  -2.641  -7.261  0.00  0.00    +0.015 C 
ATOM     37  C   UNL     1      -1.739  -1.265  -7.597  0.00  0.00    +0.015 C 
ENDBRANCH  31  34
ENDBRANCH  25  28
ENDBRANCH  23  25
ENDBRANCH   3  23
TORSDOF 8
