REMARK  Name = ZINC39664986
REMARK  8 active torsions:
REMARK  status: ('A' for Active; 'I' for Inactive)
REMARK    1  A    between atoms: C_1  and  C_2
REMARK    2  A    between atoms: C_7  and  C_8
REMARK    3  A    between atoms: C_12  and  C_21
REMARK    4  A    between atoms: N_23  and  C_24
REMARK    5  A    between atoms: C_24  and  C_25
REMARK    6  A    between atoms: C_25  and  C_27
REMARK    7  A    between atoms: C_25  and  O_28
REMARK    8  A    between atoms: O_28  and  C_29
REMARK                            x       y       z     vdW  Elec       q    Type
REMARK                         _______ _______ _______ _____ _____    ______ ____
ROOT
ATOM      1  C   UNL     1       0.577  -0.933   0.938  0.00  0.00    +0.247 C 
ATOM      2  O   UNL     1       0.304   0.251   0.919  0.00  0.00    -0.270 OA
ATOM      3  N   UNL     1       0.566  -1.609   2.104  0.00  0.00    -0.296 N 
ATOM      4  C   UNL     1       0.968  -3.015   2.343  0.00  0.00    +0.121 C 
ATOM      5  C   UNL     1       1.705  -2.985   3.701  0.00  0.00    +0.100 C 
ATOM      6  C   UNL     1       1.161  -1.736   4.415  0.00  0.00    -0.004 C 
ATOM      7  C   UNL     1       0.154  -1.111   3.439  0.00  0.00    +0.115 C 
ATOM      8  C   UNL     1       2.294  -0.752   4.696  0.00  0.00    -0.010 C 
ATOM      9  C   UNL     1       1.738   0.455   5.456  0.00  0.00    -0.082 C 
ATOM     10  N   UNL     1       1.130   0.005   6.714  0.00  0.00    +0.379 N 
ATOM     11  C   UNL     1      -0.017  -0.867   6.433  0.00  0.00    -0.082 C 
ATOM     12  C   UNL     1       0.465  -2.130   5.714  0.00  0.00    -0.010 C 
ATOM     13  H   UNL     1       1.814  -0.504   7.254  0.00  0.00    -0.086 HD
ATOM     14  H   UNL     1       0.819   0.807   7.242  0.00  0.00    -0.086 HD
ENDROOT
BRANCH   1  21
ATOM     15  C   UNL     1       2.527   0.229  -0.857  0.00  0.00    +0.044 C 
ATOM     16  C   UNL     1       1.861  -1.081  -1.192  0.00  0.00    -0.038 A 
ATOM     17  C   UNL     1       2.184  -1.742  -2.359  0.00  0.00    +0.004 A 
ATOM     18  C   UNL     1       1.574  -2.945  -2.668  0.00  0.00    +0.000 A 
ATOM     19  C   UNL     1       0.638  -3.494  -1.809  0.00  0.00    +0.001 A 
ATOM     20  C   UNL     1       0.307  -2.844  -0.638  0.00  0.00    +0.013 A 
ATOM     21  C   UNL     1       0.923  -1.632  -0.318  0.00  0.00    +0.040 A 
ENDBRANCH   1  21
BRANCH   5  22
ATOM     22  C   UNL     1       3.192  -2.864   3.488  0.00  0.00    +0.218 C 
ATOM     23  O   UNL     1       3.621  -2.346   2.479  0.00  0.00    -0.275 OA
ATOM     24  N   UNL     1       4.046  -3.333   4.420  0.00  0.00    -0.312 N 
ATOM     25  H   UNL     1       3.704  -3.747   5.227  0.00  0.00    +0.149 HD
BRANCH  24  26
ATOM     26  C   UNL     1       5.492  -3.216   4.213  0.00  0.00    +0.148 C 
BRANCH  26  27
ATOM     27  C   UNL     1       6.229  -3.820   5.410  0.00  0.00    +0.187 C 
ATOM     28  C   UNL     1       7.733  -3.587   5.253  0.00  0.00    +0.053 C 
BRANCH  27  29
ATOM     29  O   UNL     1       5.968  -5.224   5.470  0.00  0.00    -0.488 OA
BRANCH  29  30
ATOM     30  C   UNL     1       6.121  -5.828   6.678  0.00  0.00    +0.121 A 
ATOM     31  C   UNL     1       6.530  -5.089   7.778  0.00  0.00    +0.045 A 
ATOM     32  C   UNL     1       6.685  -5.705   9.005  0.00  0.00    +0.004 A 
ATOM     33  C   UNL     1       6.432  -7.059   9.136  0.00  0.00    +0.000 A 
ATOM     34  C   UNL     1       6.024  -7.798   8.041  0.00  0.00    +0.004 A 
ATOM     35  C   UNL     1       5.862  -7.184   6.814  0.00  0.00    +0.045 A 
ENDBRANCH  29  30
ENDBRANCH  27  29
ENDBRANCH  26  27
ENDBRANCH  24  26
ENDBRANCH   5  22
TORSDOF 6
