REMARK  Name = ZINC36637974
REMARK  17 active torsions:
REMARK  status: ('A' for Active; 'I' for Inactive)
REMARK    1  A    between atoms: C_1  and  C_2
REMARK    2  A    between atoms: C_2  and  C_3
REMARK    3  A    between atoms: C_3  and  C_4
REMARK    4  A    between atoms: C_4  and  N_5
REMARK    5  A    between atoms: N_5  and  C_6
REMARK    6  A    between atoms: N_5  and  S_8
REMARK    7  A    between atoms: C_6  and  C_7
REMARK    8  A    between atoms: S_8  and  C_11
REMARK    9  A    between atoms: C_14  and  C_17
REMARK   10  A    between atoms: N_19  and  C_20
REMARK   11  A    between atoms: C_20  and  C_21
REMARK   12  A    between atoms: C_21  and  N_22
REMARK   13  A    between atoms: N_22  and  C_23
REMARK   14  A    between atoms: N_22  and  C_25
REMARK   15  A    between atoms: C_23  and  C_24
REMARK   16  A    between atoms: C_25  and  C_26
REMARK   17  A    between atoms: C_30  and  C_36
REMARK                            x       y       z     vdW  Elec       q    Type
REMARK                         _______ _______ _______ _____ _____    ______ ____
ROOT
ATOM      1  C   UNL     1       0.354   1.986  -7.690  0.00  0.00    +0.252 C 
ATOM      2  O   UNL     1      -0.528   2.721  -7.291  0.00  0.00    -0.270 OA
ATOM      3  N   UNL     1       1.012   2.280  -8.829  0.00  0.00    -0.248 N 
ATOM      4  C   UNL     1       1.915   1.375  -9.360  0.00  0.00    +0.168 A 
ATOM      5  N   UNL     1       1.803   0.637 -10.439  0.00  0.00    -0.224 NA
ATOM      6  C   UNL     1       2.774  -0.211 -10.843  0.00  0.00    +0.083 A 
ATOM      7  C   UNL     1       2.778  -1.056 -11.977  0.00  0.00    -0.024 A 
ATOM      8  C   UNL     1       3.854  -1.862 -12.245  0.00  0.00    +0.005 A 
ATOM      9  C   UNL     1       4.970  -1.879 -11.421  0.00  0.00    +0.001 A 
ATOM     10  C   UNL     1       5.000  -1.065 -10.303  0.00  0.00    +0.017 A 
ATOM     11  C   UNL     1       3.927  -0.255 -10.027  0.00  0.00    +0.041 A 
ATOM     12  S   UNL     1       3.534   0.921  -8.755  0.00  0.00    -0.052 S 
ATOM     13  C   UNL     1       1.587  -1.071 -12.900  0.00  0.00    +0.046 C 
ENDROOT
BRANCH   1  17
ATOM     14  C   UNL     1       1.363  -1.508  -5.496  0.00  0.00    +0.106 A 
ATOM     15  C   UNL     1       0.961  -0.366  -4.826  0.00  0.00    +0.029 A 
ATOM     16  C   UNL     1       0.632   0.772  -5.532  0.00  0.00    +0.015 A 
ATOM     17  C   UNL     1       0.706   0.770  -6.926  0.00  0.00    +0.037 A 
ATOM     18  C   UNL     1       1.112  -0.385  -7.596  0.00  0.00    +0.015 A 
ATOM     19  C   UNL     1       1.444  -1.515  -6.877  0.00  0.00    +0.029 A 
BRANCH  14  20
ATOM     20  S   UNL     1       1.782  -2.957  -4.586  0.00  0.00    +0.061 S 
ATOM     21  O   UNL     1       1.608  -4.056  -5.470  0.00  0.00    -0.153 OA
ATOM     22  O   UNL     1       1.102  -2.866  -3.341  0.00  0.00    -0.153 OA
BRANCH  20  23
ATOM     23  N   UNL     1       3.401  -2.873  -4.247  0.00  0.00    -0.177 NA
BRANCH  23  24
ATOM     24  C   UNL     1       4.375  -3.442  -5.182  0.00  0.00    +0.106 C 
ATOM     25  C   UNL     1       4.730  -4.864  -4.745  0.00  0.00    +0.022 C 
ENDBRANCH  23  24
BRANCH  23  26
ATOM     26  C   UNL     1       3.859  -2.229  -3.014  0.00  0.00    +0.109 C 
BRANCH  26  27
ATOM     27  C   UNL     1       4.215  -0.769  -3.302  0.00  0.00    +0.017 C 
BRANCH  27  29
ATOM     28  C   UNL     1       5.049   1.363  -2.302  0.00  0.00    +0.004 C 
ATOM     29  C   UNL     1       4.693  -0.097  -2.013  0.00  0.00    -0.002 C 
ENDBRANCH  27  29
ENDBRANCH  26  27
ENDBRANCH  23  26
ENDBRANCH  20  23
ENDBRANCH  14  20
ENDBRANCH   1  17
BRANCH   3  30
ATOM     30  C   UNL     1       0.771   3.557  -9.505  0.00  0.00    +0.097 C 
BRANCH  30  31
ATOM     31  C   UNL     1       1.747   4.609  -8.972  0.00  0.00    -0.059 C 
BRANCH  31  32
ATOM     32  N   UNL     1       1.505   5.889  -9.649  0.00  0.00    +0.380 N 
ATOM     33  H   UNL     1       1.563   5.757 -10.648  0.00  0.00    -0.082 HD
BRANCH  32  34
ATOM     34  C   UNL     1       0.169   6.386  -9.297  0.00  0.00    -0.082 C 
ATOM     35  C   UNL     1      -0.164   7.608 -10.155  0.00  0.00    -0.017 C 
ENDBRANCH  32  34
BRANCH  32  36
ATOM     36  C   UNL     1       2.518   6.866  -9.226  0.00  0.00    -0.082 C 
ATOM     37  C   UNL     1       3.909   6.357  -9.609  0.00  0.00    -0.017 C 
ENDBRANCH  32  36
ENDBRANCH  31  32
ENDBRANCH  30  31
ENDBRANCH   3  30
TORSDOF 12
