REMARK  Name = ZINC06772412
REMARK  3 active torsions:
REMARK  status: ('A' for Active; 'I' for Inactive)
REMARK    1  A    between atoms: C_1  and  C_2
REMARK    2  A    between atoms: C_3  and  C_13
REMARK    3  A    between atoms: N_15  and  C_16
REMARK                            x       y       z     vdW  Elec       q    Type
REMARK                         _______ _______ _______ _____ _____    ______ ____
ROOT
ATOM      1  C   UNL     1      -0.015   1.074   0.012  0.00  0.00    +0.052 C 
ATOM      2  C   UNL     1      -0.722   1.554   1.254  0.00  0.00    +0.045 C 
ATOM      3  C   UNL     1      -0.131   1.819   2.432  0.00  0.00    +0.067 C 
ATOM      4  C   UNL     1      -1.223   2.267   3.373  0.00  0.00    +0.144 C 
ATOM      5  C   UNL     1      -0.948   3.691   3.853  0.00  0.00    +0.053 C 
ATOM      6  C   UNL     1      -2.071   4.139   4.791  0.00  0.00    +0.004 C 
ATOM      7  C   UNL     1      -2.143   3.192   5.990  0.00  0.00    +0.000 C 
ATOM      8  C   UNL     1      -2.430   1.771   5.502  0.00  0.00    +0.004 C 
ATOM      9  C   UNL     1      -1.307   1.317   4.566  0.00  0.00    +0.053 C 
ATOM     10  O   UNL     1      -2.461   2.226   2.614  0.00  0.00    -0.450 OA
ATOM     11  C   UNL     1      -2.165   1.813   1.367  0.00  0.00    +0.336 C 
ATOM     12  O   UNL     1      -2.972   1.671   0.470  0.00  0.00    -0.245 OA
ENDROOT
BRANCH   3  13
ATOM     13  C   UNL     1       1.306   1.697   2.744  0.00  0.00    +0.249 C 
ATOM     14  O   UNL     1       2.084   1.322   1.889  0.00  0.00    -0.270 OA
ATOM     15  N   UNL     1       1.756   2.001   3.978  0.00  0.00    -0.280 N 
ATOM     16  H   UNL     1       1.150   2.375   4.637  0.00  0.00    +0.155 HD
BRANCH  15  17
ATOM     17  C   UNL     1       3.095   1.776   4.309  0.00  0.00    +0.054 A 
ATOM     18  C   UNL     1       3.829   0.813   3.627  0.00  0.00    +0.044 A 
ATOM     19  C   UNL     1       5.153   0.594   3.956  0.00  0.00    +0.043 A 
ATOM     20  C   UNL     1       5.748   1.332   4.964  0.00  0.00    +0.021 A 
ATOM     21  C   UNL     1       5.021   2.291   5.645  0.00  0.00    +0.023 A 
ATOM     22  C   UNL     1       3.698   2.519   5.317  0.00  0.00    +0.062 A 
ATOM     23 CL   UNL     1       2.788   3.727   6.169  0.00  0.00    -0.082 Cl
ATOM     24 CL   UNL     1       6.071  -0.608   3.104  0.00  0.00    -0.083 Cl
ENDBRANCH  15  17
ENDBRANCH   3  13
TORSDOF 2
