REMARK  Name = ZINC59679653
REMARK  9 active torsions:
REMARK  status: ('A' for Active; 'I' for Inactive)
REMARK    1  A    between atoms: C_1  and  C_2
REMARK    2  A    between atoms: C_5  and  N_8
REMARK    3  A    between atoms: C_9  and  C_11
REMARK    4  A    between atoms: C_15  and  N_16
REMARK    5  A    between atoms: C_17  and  C_32
REMARK    6  A    between atoms: C_19  and  C_22
REMARK    7  A    between atoms: C_20  and  C_21
REMARK    8  A    between atoms: N_23  and  N_24
REMARK    9  A    between atoms: C_25  and  C_27
REMARK                            x       y       z     vdW  Elec       q    Type
REMARK                         _______ _______ _______ _____ _____    ______ ____
ROOT
ATOM      1  C   UNL     1       0.190  -6.005   0.180  0.00  0.00    +0.072 A 
ATOM      2  C   UNL     1       1.578  -6.428   0.240  0.00  0.00    -0.023 A 
ATOM      3  C   UNL     1       1.777  -7.575   0.926  0.00  0.00    -0.004 A 
ATOM      4  S   UNL     1       0.164  -8.059   1.467  0.00  0.00    -0.075 S 
ATOM      5  C   UNL     1      -0.744  -6.802   0.823  0.00  0.00    +0.097 A 
ATOM      6  C   UNL     1       3.084  -8.266   1.163  0.00  0.00    +0.043 C 
ATOM      7  C   UNL     1       4.121  -7.682   0.192  0.00  0.00    +0.005 C 
ATOM      8  C   UNL     1       4.042  -6.154   0.243  0.00  0.00    +0.005 C 
ATOM      9  C   UNL     1       2.737  -5.678  -0.399  0.00  0.00    +0.037 C 
ENDROOT
BRANCH   5  10
ATOM     10  N   UNL     1      -2.117  -6.606   0.911  0.00  0.00    -0.311 N 
ATOM     11  C   UNL     1      -3.038  -7.105   0.032  0.00  0.00    +0.022 A 
ATOM     12  C   UNL     1      -4.266  -6.721   0.425  0.00  0.00    +0.032 A 
ATOM     13  C   UNL     1      -4.087  -5.922   1.642  0.00  0.00    +0.016 A 
ATOM     14  C   UNL     1      -2.744  -5.895   1.889  0.00  0.00    +0.030 A 
ATOM     15  C   UNL     1      -2.072  -5.196   3.042  0.00  0.00    +0.064 C 
ATOM     16  C   UNL     1      -2.729  -7.947  -1.179  0.00  0.00    +0.064 C 
BRANCH  13  17
ATOM     17  C   UNL     1      -5.146  -5.281   2.443  0.00  0.00    +0.140 C 
ATOM     18  N   UNL     1      -4.835  -4.600   3.503  0.00  0.00    -0.187 NA
BRANCH  18  19
ATOM     19  N   UNL     1      -5.841  -3.991   4.264  0.00  0.00    -0.200 N 
ATOM     20  C   UNL     1      -5.519  -3.284   5.365  0.00  0.00    +0.299 C 
ATOM     21  O   UNL     1      -4.353  -3.174   5.699  0.00  0.00    -0.265 OA
ATOM     22  H   UNL     1      -6.770  -4.078   3.998  0.00  0.00    +0.178 HD
BRANCH  20  23
ATOM     23  C   UNL     1      -6.572  -2.646   6.161  0.00  0.00    +0.191 A 
ATOM     24  C   UNL     1      -6.385  -1.900   7.290  0.00  0.00    +0.054 A 
ATOM     25  C   UNL     1      -7.657  -1.490   7.719  0.00  0.00    +0.042 A 
ATOM     26  C   UNL     1      -8.554  -1.997   6.845  0.00  0.00    +0.196 A 
ATOM     27  O   UNL     1      -7.896  -2.688   5.904  0.00  0.00    -0.458 OA
ENDBRANCH  20  23
ENDBRANCH  18  19
ENDBRANCH  13  17
ENDBRANCH   5  10
BRANCH   1  29
ATOM     28  N   UNL     1      -0.542  -4.835  -1.830  0.00  0.00    -0.281 N 
ATOM     29  C   UNL     1      -0.206  -4.782  -0.526  0.00  0.00    +0.251 C 
ATOM     30  O   UNL     1      -0.231  -3.719   0.066  0.00  0.00    -0.270 OA
ATOM     31  H   UNL     1      -0.564  -5.688  -2.291  0.00  0.00    +0.155 HD
BRANCH  28  36
ATOM     32  C   UNL     1      -1.830  -0.070  -4.624  0.00  0.00    +0.044 C 
ATOM     33  C   UNL     1      -1.488  -1.335  -3.882  0.00  0.00    -0.050 A 
ATOM     34  C   UNL     1      -0.812  -2.354  -4.529  0.00  0.00    +0.005 A 
ATOM     35  C   UNL     1      -0.497  -3.515  -3.852  0.00  0.00    +0.023 A 
ATOM     36  C   UNL     1      -0.859  -3.660  -2.519  0.00  0.00    +0.034 A 
ATOM     37  C   UNL     1      -1.537  -2.635  -1.871  0.00  0.00    +0.023 A 
ATOM     38  C   UNL     1      -1.844  -1.474  -2.553  0.00  0.00    +0.005 A 
ENDBRANCH  28  36
ENDBRANCH   1  29
TORSDOF 6
