REMARK  Name = ZINC04308512
REMARK  7 active torsions:
REMARK  status: ('A' for Active; 'I' for Inactive)
REMARK    1  A    between atoms: C_1  and  C_2
REMARK    2  A    between atoms: C_2  and  C_3
REMARK    3  A    between atoms: C_3  and  C_21
REMARK    4  A    between atoms: N_6  and  C_10
REMARK    5  A    between atoms: C_10  and  C_11
REMARK    6  A    between atoms: C_11  and  O_12
REMARK    7  A    between atoms: O_12  and  C_13
REMARK                            x       y       z     vdW  Elec       q    Type
REMARK                         _______ _______ _______ _____ _____    ______ ____
ROOT
ATOM      1  C   UNL     1       6.862   2.628  -0.084  0.00  0.00    +0.138 C 
ATOM      2  C   UNL     1       6.032   3.336  -1.135  0.00  0.00    +0.251 C 
ATOM      3  O   UNL     1       6.124   3.224  -2.339  0.00  0.00    -0.272 OA
ATOM      4  N   UNL     1       5.170   4.116  -0.454  0.00  0.00    -0.221 N 
ATOM      5  C   UNL     1       5.342   4.004   0.868  0.00  0.00    +0.310 C 
ATOM      6  O   UNL     1       4.684   4.613   1.689  0.00  0.00    -0.252 OA
ATOM      7  N   UNL     1       6.321   3.139   1.188  0.00  0.00    -0.281 N 
ATOM      8  H   UNL     1       6.616   2.901   2.080  0.00  0.00    +0.152 HD
ENDROOT
BRANCH   1   9
ATOM      9  C   UNL     1       6.679   1.135  -0.180  0.00  0.00    -0.015 A 
ATOM     10  C   UNL     1       7.517   0.386  -0.984  0.00  0.00    +0.009 A 
ATOM     11  C   UNL     1       7.353  -0.984  -1.069  0.00  0.00    +0.039 A 
ATOM     12  C   UNL     1       6.341  -1.604  -0.357  0.00  0.00    +0.123 A 
ATOM     13  C   UNL     1       5.498  -0.853   0.444  0.00  0.00    +0.039 A 
ATOM     14  C   UNL     1       5.668   0.516   0.532  0.00  0.00    +0.009 A 
ATOM     15  F   UNL     1       6.175  -2.942  -0.444  0.00  0.00    -0.205 F 
ENDBRANCH   1   9
BRANCH   1  17
ATOM     16  C   UNL     1       8.522   4.490   0.051  0.00  0.00    +0.007 C 
ATOM     17  C   UNL     1       8.341   2.997  -0.226  0.00  0.00    +0.037 C 
ENDBRANCH   1  17
BRANCH   4  18
ATOM     18  C   UNL     1       4.172   4.985  -1.083  0.00  0.00    +0.159 C 
BRANCH  18  19
ATOM     19  C   UNL     1       2.868   4.207  -1.276  0.00  0.00    +0.248 C 
BRANCH  19  20
ATOM     20  O   UNL     1       2.323   3.868   0.001  0.00  0.00    -0.487 OA
BRANCH  20  21
ATOM     21  C   UNL     1       1.156   3.170   0.008  0.00  0.00    +0.157 A 
ATOM     22  C   UNL     1       1.176   1.783   0.000  0.00  0.00    +0.084 A 
ATOM     23  C   UNL     1      -0.013   1.076   0.008  0.00  0.00    +0.024 A 
ATOM     24  C   UNL     1      -1.220   1.750   0.017  0.00  0.00    +0.003 A 
ATOM     25  C   UNL     1      -1.242   3.132   0.030  0.00  0.00    +0.024 A 
ATOM     26  C   UNL     1      -0.057   3.845   0.022  0.00  0.00    +0.084 A 
ATOM     27 CL   UNL     1      -0.086   5.580   0.032  0.00  0.00    -0.080 Cl
ATOM     28 CL   UNL     1       2.691   0.935  -0.018  0.00  0.00    -0.080 Cl
ENDBRANCH  20  21
ENDBRANCH  19  20
ENDBRANCH  18  19
ENDBRANCH   4  18
TORSDOF 6
