REMARK  Name = ZINC32522810
REMARK  10 active torsions:
REMARK  status: ('A' for Active; 'I' for Inactive)
REMARK    1  A    between atoms: C_1  and  C_2
REMARK    2  A    between atoms: C_3  and  C_26
REMARK    3  A    between atoms: C_8  and  C_10
REMARK    4  A    between atoms: C_10  and  S_11
REMARK    5  A    between atoms: S_11  and  C_12
REMARK    6  A    between atoms: C_18  and  C_20
REMARK    7  A    between atoms: C_26  and  O_28
REMARK    8  A    between atoms: O_28  and  C_29
REMARK    9  A    between atoms: C_29  and  C_30
REMARK   10  A    between atoms: C_29  and  C_31
REMARK                            x       y       z     vdW  Elec       q    Type
REMARK                         _______ _______ _______ _____ _____    ______ ____
ROOT
ATOM      1  C   UNL     1       1.919  -1.644  -0.026  0.00  0.00    +0.067 C 
ATOM      2  C   UNL     1       1.370  -0.240  -0.012  0.00  0.00    +0.062 A 
ATOM      3  C   UNL     1       0.002  -0.004   0.002  0.00  0.00    +0.120 A 
ATOM      4  S   UNL     1      -0.022   1.783   0.012  0.00  0.00    -0.045 S 
ATOM      5  C   UNL     1       1.696   2.033  -0.003  0.00  0.00    +0.165 A 
ATOM      6  N   UNL     1       2.167   0.796  -0.014  0.00  0.00    -0.229 NA
ATOM      7  N   UNL     1       2.397   3.226  -0.004  0.00  0.00    -0.264 N 
ATOM      8  C   UNL     1       1.732   4.399   0.010  0.00  0.00    +0.229 C 
ATOM      9  O   UNL     1       0.519   4.408   0.022  0.00  0.00    -0.275 OA
ATOM     10  H   UNL     1       3.497   3.218  -0.014  0.00  0.00    +0.157 HD
ENDROOT
BRANCH   3  11
ATOM     11  C   UNL     1      -1.109  -0.953   0.007  0.00  0.00    +0.348 C 
ATOM     12  O   UNL     1      -0.888  -2.149  -0.002  0.00  0.00    -0.244 OA
BRANCH  11  13
ATOM     13  O   UNL     1      -2.381  -0.502   0.021  0.00  0.00    -0.458 OA
BRANCH  13  14
ATOM     14  C   UNL     1      -3.418  -1.486   0.025  0.00  0.00    +0.171 C 
ATOM     15  C   UNL     1      -4.641  -0.935   0.761  0.00  0.00    +0.052 C 
ATOM     16  C   UNL     1      -3.801  -1.829  -1.416  0.00  0.00    +0.052 C 
ENDBRANCH  13  14
ENDBRANCH  11  13
ENDBRANCH   3  11
BRANCH   8  17
ATOM     17  C   UNL     1       2.495   5.698   0.009  0.00  0.00    +0.173 C 
BRANCH  17  18
ATOM     18  S   UNL     1       1.330   7.083   0.029  0.00  0.00    -0.078 S 
BRANCH  18  19
ATOM     19  C   UNL     1       2.460   8.434   0.025  0.00  0.00    +0.170 A 
ATOM     20  N   UNL     1       1.977   9.708   0.037  0.00  0.00    -0.302 N 
ATOM     21  H   UNL     1       0.891   9.884   0.049  0.00  0.00    +0.171 HD
ATOM     22  C   UNL     1       2.827  10.755   0.034  0.00  0.00    +0.253 A 
ATOM     23  O   UNL     1       2.403  11.900   0.044  0.00  0.00    -0.268 OA
ATOM     24  C   UNL     1       4.208  10.507   0.019  0.00  0.00    +0.098 A 
ATOM     25  C   UNL     1       4.647   9.191   0.007  0.00  0.00    +0.079 A 
ATOM     26  N   UNL     1       3.755   8.192   0.016  0.00  0.00    -0.223 NA
BRANCH  25  27
ATOM     27  C   UNL     1       6.098   8.891  -0.009  0.00  0.00    +0.001 A 
ATOM     28  C   UNL     1       7.028   9.931  -0.018  0.00  0.00    +0.010 A 
ATOM     29  C   UNL     1       8.378   9.646  -0.028  0.00  0.00    +0.001 A 
ATOM     30  C   UNL     1       8.810   8.332  -0.039  0.00  0.00    +0.000 A 
ATOM     31  C   UNL     1       7.893   7.296  -0.035  0.00  0.00    +0.001 A 
ATOM     32  C   UNL     1       6.540   7.569  -0.020  0.00  0.00    +0.010 A 
ENDBRANCH  25  27
ENDBRANCH  18  19
ENDBRANCH  17  18
ENDBRANCH   8  17
TORSDOF 7
