REMARK  Name = ZINC41019882
REMARK  15 active torsions:
REMARK  status: ('A' for Active; 'I' for Inactive)
REMARK    1  A    between atoms: C_1  and  C_2
REMARK    2  A    between atoms: C_2  and  C_3
REMARK    3  A    between atoms: C_3  and  C_4
REMARK    4  A    between atoms: C_4  and  S_5
REMARK    5  A    between atoms: S_5  and  C_6
REMARK    6  A    between atoms: C_11  and  C_28
REMARK    7  A    between atoms: C_13  and  C_17
REMARK    8  A    between atoms: C_14  and  C_16
REMARK    9  A    between atoms: N_19  and  C_20
REMARK   10  A    between atoms: C_24  and  C_27
REMARK   11  A    between atoms: C_25  and  C_26
REMARK   12  A    between atoms: C_31  and  O_36
REMARK   13  A    between atoms: C_32  and  O_34
REMARK   14  A    between atoms: O_34  and  C_35
REMARK   15  A    between atoms: O_36  and  C_37
REMARK                            x       y       z     vdW  Elec       q    Type
REMARK                         _______ _______ _______ _____ _____    ______ ____
ROOT
ATOM      1  C   UNL     1       0.111  -4.319  -1.960  0.00  0.00    +0.210 A 
ATOM      2  N   UNL     1       0.062  -5.027  -0.822  0.00  0.00    -0.187 NA
ATOM      3  C   UNL     1       0.345  -6.276  -1.074  0.00  0.00    +0.219 A 
ATOM      4  N   UNL     1       0.590  -6.393  -2.402  0.00  0.00    -0.220 N 
ATOM      5  N   UNL     1       0.425  -5.123  -2.952  0.00  0.00    -0.141 NA
ATOM      6  C   UNL     1       0.951  -7.652  -3.049  0.00  0.00    +0.177 C 
ATOM      7  C   UNL     1       0.713  -8.792  -2.096  0.00  0.00    +0.060 C 
ATOM      8  C   UNL     1       0.471  -8.615  -0.789  0.00  0.00    +0.018 C 
ATOM      9  N   UNL     1       0.410  -7.367  -0.218  0.00  0.00    -0.287 N 
ATOM     10  C   UNL     1       0.257  -9.826   0.083  0.00  0.00    +0.061 C 
ATOM     11  H   UNL     1       0.413  -7.253   0.745  0.00  0.00    +0.155 HD
ENDROOT
BRANCH   6  12
ATOM     12  C   UNL     1       2.407  -7.617  -3.438  0.00  0.00    -0.015 A 
ATOM     13  C   UNL     1       3.369  -7.345  -2.484  0.00  0.00    +0.010 A 
ATOM     14  C   UNL     1       4.706  -7.312  -2.835  0.00  0.00    +0.050 A 
ATOM     15  C   UNL     1       5.083  -7.553  -4.146  0.00  0.00    +0.162 A 
ATOM     16  C   UNL     1       4.114  -7.828  -5.107  0.00  0.00    +0.162 A 
ATOM     17  C   UNL     1       2.777  -7.864  -4.747  0.00  0.00    +0.055 A 
BRANCH  16  18
ATOM     18  O   UNL     1       4.480  -8.065  -6.395  0.00  0.00    -0.491 OA
ATOM     19  C   UNL     1       3.428  -8.255  -7.343  0.00  0.00    +0.277 C 
ENDBRANCH  16  18
BRANCH  15  20
ATOM     20  O   UNL     1       6.398  -7.521  -4.494  0.00  0.00    -0.491 OA
ATOM     21  C   UNL     1       7.336  -7.232  -3.456  0.00  0.00    +0.277 C 
ENDBRANCH  15  20
ENDBRANCH   6  12
BRANCH   7  22
ATOM     22  C   UNL     1       0.746 -10.113  -2.603  0.00  0.00    +0.248 C 
ATOM     23  O   UNL     1      -0.226 -10.569  -3.178  0.00  0.00    -0.270 OA
ATOM     24  N   UNL     1       1.852 -10.866  -2.449  0.00  0.00    -0.281 N 
ATOM     25  H   UNL     1       2.652 -10.480  -2.058  0.00  0.00    +0.155 HD
BRANCH  24  26
ATOM     26  C   UNL     1       1.849 -12.205  -2.853  0.00  0.00    +0.037 A 
ATOM     27  C   UNL     1       1.255 -12.567  -4.056  0.00  0.00    +0.023 A 
ATOM     28  C   UNL     1       1.253 -13.890  -4.452  0.00  0.00    +0.002 A 
ATOM     29  C   UNL     1       1.841 -14.854  -3.653  0.00  0.00    +0.004 A 
ATOM     30  C   UNL     1       2.433 -14.496  -2.456  0.00  0.00    -0.046 A 
ATOM     31  C   UNL     1       2.443 -13.174  -2.056  0.00  0.00    -0.026 A 
ATOM     32  C   UNL     1       3.094 -12.785  -0.754  0.00  0.00    +0.046 C 
ATOM     33  C   UNL     1       3.072 -15.550  -1.588  0.00  0.00    +0.044 C 
ENDBRANCH  24  26
ENDBRANCH   7  22
BRANCH   1  34
ATOM     34  S   UNL     1      -0.203  -2.591  -2.103  0.00  0.00    -0.084 S 
BRANCH  34  35
ATOM     35  C   UNL     1      -0.574  -2.070  -0.406  0.00  0.00    +0.077 C 
BRANCH  35  36
ATOM     36  C   UNL     1      -0.869  -0.569  -0.386  0.00  0.00    +0.011 C 
BRANCH  36  38
ATOM     37  C   UNL     1      -1.478   1.372   1.065  0.00  0.00    +0.004 C 
ATOM     38  C   UNL     1      -1.182  -0.129   1.046  0.00  0.00    -0.003 C 
ENDBRANCH  36  38
ENDBRANCH  35  36
ENDBRANCH  34  35
ENDBRANCH   1  34
TORSDOF 9
