REMARK  Name = ZINC07913338
REMARK  6 active torsions:
REMARK  status: ('A' for Active; 'I' for Inactive)
REMARK    1  A    between atoms: C_1  and  C_2
REMARK    2  A    between atoms: C_4  and  C_10
REMARK    3  A    between atoms: C_6  and  C_9
REMARK    4  A    between atoms: C_7  and  O_8
REMARK    5  A    between atoms: C_11  and  C_12
REMARK    6  A    between atoms: C_14  and  C_17
REMARK                            x       y       z     vdW  Elec       q    Type
REMARK                         _______ _______ _______ _____ _____    ______ ____
ROOT
ATOM      1  C   UNL     1      -1.199   2.390   0.021  0.00  0.00    +0.033 C 
ATOM      2  C   UNL     1      -0.149   1.925   0.730  0.00  0.00    +0.106 C 
ATOM      3 CL   UNL     1      -0.316   0.484   1.682  0.00  0.00    -0.078 Cl
ENDROOT
BRANCH   1   7
ATOM      4  C   UNL     1      -6.164   2.168  -0.355  0.00  0.00    +0.047 C 
ATOM      5  C   UNL     1      -4.825   1.482  -0.256  0.00  0.00    -0.008 A 
ATOM      6  C   UNL     1      -3.674   2.232  -0.166  0.00  0.00    +0.015 A 
ATOM      7  C   UNL     1      -2.432   1.594  -0.075  0.00  0.00    -0.023 A 
ATOM      8  C   UNL     1      -2.367   0.197  -0.081  0.00  0.00    +0.015 A 
ATOM      9  C   UNL     1      -3.525  -0.544  -0.166  0.00  0.00    -0.008 A 
ATOM     10  C   UNL     1      -4.756   0.095  -0.257  0.00  0.00    +0.123 A 
ATOM     11  C   UNL     1      -3.456  -2.049  -0.168  0.00  0.00    +0.047 C 
BRANCH  10  12
ATOM     12  O   UNL     1      -5.894  -0.640  -0.345  0.00  0.00    -0.506 OA
ATOM     13  H   UNL     1      -6.158  -0.850  -1.252  0.00  0.00    +0.292 HD
ENDBRANCH  10  12
ENDBRANCH   1   7
BRANCH   2  14
ATOM     14  C   UNL     1       1.133   2.634   0.691  0.00  0.00    +0.270 A 
ATOM     15  N   UNL     1       2.242   2.293   1.328  0.00  0.00    -0.186 NA
ATOM     16  C   UNL     1       3.152   3.233   0.994  0.00  0.00    +0.209 A 
ATOM     17  N   UNL     1       2.561   4.082   0.187  0.00  0.00    -0.055 NA
ATOM     18  O   UNL     1       1.409   3.752  -0.002  0.00  0.00    -0.332 OA
BRANCH  16  19
ATOM     19  C   UNL     1       4.555   3.295   1.454  0.00  0.00    +0.060 A 
ATOM     20  C   UNL     1       5.523   4.214   1.149  0.00  0.00    +0.019 A 
ATOM     21  C   UNL     1       6.773   4.069   1.707  0.00  0.00    +0.008 A 
ATOM     22  C   UNL     1       7.012   3.016   2.532  0.00  0.00    +0.046 A 
ATOM     23  S   UNL     1       5.431   2.187   2.546  0.00  0.00    -0.093 S 
ENDBRANCH  16  19
ENDBRANCH   2  14
TORSDOF 4
