REMARK  Name = ZINC52006570
REMARK  7 active torsions:
REMARK  status: ('A' for Active; 'I' for Inactive)
REMARK    1  A    between atoms: C_1  and  C_2
REMARK    2  A    between atoms: C_2  and  N_3
REMARK    3  A    between atoms: N_3  and  S_4
REMARK    4  A    between atoms: S_4  and  C_7
REMARK    5  A    between atoms: C_10  and  N_13
REMARK    6  A    between atoms: N_13  and  C_14
REMARK    7  A    between atoms: C_20  and  O_22
REMARK                            x       y       z     vdW  Elec       q    Type
REMARK                         _______ _______ _______ _____ _____    ______ ____
ROOT
ATOM      1  C   UNL     1      -0.256  -3.060  -1.302  0.00  0.00    +0.105 A 
ATOM      2  C   UNL     1      -0.776  -3.513  -0.103  0.00  0.00    +0.030 A 
ATOM      3  C   UNL     1      -1.909  -4.303  -0.096  0.00  0.00    +0.025 A 
ATOM      4  C   UNL     1      -2.525  -4.643  -1.294  0.00  0.00    +0.028 A 
ATOM      5  C   UNL     1      -2.000  -4.186  -2.495  0.00  0.00    +0.025 A 
ATOM      6  C   UNL     1      -0.870  -3.391  -2.496  0.00  0.00    +0.030 A 
ENDROOT
BRANCH   1   7
ATOM      7  S   UNL     1       1.189  -2.051  -1.307  0.00  0.00    +0.058 S 
ATOM      8  O   UNL     1       1.786  -2.204  -2.588  0.00  0.00    -0.153 OA
ATOM      9  O   UNL     1       1.887  -2.336  -0.102  0.00  0.00    -0.153 OA
BRANCH   7  10
ATOM     10  N   UNL     1       0.688  -0.476  -1.203  0.00  0.00    -0.190 NA
ATOM     11  H   UNL     1       0.848   0.133  -1.941  0.00  0.00    +0.148 HD
BRANCH  10  13
ATOM     12  C   UNL     1      -0.019   1.526   0.010  0.00  0.00    +0.022 C 
ATOM     13  C   UNL     1       0.002  -0.004   0.002  0.00  0.00    +0.102 C 
ENDBRANCH  10  13
ENDBRANCH   7  10
ENDBRANCH   1   7
BRANCH   4  14
ATOM     14  N   UNL     1      -3.670  -5.443  -1.289  0.00  0.00    -0.339 N 
ATOM     15  H   UNL     1      -4.036  -5.761  -0.449  0.00  0.00    +0.146 HD
BRANCH  14  16
ATOM     16  C   UNL     1      -4.319  -5.800  -2.553  0.00  0.00    +0.099 C 
ATOM     17  C   UNL     1      -5.279  -4.682  -2.967  0.00  0.00    +0.025 C 
ATOM     18  C   UNL     1      -5.956  -5.055  -4.287  0.00  0.00    +0.002 C 
ATOM     19  C   UNL     1      -6.737  -6.359  -4.110  0.00  0.00    +0.003 C 
ATOM     20  C   UNL     1      -5.777  -7.476  -3.696  0.00  0.00    +0.033 C 
ATOM     21  C   UNL     1      -5.100  -7.103  -2.375  0.00  0.00    +0.135 C 
BRANCH  21  22
ATOM     22  O   UNL     1      -4.204  -8.147  -1.989  0.00  0.00    -0.390 OA
ATOM     23  H   UNL     1      -4.631  -9.004  -1.858  0.00  0.00    +0.210 HD
ENDBRANCH  21  22
ENDBRANCH  14  16
ENDBRANCH   4  14
TORSDOF 6
