REMARK  Name = ZINC65595617
REMARK  7 active torsions:
REMARK  status: ('A' for Active; 'I' for Inactive)
REMARK    1  A    between atoms: C_1  and  C_2
REMARK    2  A    between atoms: C_2  and  C_3
REMARK    3  A    between atoms: C_3  and  C_4
REMARK    4  A    between atoms: C_4  and  C_5
REMARK    5  A    between atoms: C_5  and  C_6
REMARK    6  A    between atoms: C_5  and  N_24
REMARK    7  A    between atoms: C_11  and  C_14
REMARK                            x       y       z     vdW  Elec       q    Type
REMARK                         _______ _______ _______ _____ _____    ______ ____
ROOT
ATOM      1  C   UNL     1      -2.828  -4.096   0.131  0.00  0.00    +0.236 C 
ATOM      2  O   UNL     1      -2.981  -4.782  -0.857  0.00  0.00    -0.274 OA
ATOM      3  N   UNL     1      -2.640  -4.676   1.332  0.00  0.00    -0.300 N 
ATOM      4  C   UNL     1      -2.460  -3.858   2.539  0.00  0.00    +0.108 C 
ATOM      5  C   UNL     1      -1.169  -4.293   3.241  0.00  0.00    +0.027 C 
ATOM      6  C   UNL     1      -1.218  -5.800   3.504  0.00  0.00    +0.024 C 
ATOM      7  C   UNL     1      -1.321  -6.549   2.173  0.00  0.00    +0.027 C 
ATOM      8  C   UNL     1      -2.619  -6.140   1.461  0.00  0.00    +0.108 C 
ENDROOT
BRANCH   6   9
ATOM      9  C   UNL     1       0.036  -6.224   4.224  0.00  0.00    -0.018 A 
ATOM     10  C   UNL     1       1.296  -6.093   3.782  0.00  0.00    +0.089 A 
ATOM     11  N   UNL     1       2.171  -6.593   4.708  0.00  0.00    -0.346 N 
ATOM     12  H   UNL     1       3.136  -6.607   4.611  0.00  0.00    +0.167 HD
ATOM     13  C   UNL     1       1.481  -7.070   5.797  0.00  0.00    +0.138 A 
ATOM     14  C   UNL     1       0.113  -6.854   5.543  0.00  0.00    +0.022 A 
ATOM     15  C   UNL     1      -0.832  -7.243   6.496  0.00  0.00    +0.013 A 
ATOM     16  C   UNL     1      -0.376  -7.827   7.663  0.00  0.00    +0.020 A 
ATOM     17  C   UNL     1       0.986  -8.006   7.847  0.00  0.00    +0.113 A 
ATOM     18  N   UNL     1       1.860  -7.639   6.934  0.00  0.00    -0.237 NA
ENDBRANCH   6   9
BRANCH   1  19
ATOM     19  C   UNL     1      -2.848  -2.593   0.015  0.00  0.00    +0.160 C 
BRANCH  19  20
ATOM     20  N   UNL     1      -3.520  -2.208  -1.228  0.00  0.00    -0.288 N 
ATOM     21  C   UNL     1      -3.030  -2.619  -2.414  0.00  0.00    +0.298 C 
ATOM     22  O   UNL     1      -2.030  -3.310  -2.453  0.00  0.00    -0.253 OA
ATOM     23  N   UNL     1      -3.648  -2.265  -3.558  0.00  0.00    -0.313 N 
ATOM     24  H   UNL     1      -4.318  -1.657  -1.198  0.00  0.00    +0.151 HD
ATOM     25  H   UNL     1      -4.446  -1.713  -3.528  0.00  0.00    +0.146 HD
ATOM     26  H   UNL     1      -3.296  -2.561  -4.412  0.00  0.00    +0.146 HD
ENDBRANCH  19  20
BRANCH  19  27
ATOM     27  C   UNL     1      -1.413  -2.063   0.004  0.00  0.00    +0.032 C 
BRANCH  27  28
ATOM     28  C   UNL     1      -1.433  -0.534   0.013  0.00  0.00    +0.002 C 
BRANCH  28  30
ATOM     29  C   UNL     1      -0.019   1.526   0.010  0.00  0.00    +0.004 C 
ATOM     30  C   UNL     1       0.002  -0.004   0.002  0.00  0.00    -0.003 C 
ENDBRANCH  28  30
ENDBRANCH  27  28
ENDBRANCH  19  27
ENDBRANCH   1  19
TORSDOF 6
