REMARK  Name = ZINC64030169
REMARK  11 active torsions:
REMARK  status: ('A' for Active; 'I' for Inactive)
REMARK    1  A    between atoms: C_1  and  C_2
REMARK    2  A    between atoms: C_6  and  O_8
REMARK    3  A    between atoms: O_8  and  C_9
REMARK    4  A    between atoms: C_9  and  C_10
REMARK    5  A    between atoms: C_10  and  C_11
REMARK    6  A    between atoms: C_10  and  N_12
REMARK    7  A    between atoms: N_12  and  C_13
REMARK    8  A    between atoms: C_16  and  S_22
REMARK    9  A    between atoms: C_18  and  N_19
REMARK   10  A    between atoms: S_22  and  N_25
REMARK   11  A    between atoms: N_25  and  C_26
REMARK                            x       y       z     vdW  Elec       q    Type
REMARK                         _______ _______ _______ _____ _____    ______ ____
ROOT
ATOM      1  C   UNL     1      -1.803  -5.410   5.256  0.00  0.00    +0.058 A 
ATOM      2  C   UNL     1      -1.132  -6.584   5.576  0.00  0.00    +0.027 A 
ATOM      3  C   UNL     1      -1.429  -7.249   6.749  0.00  0.00    +0.030 A 
ATOM      4  C   UNL     1      -2.393  -6.749   7.605  0.00  0.00    +0.108 A 
ATOM      5  C   UNL     1      -3.064  -5.582   7.289  0.00  0.00    +0.063 A 
ATOM      6  C   UNL     1      -2.768  -4.908   6.120  0.00  0.00    +0.149 A 
ENDROOT
BRANCH   6   7
ATOM      7  N   UNL     1      -3.482  -3.655   5.786  0.00  0.00    +0.058 N 
ATOM      8  O   UNL     1      -2.890  -2.747   5.251  0.00  0.00    -0.126 OA
ATOM      9  O   UNL     1      -4.656  -3.541   6.047  0.00  0.00    -0.126 OA
ENDBRANCH   6   7
BRANCH   4  10
ATOM     10  S   UNL     1      -2.769  -7.601   9.100  0.00  0.00    +0.058 S 
ATOM     11  O   UNL     1      -4.090  -7.224   9.462  0.00  0.00    -0.153 OA
ATOM     12  O   UNL     1      -2.392  -8.957   8.901  0.00  0.00    -0.153 OA
BRANCH  10  13
ATOM     13  N   UNL     1      -1.767  -6.998  10.273  0.00  0.00    -0.193 NA
ATOM     14  C   UNL     1      -1.888  -5.600  10.691  0.00  0.00    +0.127 C 
ATOM     15  H   UNL     1      -1.100  -7.571  10.682  0.00  0.00    +0.148 HD
ENDBRANCH  10  13
ENDBRANCH   4  10
BRANCH   1  16
ATOM     16  N   UNL     1      -1.505  -4.734   4.071  0.00  0.00    -0.336 N 
ATOM     17  H   UNL     1      -2.030  -3.962   3.807  0.00  0.00    +0.147 HD
BRANCH  16  18
ATOM     18  C   UNL     1      -0.400  -5.192   3.225  0.00  0.00    +0.105 C 
ATOM     19  C   UNL     1       0.912  -4.586   3.728  0.00  0.00    +0.031 C 
BRANCH  18  20
ATOM     20  C   UNL     1      -0.645  -4.749   1.781  0.00  0.00    +0.251 C 
BRANCH  20  21
ATOM     21  O   UNL     1      -0.612  -3.322   1.708  0.00  0.00    -0.490 OA
BRANCH  21  27
ATOM     22  C   UNL     1      -0.979   0.684  -1.055  0.00  0.00    +0.044 C 
ATOM     23  C   UNL     1      -1.000  -0.814  -0.899  0.00  0.00    -0.047 A 
ATOM     24  C   UNL     1      -1.224  -1.621  -2.000  0.00  0.00    +0.003 A 
ATOM     25  C   UNL     1      -1.244  -2.996  -1.860  0.00  0.00    +0.004 A 
ATOM     26  C   UNL     1      -1.039  -3.568  -0.619  0.00  0.00    +0.045 A 
ATOM     27  C   UNL     1      -0.813  -2.761   0.487  0.00  0.00    +0.121 A 
ATOM     28  C   UNL     1      -0.788  -1.382   0.343  0.00  0.00    +0.049 A 
ENDBRANCH  21  27
ENDBRANCH  20  21
ENDBRANCH  18  20
ENDBRANCH  16  18
ENDBRANCH   1  16
TORSDOF 8
