REMARK  Name = ZINC21944457
REMARK  12 active torsions:
REMARK  status: ('A' for Active; 'I' for Inactive)
REMARK    1  A    between atoms: C_1  and  C_2
REMARK    2  A    between atoms: C_2  and  C_3
REMARK    3  A    between atoms: C_3  and  C_5
REMARK    4  A    between atoms: C_3  and  N_15
REMARK    5  A    between atoms: C_5  and  N_6
REMARK    6  A    between atoms: N_6  and  C_7
REMARK    7  A    between atoms: N_6  and  C_8
REMARK    8  A    between atoms: C_8  and  C_9
REMARK    9  A    between atoms: C_16  and  C_18
REMARK   10  A    between atoms: C_18  and  N_19
REMARK   11  A    between atoms: N_26  and  C_31
REMARK   12  A    between atoms: C_31  and  C_32
REMARK                            x       y       z     vdW  Elec       q    Type
REMARK                         _______ _______ _______ _____ _____    ______ ____
ROOT
ATOM      1  C   UNL     1      -0.362   3.825  -0.005  0.00  0.00    +0.221 C 
ENDROOT
BRANCH   1   2
ATOM      2  N   UNL     1       0.742   2.862  -0.013  0.00  0.00    -0.293 N 
ATOM      3  C   UNL     1       0.474   1.497  -0.038  0.00  0.00    +0.069 A 
ATOM      4  C   UNL     1      -0.845   1.054  -0.053  0.00  0.00    +0.028 A 
ATOM      5  C   UNL     1      -1.119  -0.298  -0.077  0.00  0.00    +0.002 A 
ATOM      6  C   UNL     1      -0.085  -1.219  -0.086  0.00  0.00    +0.002 A 
ATOM      7  C   UNL     1       1.227  -0.792  -0.071  0.00  0.00    +0.028 A 
ATOM      8  C   UNL     1       1.516   0.568  -0.046  0.00  0.00    +0.069 A 
ATOM      9  N   UNL     1       2.842   0.991  -0.031  0.00  0.00    -0.298 N 
ATOM     10  C   UNL     1       3.131   2.308  -0.007  0.00  0.00    +0.317 A 
ATOM     11  O   UNL     1       4.287   2.682   0.006  0.00  0.00    -0.262 OA
ATOM     12  C   UNL     1       2.018   3.300   0.002  0.00  0.00    +0.317 A 
ATOM     13  O   UNL     1       2.257   4.491   0.023  0.00  0.00    -0.262 OA
BRANCH   9  14
ATOM     14  C   UNL     1       3.925   0.004  -0.040  0.00  0.00    +0.160 C 
BRANCH  14  15
ATOM     15  C   UNL     1       4.305  -0.311  -1.464  0.00  0.00    -0.028 A 
ATOM     16  C   UNL     1       3.677  -1.344  -2.135  0.00  0.00    +0.005 A 
ATOM     17  C   UNL     1       4.022  -1.630  -3.442  0.00  0.00    +0.000 A 
ATOM     18  C   UNL     1       5.003  -0.890  -4.076  0.00  0.00    +0.000 A 
ATOM     19  C   UNL     1       5.635   0.139  -3.404  0.00  0.00    +0.000 A 
ATOM     20  C   UNL     1       5.285   0.429  -2.098  0.00  0.00    +0.005 A 
ENDBRANCH  14  15
ENDBRANCH   9  14
ENDBRANCH   1   2
BRANCH   1  22
ATOM     21  N   UNL     1      -1.750   4.999   1.673  0.00  0.00    -0.313 N 
ATOM     22  C   UNL     1      -0.750   4.132   1.419  0.00  0.00    +0.233 C 
ATOM     23  O   UNL     1      -0.162   3.599   2.336  0.00  0.00    -0.274 OA
ATOM     24  H   UNL     1      -2.283   5.482   0.841  0.00  0.00    +0.149 HD
BRANCH  21  25
ATOM     25  C   UNL     1      -2.127   5.297   3.057  0.00  0.00    +0.056 C 
BRANCH  25  27
ATOM     26  C   UNL     1       0.127   6.238   3.579  0.00  0.00    +0.005 C 
ATOM     27  C   UNL     1      -1.372   6.539   3.534  0.00  0.00    +0.017 C 
ENDBRANCH  25  27
BRANCH  25  28
ATOM     28  C   UNL     1      -3.633   5.556   3.130  0.00  0.00    -0.056 C 
BRANCH  28  29
ATOM     29  N   UNL     1      -4.357   4.391   2.603  0.00  0.00    +0.382 N 
ATOM     30  C   UNL     1      -5.725   4.755   2.210  0.00  0.00    -0.096 C 
ATOM     31  H   UNL     1      -3.828   4.044   1.703  0.00  0.00    -0.082 HD
BRANCH  29  32
ATOM     32  C   UNL     1      -4.363   3.291   3.576  0.00  0.00    -0.043 C 
BRANCH  32  33
ATOM     33  C   UNL     1      -4.891   2.042   2.918  0.00  0.00    -0.064 A 
ATOM     34  C   UNL     1      -6.245   1.763   2.950  0.00  0.00    +0.002 A 
ATOM     35  C   UNL     1      -6.730   0.620   2.342  0.00  0.00    +0.000 A 
ATOM     36  C   UNL     1      -5.860  -0.249   1.711  0.00  0.00    +0.000 A 
ATOM     37  C   UNL     1      -4.506   0.026   1.684  0.00  0.00    +0.000 A 
ATOM     38  C   UNL     1      -4.021   1.172   2.287  0.00  0.00    +0.002 A 
ENDBRANCH  32  33
ENDBRANCH  29  32
ENDBRANCH  28  29
ENDBRANCH  25  28
ENDBRANCH  21  25
ENDBRANCH   1  22
TORSDOF 10
