REMARK  Name = ZINC45191417
REMARK  9 active torsions:
REMARK  status: ('A' for Active; 'I' for Inactive)
REMARK    1  A    between atoms: C_3  and  C_8
REMARK    2  A    between atoms: C_5  and  O_7
REMARK    3  A    between atoms: C_9  and  C_34
REMARK    4  A    between atoms: C_11  and  C_13
REMARK    5  A    between atoms: N_15  and  C_16
REMARK    6  A    between atoms: C_16  and  C_17
REMARK    7  A    between atoms: C_17  and  C_19
REMARK    8  A    between atoms: C_17  and  N_29
REMARK    9  A    between atoms: C_22  and  C_25
REMARK                            x       y       z     vdW  Elec       q    Type
REMARK                         _______ _______ _______ _____ _____    ______ ____
ROOT
ATOM      1  C   UNL     1       7.245   2.428   0.073  0.00  0.00    +0.279 C 
ATOM      2  O   UNL     1       7.952   3.374  -0.223  0.00  0.00    -0.267 OA
ATOM      3  N   UNL     1       7.783   1.198   0.198  0.00  0.00    -0.310 N 
ATOM      4  H   UNL     1       7.220   0.445   0.434  0.00  0.00    +0.149 HD
ENDROOT
BRANCH   1   8
ATOM      5  C   UNL     1       3.699   2.195   0.745  0.00  0.00    +0.144 A 
ATOM      6  C   UNL     1       3.792   3.555   0.484  0.00  0.00    +0.029 A 
ATOM      7  C   UNL     1       5.148   3.815   0.197  0.00  0.00    +0.063 A 
ATOM      8  C   UNL     1       5.809   2.626   0.293  0.00  0.00    +0.191 A 
ATOM      9  O   UNL     1       4.926   1.663   0.629  0.00  0.00    -0.450 OA
BRANCH   5  12
ATOM     10  C   UNL     1       0.447   1.286   2.388  0.00  0.00    +0.004 A 
ATOM     11  C   UNL     1       1.599   1.974   2.063  0.00  0.00    +0.012 A 
ATOM     12  C   UNL     1       2.467   1.463   1.095  0.00  0.00    +0.021 A 
ATOM     13  C   UNL     1       2.163   0.257   0.459  0.00  0.00    +0.057 A 
ATOM     14  C   UNL     1       1.005  -0.424   0.793  0.00  0.00    +0.118 A 
ATOM     15  C   UNL     1       0.149   0.092   1.757  0.00  0.00    +0.045 A 
BRANCH  14  16
ATOM     16  O   UNL     1       0.706  -1.598   0.177  0.00  0.00    -0.507 OA
ATOM     17  H   UNL     1       1.059  -2.378   0.626  0.00  0.00    +0.292 HD
ENDBRANCH  14  16
ENDBRANCH   5  12
BRANCH   6  18
ATOM     18  C   UNL     1       2.685   4.540   0.503  0.00  0.00    -0.011 A 
ATOM     19  C   UNL     1       1.537   4.346  -0.272  0.00  0.00    +0.028 A 
ATOM     20  C   UNL     1       0.531   5.287  -0.224  0.00  0.00    +0.111 A 
ATOM     21  N   UNL     1       0.641   6.359   0.538  0.00  0.00    -0.263 NA
ATOM     22  C   UNL     1       1.707   6.580   1.285  0.00  0.00    +0.111 A 
ATOM     23  C   UNL     1       2.757   5.686   1.301  0.00  0.00    +0.028 A 
ENDBRANCH   6  18
ENDBRANCH   1   8
BRANCH   3  24
ATOM     24  C   UNL     1       9.218   1.000  -0.021  0.00  0.00    +0.094 C 
BRANCH  24  25
ATOM     25  C   UNL     1       9.544  -0.492   0.052  0.00  0.00    -0.020 C 
BRANCH  25  26
ATOM     26  C   UNL     1       8.872  -1.210  -1.090  0.00  0.00    -0.059 A 
ATOM     27  C   UNL     1       9.440  -1.189  -2.350  0.00  0.00    +0.002 A 
ATOM     28  C   UNL     1       8.824  -1.848  -3.397  0.00  0.00    +0.012 A 
ATOM     29  C   UNL     1       7.639  -2.528  -3.185  0.00  0.00    +0.055 A 
ATOM     30  C   UNL     1       7.072  -2.550  -1.925  0.00  0.00    +0.012 A 
ATOM     31  C   UNL     1       7.690  -1.895  -0.876  0.00  0.00    +0.002 A 
BRANCH  29  32
ATOM     32  C   UNL     1       6.967  -3.245  -4.327  0.00  0.00    +0.417 C 
ATOM     33  F   UNL     1       7.439  -4.561  -4.394  0.00  0.00    -0.166 F 
ATOM     34  F   UNL     1       5.583  -3.256  -4.121  0.00  0.00    -0.166 F 
ATOM     35  F   UNL     1       7.255  -2.585  -5.526  0.00  0.00    -0.166 F 
ENDBRANCH  29  32
ENDBRANCH  25  26
BRANCH  25  36
ATOM     36  N   UNL     1      10.998  -0.681  -0.038  0.00  0.00    +0.385 N 
ATOM     37  C   UNL     1      11.665  -0.099   1.154  0.00  0.00    -0.078 C 
ATOM     38  C   UNL     1      13.024  -0.842   1.198  0.00  0.00    -0.020 C 
ATOM     39  C   UNL     1      12.648  -2.275   0.756  0.00  0.00    -0.020 C 
ATOM     40  C   UNL     1      11.327  -2.123  -0.020  0.00  0.00    -0.078 C 
ATOM     41  H   UNL     1      11.353  -0.254  -0.881  0.00  0.00    -0.081 HD
ENDBRANCH  25  36
ENDBRANCH  24  25
ENDBRANCH   3  24
TORSDOF 9
