REMARK  Name = ZINC01374689
REMARK  14 active torsions:
REMARK  status: ('A' for Active; 'I' for Inactive)
REMARK    1  A    between atoms: C_1  and  C_2
REMARK    2  A    between atoms: C_2  and  C_3
REMARK    3  A    between atoms: C_3  and  C_5
REMARK    4  A    between atoms: C_3  and  N_19
REMARK    5  A    between atoms: N_9  and  C_10
REMARK    6  A    between atoms: C_10  and  C_11
REMARK    7  A    between atoms: C_14  and  O_17
REMARK    8  A    between atoms: O_17  and  C_18
REMARK    9  A    between atoms: N_19  and  C_20
REMARK   10  A    between atoms: N_19  and  C_26
REMARK   11  A    between atoms: C_20  and  C_21
REMARK   12  A    between atoms: C_26  and  C_27
REMARK   13  A    between atoms: C_32  and  O_39
REMARK   14  A    between atoms: O_39  and  C_40
REMARK                            x       y       z     vdW  Elec       q    Type
REMARK                         _______ _______ _______ _____ _____    ______ ____
ROOT
ATOM      1  N   UNL     1      -0.123  -0.305  -2.467  0.00  0.00    -0.284 NA
ENDROOT
BRANCH   1   2
ATOM      2  C   UNL     1       0.950  -0.654  -1.526  0.00  0.00    +0.127 C 
BRANCH   2   3
ATOM      3  C   UNL     1       2.287  -0.364  -2.158  0.00  0.00    +0.169 A 
ATOM      4  N   UNL     1       2.655  -0.660  -3.381  0.00  0.00    -0.112 NA
ATOM      5  N   UNL     1       3.866  -0.249  -3.542  0.00  0.00    -0.023 NA
ATOM      6  N   UNL     1       4.279   0.300  -2.454  0.00  0.00    -0.044 NA
ATOM      7  N   UNL     1       3.332   0.254  -1.578  0.00  0.00    -0.223 N 
BRANCH   7   8
ATOM      8  C   UNL     1       3.386   0.773  -0.209  0.00  0.00    +0.182 C 
BRANCH   8   9
ATOM      9  C   UNL     1       3.893  -0.302   0.716  0.00  0.00    -0.026 A 
ATOM     10  C   UNL     1       3.001  -1.169   1.321  0.00  0.00    +0.009 A 
ATOM     11  C   UNL     1       3.463  -2.155   2.170  0.00  0.00    +0.046 A 
ATOM     12  C   UNL     1       4.823  -2.277   2.416  0.00  0.00    +0.120 A 
ATOM     13  C   UNL     1       5.716  -1.406   1.808  0.00  0.00    +0.046 A 
ATOM     14  C   UNL     1       5.249  -0.424   0.955  0.00  0.00    +0.009 A 
BRANCH  12  15
ATOM     15  O   UNL     1       5.280  -3.246   3.252  0.00  0.00    -0.495 OA
ATOM     16  C   UNL     1       6.693  -3.312   3.458  0.00  0.00    +0.277 C 
ENDBRANCH  12  15
ENDBRANCH   8   9
ENDBRANCH   7   8
ENDBRANCH   2   3
BRANCH   2  18
ATOM     17  C   UNL     1      -0.442  -2.414  -0.425  0.00  0.00    +0.006 C 
ATOM     18  C   UNL     1       0.861  -2.142  -1.181  0.00  0.00    +0.023 C 
ENDBRANCH   2  18
ENDBRANCH   1   2
BRANCH   1  19
ATOM     19  C   UNL     1       0.088  -0.952  -3.769  0.00  0.00    +0.127 C 
BRANCH  19  20
ATOM     20  C   UNL     1      -1.192  -0.911  -4.563  0.00  0.00    +0.004 A 
ATOM     21  C   UNL     1      -1.588  -0.015  -5.500  0.00  0.00    +0.012 A 
ATOM     22  C   UNL     1      -2.820  -0.179  -6.106  0.00  0.00    +0.008 A 
ATOM     23  C   UNL     1      -3.595  -1.231  -5.747  0.00  0.00    +0.045 A 
ATOM     24  S   UNL     1      -2.578  -2.037  -4.520  0.00  0.00    -0.100 S 
ENDBRANCH  19  20
ENDBRANCH   1  19
BRANCH   1  25
ATOM     25  C   UNL     1      -0.239   1.152  -2.615  0.00  0.00    +0.126 C 
BRANCH  25  26
ATOM     26  C   UNL     1      -0.924   1.727  -1.402  0.00  0.00    +0.031 A 
ATOM     27  C   UNL     1      -0.183   2.264  -0.399  0.00  0.00    +0.020 A 
ATOM     28  C   UNL     1      -0.877   2.814   0.764  0.00  0.00    -0.001 A 
ATOM     29  C   UNL     1      -0.166   3.381   1.829  0.00  0.00    +0.013 A 
ATOM     30  C   UNL     1      -0.840   3.887   2.901  0.00  0.00    +0.046 A 
ATOM     31  C   UNL     1      -2.233   3.845   2.946  0.00  0.00    +0.122 A 
ATOM     32  C   UNL     1      -2.954   3.289   1.904  0.00  0.00    +0.072 A 
ATOM     33  C   UNL     1      -2.285   2.769   0.804  0.00  0.00    +0.053 A 
ATOM     34  N   UNL     1      -2.978   2.211  -0.249  0.00  0.00    -0.322 N 
ATOM     35  H   UNL     1      -3.947   2.180  -0.221  0.00  0.00    +0.169 HD
ATOM     36  C   UNL     1      -2.331   1.711  -1.317  0.00  0.00    +0.254 A 
ATOM     37  O   UNL     1      -2.976   1.229  -2.231  0.00  0.00    -0.268 OA
BRANCH  31  38
ATOM     38  O   UNL     1      -2.888   4.353   4.022  0.00  0.00    -0.495 OA
ATOM     39  C   UNL     1      -2.086   4.912   5.064  0.00  0.00    +0.277 C 
ENDBRANCH  31  38
ENDBRANCH  25  26
ENDBRANCH   1  25
TORSDOF 11
