REMARK  Name = ZINC67193212
REMARK  11 active torsions:
REMARK  status: ('A' for Active; 'I' for Inactive)
REMARK    1  A    between atoms: C_1  and  C_2
REMARK    2  A    between atoms: C_7  and  N_12
REMARK    3  A    between atoms: C_9  and  C_11
REMARK    4  A    between atoms: N_12  and  C_13
REMARK    5  A    between atoms: C_13  and  N_15
REMARK    6  A    between atoms: N_15  and  N_16
REMARK    7  A    between atoms: C_17  and  C_19
REMARK    8  A    between atoms: C_19  and  C_20
REMARK    9  A    between atoms: C_20  and  C_22
REMARK   10  A    between atoms: C_20  and  N_23
REMARK   11  A    between atoms: C_24  and  C_26
REMARK                            x       y       z     vdW  Elec       q    Type
REMARK                         _______ _______ _______ _____ _____    ______ ____
ROOT
ATOM      1  N   UNL     1      -3.180  -3.451   1.244  0.00  0.00    -0.235 N 
ATOM      2  C   UNL     1      -4.444  -3.917   1.253  0.00  0.00    +0.231 C 
ATOM      3  O   UNL     1      -4.680  -5.023   1.694  0.00  0.00    -0.274 OA
ATOM      4  H   UNL     1      -2.992  -2.567   0.892  0.00  0.00    +0.173 HD
ENDROOT
BRANCH   1   5
ATOM      5  N   UNL     1      -2.137  -4.243   1.742  0.00  0.00    -0.246 N 
ATOM      6  H   UNL     1      -2.325  -5.127   2.094  0.00  0.00    +0.172 HD
BRANCH   5   7
ATOM      7  C   UNL     1      -0.873  -3.776   1.733  0.00  0.00    +0.147 C 
ATOM      8  S   UNL     1       0.401  -4.744   2.342  0.00  0.00    -0.017 S 
BRANCH   7   9
ATOM      9  N   UNL     1      -0.612  -2.548   1.244  0.00  0.00    -0.322 N 
ATOM     10  H   UNL     1      -1.333  -2.000   0.898  0.00  0.00    +0.148 HD
BRANCH   9  16
ATOM     11  C   UNL     1      -0.019   1.526   0.010  0.00  0.00    +0.008 C 
ATOM     12  C   UNL     1       0.002  -0.004   0.002  0.00  0.00    -0.009 C 
ATOM     13  C   UNL     1       0.718  -0.497  -1.257  0.00  0.00    +0.003 C 
ATOM     14  C   UNL     1       0.739  -2.027  -1.265  0.00  0.00    +0.002 C 
ATOM     15  C   UNL     1       1.479  -2.534  -0.026  0.00  0.00    +0.022 C 
ATOM     16  C   UNL     1       0.763  -2.041   1.233  0.00  0.00    +0.075 C 
ATOM     17  C   UNL     1       0.742  -0.511   1.242  0.00  0.00    +0.009 C 
ATOM     18  C   UNL     1       0.026  -0.018   2.500  0.00  0.00    +0.009 C 
ENDBRANCH   9  16
ENDBRANCH   7   9
ENDBRANCH   5   7
ENDBRANCH   1   5
BRANCH   2  19
ATOM     19  C   UNL     1      -5.566  -3.065   0.717  0.00  0.00    +0.119 C 
BRANCH  19  20
ATOM     20  C   UNL     1      -6.888  -3.824   0.844  0.00  0.00    +0.079 C 
ATOM     21  C   UNL     1      -8.042  -2.915   0.416  0.00  0.00    +0.028 C 
BRANCH  20  22
ATOM     22  N   UNL     1      -6.856  -5.009  -0.017  0.00  0.00    -0.312 N 
ATOM     23  C   UNL     1      -7.631  -6.073   0.271  0.00  0.00    +0.216 C 
ATOM     24  O   UNL     1      -8.356  -6.050   1.243  0.00  0.00    -0.276 OA
ATOM     25  H   UNL     1      -6.276  -5.028  -0.795  0.00  0.00    +0.149 HD
BRANCH  23  26
ATOM     26  C   UNL     1      -7.598  -7.292  -0.615  0.00  0.00    +0.075 C 
ATOM     27  C   UNL     1      -8.017  -6.903  -2.034  0.00  0.00    +0.013 C 
ATOM     28  C   UNL     1      -7.983  -8.140  -2.933  0.00  0.00    +0.001 C 
ATOM     29  C   UNL     1      -8.948  -9.194  -2.387  0.00  0.00    +0.000 C 
ATOM     30  C   UNL     1      -8.529  -9.583  -0.968  0.00  0.00    +0.001 C 
ATOM     31  C   UNL     1      -8.563  -8.346  -0.069  0.00  0.00    +0.013 C 
ENDBRANCH  23  26
ENDBRANCH  20  22
ENDBRANCH  19  20
ENDBRANCH   2  19
TORSDOF 8
