REMARK  Name = ZINC58112260
REMARK  6 active torsions:
REMARK  status: ('A' for Active; 'I' for Inactive)
REMARK    1  A    between atoms: C_4  and  C_7
REMARK    2  A    between atoms: C_7  and  N_8
REMARK    3  A    between atoms: N_16  and  C_17
REMARK    4  A    between atoms: C_17  and  C_18
REMARK    5  A    between atoms: C_18  and  S_19
REMARK    6  A    between atoms: S_19  and  N_22
REMARK                            x       y       z     vdW  Elec       q    Type
REMARK                         _______ _______ _______ _____ _____    ______ ____
ROOT
ATOM      1  N   UNL     1       4.152  -0.952   1.338  0.00  0.00    -0.265 N 
ATOM      2  C   UNL     1       4.472  -2.153   1.866  0.00  0.00    +0.110 A 
ATOM      3  C   UNL     1       4.828  -1.957   3.156  0.00  0.00    +0.065 A 
ATOM      4  C   UNL     1       4.721  -0.584   3.428  0.00  0.00    +0.148 A 
ATOM      5  N   UNL     1       4.320   0.018   2.333  0.00  0.00    -0.156 NA
ATOM      6  N   UNL     1       4.999   0.037   4.654  0.00  0.00    -0.253 N 
ATOM      7  C   UNL     1       5.411  -0.701   5.705  0.00  0.00    +0.305 C 
ATOM      8  O   UNL     1       5.541  -1.904   5.589  0.00  0.00    -0.252 OA
ATOM      9  N   UNL     1       5.678  -0.104   6.883  0.00  0.00    -0.297 N 
ATOM     10  H   UNL     1       4.896   0.997   4.747  0.00  0.00    +0.158 HD
ATOM     11  H   UNL     1       5.575   0.856   6.976  0.00  0.00    +0.150 HD
ENDROOT
BRANCH   1  12
ATOM     12  C   UNL     1       3.711  -0.707  -0.038  0.00  0.00    +0.178 C 
BRANCH  12  16
ATOM     13  C   UNL     1      -0.017   1.378   0.010  0.00  0.00    +0.000 A 
ATOM     14  C   UNL     1       1.171   2.086   0.002  0.00  0.00    +0.000 A 
ATOM     15  C   UNL     1       2.377   1.411  -0.013  0.00  0.00    +0.005 A 
ATOM     16  C   UNL     1       2.396   0.029  -0.020  0.00  0.00    -0.026 A 
ATOM     17  C   UNL     1       1.208  -0.679  -0.012  0.00  0.00    +0.005 A 
ATOM     18  C   UNL     1       0.002  -0.004   0.002  0.00  0.00    +0.000 A 
ENDBRANCH  12  16
ENDBRANCH   1  12
BRANCH   9  19
ATOM     19  C   UNL     1       6.126  -0.906   8.025  0.00  0.00    +0.130 C 
BRANCH  19  20
ATOM     20  C   UNL     1       6.358   0.007   9.230  0.00  0.00    +0.207 C 
BRANCH  20  21
ATOM     21  S   UNL     1       6.912  -0.985  10.644  0.00  0.00    +0.047 S 
ATOM     22  O   UNL     1       5.860  -1.831  11.090  0.00  0.00    -0.155 OA
ATOM     23  O   UNL     1       8.208  -1.511  10.395  0.00  0.00    -0.155 OA
BRANCH  21  24
ATOM     24  N   UNL     1       7.126   0.105  11.871  0.00  0.00    -0.207 N 
ATOM     25  C   UNL     1       8.376   0.818  12.152  0.00  0.00    +0.136 C 
ATOM     26  C   UNL     1       8.070   1.701  13.373  0.00  0.00    +0.058 C 
ATOM     27  C   UNL     1       6.622   1.410  13.699  0.00  0.00    -0.023 A 
ATOM     28  C   UNL     1       6.142   0.484  12.786  0.00  0.00    +0.054 A 
ATOM     29  C   UNL     1       4.815   0.061  12.884  0.00  0.00    +0.025 A 
ATOM     30  C   UNL     1       3.996   0.563  13.873  0.00  0.00    +0.002 A 
ATOM     31  C   UNL     1       4.484   1.490  14.776  0.00  0.00    +0.000 A 
ATOM     32  C   UNL     1       5.799   1.907  14.691  0.00  0.00    +0.005 A 
ENDBRANCH  21  24
ENDBRANCH  20  21
ENDBRANCH  19  20
ENDBRANCH   9  19
TORSDOF 6
