REMARK  Name = ZINC39711547
REMARK  14 active torsions:
REMARK  status: ('A' for Active; 'I' for Inactive)
REMARK    1  A    between atoms: C_1  and  C_2
REMARK    2  A    between atoms: C_2  and  O_3
REMARK    3  A    between atoms: O_3  and  C_4
REMARK    4  A    between atoms: C_11  and  C_16
REMARK    5  A    between atoms: C_16  and  C_18
REMARK    6  A    between atoms: C_16  and  N_28
REMARK    7  A    between atoms: N_23  and  C_24
REMARK    8  A    between atoms: C_24  and  C_25
REMARK    9  A    between atoms: C_24  and  C_26
REMARK   10  A    between atoms: C_24  and  C_27
REMARK   11  A    between atoms: N_28  and  C_29
REMARK   12  A    between atoms: N_28  and  C_37
REMARK   13  A    between atoms: C_29  and  C_30
REMARK   14  A    between atoms: C_37  and  C_38
REMARK                            x       y       z     vdW  Elec       q    Type
REMARK                         _______ _______ _______ _____ _____    ______ ____
ROOT
ATOM      1  C   UNL     1       1.567  -6.226  -4.918  0.00  0.00    -0.008 C 
ENDROOT
BRANCH   1   9
ATOM      2  C   UNL     1       0.792  -1.228  -2.003  0.00  0.00    +0.121 A 
ATOM      3  C   UNL     1       0.184  -1.893  -0.931  0.00  0.00    +0.047 A 
ATOM      4  C   UNL     1       0.215  -3.244  -0.797  0.00  0.00    +0.027 A 
ATOM      5  C   UNL     1       0.874  -4.043  -1.750  0.00  0.00    +0.041 A 
ATOM      6  N   UNL     1       0.896  -5.368  -1.605  0.00  0.00    -0.285 N 
ATOM      7  C   UNL     1       1.496  -6.178  -2.461  0.00  0.00    +0.223 C 
ATOM      8  O   UNL     1       1.483  -7.381  -2.276  0.00  0.00    -0.275 OA
ATOM      9  C   UNL     1       2.198  -5.604  -3.671  0.00  0.00    +0.088 C 
ATOM     10  C   UNL     1       2.176  -4.098  -3.840  0.00  0.00    -0.006 C 
ATOM     11  C   UNL     1       1.523  -3.372  -2.889  0.00  0.00    -0.004 A 
ATOM     12  C   UNL     1       1.449  -1.913  -2.980  0.00  0.00    +0.055 A 
ATOM     13  H   UNL     1       0.452  -5.756  -0.835  0.00  0.00    +0.155 HD
BRANCH   2  14
ATOM     14  O   UNL     1       0.720   0.128  -2.073  0.00  0.00    -0.492 OA
BRANCH  14  16
ATOM     15  C   UNL     1       0.044   2.305  -1.271  0.00  0.00    +0.048 C 
ATOM     16  C   UNL     1       0.019   0.796  -1.022  0.00  0.00    +0.225 C 
ENDBRANCH  14  16
ENDBRANCH   2  14
ENDBRANCH   1   9
BRANCH   1  17
ATOM     17  C   UNL     1       0.054  -6.005  -4.888  0.00  0.00    +0.205 C 
ATOM     18  N   UNL     1      -0.570  -6.864  -3.873  0.00  0.00    -0.152 NA
ATOM     19  N   UNL     1      -1.365  -7.625  -4.429  0.00  0.00    -0.070 NA
ATOM     20  N   UNL     1      -1.421  -7.437  -5.809  0.00  0.00    -0.179 N 
ATOM     21  N   UNL     1      -0.555  -6.433  -6.165  0.00  0.00    -0.183 NA
ATOM     22  H   UNL     1      -1.983  -7.937  -6.422  0.00  0.00    +0.191 HD
BRANCH  21  23
ATOM     23  C   UNL     1      -1.270  -5.321  -6.806  0.00  0.00    +0.035 C 
ATOM     24  C   UNL     1      -0.296  -4.172  -7.069  0.00  0.00    +0.029 C 
ATOM     25  C   UNL     1      -1.868  -5.796  -8.132  0.00  0.00    +0.029 C 
ATOM     26  C   UNL     1      -2.393  -4.838  -5.885  0.00  0.00    +0.029 C 
ENDBRANCH  21  23
ENDBRANCH   1  17
BRANCH   1  27
ATOM     27  N   UNL     1       1.851  -7.667  -4.944  0.00  0.00    +0.392 N 
ATOM     28  H   UNL     1       1.381  -8.116  -4.173  0.00  0.00    -0.080 HD
BRANCH  27  29
ATOM     29  C   UNL     1       3.299  -7.883  -4.828  0.00  0.00    -0.042 C 
BRANCH  29  30
ATOM     30  C   UNL     1       4.004  -7.181  -5.960  0.00  0.00    -0.064 A 
ATOM     31  C   UNL     1       4.130  -7.803  -7.188  0.00  0.00    +0.004 A 
ATOM     32  C   UNL     1       4.776  -7.159  -8.226  0.00  0.00    +0.038 A 
ATOM     33  C   UNL     1       5.297  -5.891  -8.037  0.00  0.00    +0.123 A 
ATOM     34  C   UNL     1       5.171  -5.269  -6.806  0.00  0.00    +0.038 A 
ATOM     35  C   UNL     1       4.520  -5.912  -5.771  0.00  0.00    +0.004 A 
ATOM     36  F   UNL     1       5.929  -5.261  -9.051  0.00  0.00    -0.205 F 
ENDBRANCH  29  30
ENDBRANCH  27  29
BRANCH  27  37
ATOM     37  C   UNL     1       1.370  -8.238  -6.210  0.00  0.00    -0.002 C 
BRANCH  37  38
ATOM     38  C   UNL     1       1.596  -9.728  -6.206  0.00  0.00    +0.089 A 
ATOM     39  C   UNL     1       0.693 -10.659  -5.849  0.00  0.00    +0.042 A 
ATOM     40  C   UNL     1       1.323 -11.917  -5.996  0.00  0.00    +0.041 A 
ATOM     41  C   UNL     1       2.572 -11.679  -6.433  0.00  0.00    +0.195 A 
ATOM     42  O   UNL     1       2.730 -10.352  -6.564  0.00  0.00    -0.470 OA
ENDBRANCH  37  38
ENDBRANCH  27  37
ENDBRANCH   1  27
TORSDOF 10
