REMARK  Name = ZINC20137896
REMARK  5 active torsions:
REMARK  status: ('A' for Active; 'I' for Inactive)
REMARK    1  A    between atoms: C_1  and  C_2
REMARK    2  A    between atoms: C_3  and  C_28
REMARK    3  A    between atoms: C_9  and  C_12
REMARK    4  A    between atoms: C_14  and  C_17
REMARK    5  A    between atoms: C_18  and  C_27
REMARK                            x       y       z     vdW  Elec       q    Type
REMARK                         _______ _______ _______ _____ _____    ______ ____
ROOT
ATOM      1  C   UNL     1       1.181   3.565   0.010  0.00  0.00    +0.259 A 
ATOM      2  N   UNL     1       2.238   4.356   0.009  0.00  0.00    -0.187 NA
ATOM      3  C   UNL     1       1.749   5.613   0.016  0.00  0.00    +0.204 A 
ATOM      4  N   UNL     1       0.444   5.524   0.028  0.00  0.00    -0.056 NA
ATOM      5  O   UNL     1       0.100   4.361   0.025  0.00  0.00    -0.332 OA
ENDROOT
BRANCH   3   6
ATOM      6  C   UNL     1       2.545   6.866   0.015  0.00  0.00    +0.047 A 
ATOM      7  C   UNL     1       3.937   6.821   0.006  0.00  0.00    +0.049 A 
ATOM      8  N   UNL     1       4.641   7.934  -0.000  0.00  0.00    -0.259 NA
ATOM      9  C   UNL     1       4.068   9.121   0.012  0.00  0.00    +0.113 A 
ATOM     10  C   UNL     1       2.688   9.250   0.028  0.00  0.00    -0.043 A 
ATOM     11  C   UNL     1       1.909   8.112   0.028  0.00  0.00    -0.034 A 
ATOM     12  C   UNL     1       0.407   8.175   0.039  0.00  0.00    +0.017 C 
ATOM     13  C   UNL     1      -0.051   9.573   0.462  0.00  0.00    -0.077 C 
ATOM     14  N   UNL     1       0.669  10.567  -0.350  0.00  0.00    +0.382 N 
ATOM     15  C   UNL     1       2.080  10.626   0.047  0.00  0.00    -0.045 C 
ATOM     16  C   UNL     1       4.642   5.489  -0.000  0.00  0.00    +0.066 C 
ATOM     17  H   UNL     1       0.607  10.288  -1.412  0.00  0.00    -0.085 HD
ATOM     18  H   UNL     1       0.214  11.558  -0.204  0.00  0.00    -0.085 HD
ENDBRANCH   3   6
BRANCH   1  27
ATOM     19  C   UNL     1      -2.528  -0.807   0.023  0.00  0.00    +0.046 C 
ATOM     20  C   UNL     1      -1.039  -1.036   0.006  0.00  0.00    -0.022 A 
ATOM     21  C   UNL     1      -0.413  -2.223  -0.006  0.00  0.00    +0.017 A 
ATOM     22  N   UNL     1       0.943  -2.036  -0.018  0.00  0.00    -0.358 N 
ATOM     23  H   UNL     1       1.617  -2.905  -0.029  0.00  0.00    +0.166 HD
ATOM     24  C   UNL     1       1.231  -0.692  -0.013  0.00  0.00    +0.047 A 
ATOM     25  C   UNL     1       0.002  -0.004   0.002  0.00  0.00    +0.004 A 
ATOM     26  C   UNL     1      -0.017   1.389   0.010  0.00  0.00    +0.023 A 
ATOM     27  C   UNL     1       1.186   2.088   0.002  0.00  0.00    +0.040 A 
ATOM     28  C   UNL     1       2.402   1.392  -0.014  0.00  0.00    +0.015 A 
ATOM     29  C   UNL     1       2.424   0.029  -0.021  0.00  0.00    +0.027 A 
ATOM     30  C   UNL     1      -1.101  -3.563  -0.007  0.00  0.00    +0.063 C 
ENDBRANCH   1  27
TORSDOF 2
