REMARK  Name = ZINC12193826
REMARK  7 active torsions:
REMARK  status: ('A' for Active; 'I' for Inactive)
REMARK    1  A    between atoms: C_1  and  C_2
REMARK    2  A    between atoms: C_3  and  C_17
REMARK    3  A    between atoms: N_6  and  C_7
REMARK    4  A    between atoms: C_17  and  C_19
REMARK    5  A    between atoms: C_17  and  N_49
REMARK    6  A    between atoms: C_20  and  C_21
REMARK    7  A    between atoms: C_20  and  N_49
REMARK                            x       y       z     vdW  Elec       q    Type
REMARK                         _______ _______ _______ _____ _____    ______ ____
ROOT
ATOM      1  C   UNL     1       8.395   3.757  -2.115  0.00  0.00    +0.066 C 
ATOM      2  C   UNL     1       7.373   3.160  -3.048  0.00  0.00    +0.043 A 
ATOM      3  C   UNL     1       6.051   3.013  -2.797  0.00  0.00    -0.021 A 
ATOM      4  C   UNL     1       5.462   2.425  -3.921  0.00  0.00    +0.137 A 
ATOM      5  N   UNL     1       6.394   2.220  -4.816  0.00  0.00    -0.174 NA
ATOM      6  N   UNL     1       7.612   2.671  -4.292  0.00  0.00    -0.236 N 
ENDROOT
BRANCH   6   7
ATOM      7  C   UNL     1       8.853   2.630  -4.937  0.00  0.00    +0.073 A 
ATOM      8  C   UNL     1       9.959   2.129  -4.286  0.00  0.00    +0.028 A 
ATOM      9  C   UNL     1      11.197   2.083  -4.918  0.00  0.00    +0.003 A 
ATOM     10  C   UNL     1      11.352   2.532  -6.195  0.00  0.00    +0.008 A 
ATOM     11  C   UNL     1      10.249   3.051  -6.894  0.00  0.00    -0.016 A 
ATOM     12  C   UNL     1       8.982   3.096  -6.262  0.00  0.00    +0.008 A 
ATOM     13  C   UNL     1       7.879   3.609  -6.964  0.00  0.00    +0.010 A 
ATOM     14  C   UNL     1       8.040   4.050  -8.242  0.00  0.00    +0.001 A 
ATOM     15  C   UNL     1       9.285   4.001  -8.866  0.00  0.00    +0.001 A 
ATOM     16  C   UNL     1      10.378   3.522  -8.212  0.00  0.00    +0.008 A 
ENDBRANCH   6   7
BRANCH   3  17
ATOM     17  C   UNL     1       5.339   3.416  -1.531  0.00  0.00    -0.040 C 
ATOM     18  C   UNL     1       4.962   4.897  -1.609  0.00  0.00    -0.009 C 
BRANCH  17  19
ATOM     19  N   UNL     1       4.117   2.603  -1.383  0.00  0.00    +0.386 N 
ATOM     20  H   UNL     1       4.293   1.659  -1.745  0.00  0.00    -0.085 HD
ATOM     21  H   UNL     1       3.355   3.038  -1.917  0.00  0.00    -0.085 HD
BRANCH  19  22
ATOM     22  C   UNL     1       3.729   2.517   0.037  0.00  0.00    -0.046 C 
BRANCH  22  23
ATOM     23  C   UNL     1       2.480   1.682   0.157  0.00  0.00    -0.062 A 
ATOM     24  C   UNL     1       2.596   0.304   0.336  0.00  0.00    +0.004 A 
ATOM     25  C   UNL     1       1.505  -0.490   0.451  0.00  0.00    +0.031 A 
ATOM     26  C   UNL     1       0.205   0.076   0.389  0.00  0.00    +0.100 A 
ATOM     27  C   UNL     1       0.083   1.519   0.201  0.00  0.00    +0.100 A 
ATOM     28  C   UNL     1       1.270   2.288   0.089  0.00  0.00    +0.032 A 
ATOM     29  N   UNL     1      -1.188   1.913   0.167  0.00  0.00    -0.191 NA
ATOM     30  S   UNL     1      -2.053   0.618   0.339  0.00  0.00    +0.116 S 
ATOM     31  N   UNL     1      -0.983  -0.519   0.477  0.00  0.00    -0.191 NA
ENDBRANCH  22  23
ENDBRANCH  19  22
ENDBRANCH  17  19
ENDBRANCH   3  17
TORSDOF 5
