REMARK  Name = ZINC12880834
REMARK  8 active torsions:
REMARK  status: ('A' for Active; 'I' for Inactive)
REMARK    1  A    between atoms: C_1  and  C_2
REMARK    2  A    between atoms: C_2  and  C_3
REMARK    3  A    between atoms: C_2  and  C_4
REMARK    4  A    between atoms: C_2  and  C_5
REMARK    5  A    between atoms: C_5  and  C_7
REMARK    6  A    between atoms: C_7  and  S_8
REMARK    7  A    between atoms: S_8  and  C_9
REMARK    8  A    between atoms: C_17  and  C_19
REMARK                            x       y       z     vdW  Elec       q    Type
REMARK                         _______ _______ _______ _____ _____    ______ ____
ROOT
ATOM      1  C   UNL     1      -1.286   3.410   0.032  0.00  0.00    +0.109 A 
ATOM      2  C   UNL     1      -0.039   4.173   0.024  0.00  0.00    +0.032 A 
ATOM      3  C   UNL     1      -0.020   5.569   0.031  0.00  0.00    +0.012 A 
ATOM      4  C   UNL     1       1.178   6.225   0.024  0.00  0.00    +0.001 A 
ATOM      5  C   UNL     1       2.378   5.520   0.009  0.00  0.00    +0.002 A 
ATOM      6  C   UNL     1       2.393   4.157   0.002  0.00  0.00    +0.028 A 
ATOM      7  C   UNL     1       1.181   3.451   0.009  0.00  0.00    +0.076 A 
ATOM      8  N   UNL     1       1.137   2.113   0.003  0.00  0.00    -0.225 NA
ATOM      9  C   UNL     1      -0.018   1.471   0.010  0.00  0.00    +0.197 A 
ATOM     10  N   UNL     1      -1.200   2.087   0.019  0.00  0.00    -0.218 NA
ENDROOT
BRANCH   9  11
ATOM     11  C   UNL     1       0.002  -0.004   0.002  0.00  0.00    +0.172 A 
ATOM     12  C   UNL     1      -1.089  -0.818   0.008  0.00  0.00    +0.053 A 
ATOM     13  C   UNL     1      -0.608  -2.140  -0.004  0.00  0.00    +0.042 A 
ATOM     14  C   UNL     1       0.739  -2.071  -0.016  0.00  0.00    +0.196 A 
ATOM     15  O   UNL     1       1.104  -0.780  -0.018  0.00  0.00    -0.460 OA
ENDBRANCH   9  11
BRANCH   1  16
ATOM     16  S   UNL     1      -2.850   4.222   0.050  0.00  0.00    -0.098 S 
BRANCH  16  17
ATOM     17  C   UNL     1      -3.950   2.784   0.053  0.00  0.00    +0.150 C 
BRANCH  17  18
ATOM     18  C   UNL     1      -5.384   3.248   0.069  0.00  0.00    +0.149 C 
ATOM     19  O   UNL     1      -5.636   4.429   0.077  0.00  0.00    -0.296 OA
BRANCH  18  21
ATOM     20  C   UNL     1      -7.848   2.969   0.091  0.00  0.00    +0.018 C 
ATOM     21  C   UNL     1      -6.503   2.239   0.075  0.00  0.00    +0.021 C 
ATOM     22  C   UNL     1      -6.410   1.368  -1.180  0.00  0.00    +0.018 C 
ATOM     23  C   UNL     1      -6.387   1.356   1.318  0.00  0.00    +0.018 C 
ENDBRANCH  18  21
ENDBRANCH  17  18
ENDBRANCH  16  17
ENDBRANCH   1  16
TORSDOF 5
