REMARK  Name = ZINC60330193
REMARK  11 active torsions:
REMARK  status: ('A' for Active; 'I' for Inactive)
REMARK    1  A    between atoms: C_1  and  C_2
REMARK    2  A    between atoms: C_2  and  C_3
REMARK    3  A    between atoms: C_2  and  C_4
REMARK    4  A    between atoms: C_9  and  O_10
REMARK    5  A    between atoms: O_10  and  C_11
REMARK    6  A    between atoms: C_11  and  C_12
REMARK    7  A    between atoms: C_12  and  C_14
REMARK    8  A    between atoms: C_12  and  O_34
REMARK    9  A    between atoms: C_14  and  N_15
REMARK   10  A    between atoms: N_22  and  C_24
REMARK   11  A    between atoms: C_24  and  C_25
REMARK                            x       y       z     vdW  Elec       q    Type
REMARK                         _______ _______ _______ _____ _____    ______ ____
ROOT
ATOM      1  N   UNL     1      -0.077  -3.714  -6.345  0.00  0.00    -0.222 N 
ATOM      2  C   UNL     1       0.182  -2.871  -7.366  0.00  0.00    +0.245 C 
ATOM      3  O   UNL     1      -0.369  -1.818  -7.606  0.00  0.00    -0.273 OA
ATOM      4  C   UNL     1       1.304  -3.515  -8.146  0.00  0.00    +0.098 C 
ATOM      5  C   UNL     1       2.536  -2.615  -8.150  0.00  0.00    +0.031 C 
ATOM      6  C   UNL     1       3.639  -3.277  -8.983  0.00  0.00    -0.016 C 
ATOM      7  C   UNL     1       3.103  -3.563 -10.388  0.00  0.00    -0.078 C 
ATOM      8  N   UNL     1       1.952  -4.470 -10.304  0.00  0.00    +0.384 N 
ATOM      9  C   UNL     1       0.858  -3.818  -9.572  0.00  0.00    -0.043 C 
ATOM     10  N   UNL     1       1.579  -4.759  -7.416  0.00  0.00    -0.287 N 
ATOM     11  C   UNL     1       0.725  -4.785  -6.375  0.00  0.00    +0.309 C 
ATOM     12  O   UNL     1       0.684  -5.683  -5.556  0.00  0.00    -0.252 OA
ATOM     13  H   UNL     1       2.245  -5.428  -7.638  0.00  0.00    +0.151 HD
ATOM     14  H   UNL     1       2.223  -5.313  -9.822  0.00  0.00    -0.081 HD
ENDROOT
BRANCH   1  15
ATOM     15  C   UNL     1      -1.104  -3.482  -5.326  0.00  0.00    +0.152 C 
BRANCH  15  16
ATOM     16  C   UNL     1      -0.497  -2.704  -4.157  0.00  0.00    +0.170 C 
BRANCH  16  17
ATOM     17  O   UNL     1       0.576  -3.457  -3.589  0.00  0.00    -0.387 OA
ATOM     18  H   UNL     1       0.312  -4.322  -3.249  0.00  0.00    +0.210 HD
ENDBRANCH  16  17
BRANCH  16  19
ATOM     19  C   UNL     1      -1.570  -2.462  -3.094  0.00  0.00    +0.262 C 
BRANCH  19  20
ATOM     20  O   UNL     1      -1.035  -1.636  -2.057  0.00  0.00    -0.489 OA
BRANCH  20  26
ATOM     21  C   UNL     1      -1.412  -0.526   0.013  0.00  0.00    -0.003 A 
ATOM     22  C   UNL     1      -2.259  -0.205   1.056  0.00  0.00    +0.007 A 
ATOM     23  C   UNL     1      -3.556  -0.683   1.066  0.00  0.00    +0.001 A 
ATOM     24  C   UNL     1      -4.009  -1.484   0.034  0.00  0.00    +0.004 A 
ATOM     25  C   UNL     1      -3.166  -1.807  -1.012  0.00  0.00    +0.046 A 
ATOM     26  C   UNL     1      -1.865  -1.324  -1.027  0.00  0.00    +0.124 A 
BRANCH  21  28
ATOM     27  C   UNL     1      -0.019   1.526   0.010  0.00  0.00    +0.012 C 
ATOM     28  C   UNL     1       0.002  -0.004   0.002  0.00  0.00    +0.016 C 
ATOM     29  C   UNL     1       0.742  -0.511   1.242  0.00  0.00    +0.012 C 
ENDBRANCH  21  28
ENDBRANCH  20  26
ENDBRANCH  19  20
ENDBRANCH  16  19
ENDBRANCH  15  16
ENDBRANCH   1  15
BRANCH   8  30
ATOM     30  C   UNL     1       1.498  -4.809 -11.660  0.00  0.00    -0.043 C 
BRANCH  30  31
ATOM     31  C   UNL     1       2.573  -5.592 -12.368  0.00  0.00    -0.064 A 
ATOM     32  C   UNL     1       3.541  -4.932 -13.101  0.00  0.00    +0.002 A 
ATOM     33  C   UNL     1       4.527  -5.651 -13.751  0.00  0.00    +0.000 A 
ATOM     34  C   UNL     1       4.545  -7.030 -13.667  0.00  0.00    +0.000 A 
ATOM     35  C   UNL     1       3.578  -7.691 -12.933  0.00  0.00    +0.000 A 
ATOM     36  C   UNL     1       2.595  -6.972 -12.280  0.00  0.00    +0.002 A 
ENDBRANCH  30  31
ENDBRANCH   8  30
TORSDOF 9
