REMARK  Name = ZINC58979392
REMARK  3 active torsions:
REMARK  status: ('A' for Active; 'I' for Inactive)
REMARK    1  A    between atoms: C_3  and  N_20
REMARK    2  A    between atoms: C_6  and  N_7
REMARK    3  A    between atoms: C_8  and  C_10
REMARK                            x       y       z     vdW  Elec       q    Type
REMARK                         _______ _______ _______ _____ _____    ______ ____
ROOT
ATOM      1  C   UNL     1       1.056  -0.216  -0.687  0.00  0.00    +0.025 A 
ATOM      2  C   UNL     1       2.127   0.654  -0.739  0.00  0.00    +0.025 A 
ATOM      3  C   UNL     1       2.032   1.908  -0.148  0.00  0.00    +0.030 A 
ATOM      4  C   UNL     1       0.861   2.286   0.495  0.00  0.00    +0.025 A 
ATOM      5  C   UNL     1      -0.210   1.415   0.547  0.00  0.00    +0.025 A 
ATOM      6  C   UNL     1      -0.115   0.162  -0.043  0.00  0.00    +0.034 A 
ENDROOT
BRANCH   3   7
ATOM      7  N   UNL     1       3.117   2.789  -0.201  0.00  0.00    -0.320 N 
ATOM      8  C   UNL     1       3.013   4.165   0.315  0.00  0.00    +0.124 C 
ATOM      9  C   UNL     1       4.021   4.325   1.454  0.00  0.00    +0.123 C 
ATOM     10  N   UNL     1       5.321   3.790   1.073  0.00  0.00    -0.313 N 
ATOM     11  C   UNL     1       5.516   2.889   0.109  0.00  0.00    +0.230 C 
ATOM     12  O   UNL     1       6.637   2.459  -0.063  0.00  0.00    -0.274 OA
ATOM     13  C   UNL     1       4.410   2.378  -0.767  0.00  0.00    +0.200 C 
ATOM     14  H   UNL     1       6.100   4.112   1.553  0.00  0.00    +0.149 HD
ENDBRANCH   3   7
BRANCH   6  15
ATOM     15  N   UNL     1      -1.202  -0.721   0.010  0.00  0.00    -0.285 N 
ATOM     16  C   UNL     1      -0.988  -2.048   0.113  0.00  0.00    +0.223 C 
ATOM     17  O   UNL     1       0.140  -2.470   0.259  0.00  0.00    -0.275 OA
ATOM     18  H   UNL     1      -2.108  -0.378  -0.028  0.00  0.00    +0.155 HD
BRANCH  16  19
ATOM     19  C   UNL     1      -2.149  -3.006   0.046  0.00  0.00    +0.048 C 
ATOM     20  C   UNL     1      -2.862  -2.850  -1.298  0.00  0.00    +0.019 C 
ATOM     21  C   UNL     1      -4.041  -3.823  -1.366  0.00  0.00    -0.009 C 
ATOM     22  C   UNL     1      -3.528  -5.257  -1.224  0.00  0.00    +0.007 C 
ATOM     23  C   UNL     1      -2.814  -5.413   0.120  0.00  0.00    -0.009 C 
ATOM     24  C   UNL     1      -1.635  -4.440   0.188  0.00  0.00    +0.019 C 
ATOM     25  C   UNL     1      -3.793  -5.107   1.255  0.00  0.00    +0.007 C 
ATOM     26  C   UNL     1      -4.307  -3.673   1.114  0.00  0.00    -0.009 C 
ATOM     27  C   UNL     1      -5.020  -3.517  -0.231  0.00  0.00    +0.007 C 
ATOM     28  C   UNL     1      -3.128  -2.700   1.181  0.00  0.00    +0.019 C 
ENDBRANCH  16  19
ENDBRANCH   6  15
TORSDOF 3
