REMARK  Name = ZINC38672443
REMARK  13 active torsions:
REMARK  status: ('A' for Active; 'I' for Inactive)
REMARK    1  A    between atoms: C_1  and  C_2
REMARK    2  A    between atoms: C_2  and  C_3
REMARK    3  A    between atoms: C_2  and  C_4
REMARK    4  A    between atoms: C_2  and  C_5
REMARK    5  A    between atoms: C_8  and  O_11
REMARK    6  A    between atoms: O_11  and  C_12
REMARK    7  A    between atoms: C_12  and  C_13
REMARK    8  A    between atoms: N_15  and  C_16
REMARK    9  A    between atoms: C_16  and  C_17
REMARK   10  A    between atoms: C_17  and  C_19
REMARK   11  A    between atoms: C_17  and  N_29
REMARK   12  A    between atoms: N_27  and  C_28
REMARK   13  A    between atoms: N_32  and  C_35
REMARK                            x       y       z     vdW  Elec       q    Type
REMARK                         _______ _______ _______ _____ _____    ______ ____
ROOT
ATOM      1  C   UNL     1       7.745  -1.789  -7.951  0.00  0.00    +0.104 C 
ENDROOT
BRANCH   1   2
ATOM      2  C   UNL     1       7.739  -3.076  -8.735  0.00  0.00    -0.028 A 
ATOM      3  C   UNL     1       7.498  -4.277  -8.093  0.00  0.00    +0.007 A 
ATOM      4  C   UNL     1       7.493  -5.456  -8.807  0.00  0.00    +0.024 A 
ATOM      5  C   UNL     1       7.730  -5.447 -10.183  0.00  0.00    +0.033 A 
ATOM      6  C   UNL     1       7.971  -4.238 -10.816  0.00  0.00    -0.025 A 
ATOM      7  C   UNL     1       7.970  -3.058 -10.097  0.00  0.00    +0.010 A 
ATOM      8  C   UNL     1       8.194  -4.502 -12.288  0.00  0.00    +0.056 C 
ATOM      9  C   UNL     1       8.053  -6.026 -12.433  0.00  0.00    +0.109 C 
ATOM     10  N   UNL     1       7.768  -6.515 -11.081  0.00  0.00    -0.332 N 
ATOM     11  C   UNL     1       7.555  -7.920 -10.724  0.00  0.00    +0.129 C 
ENDBRANCH   1   2
BRANCH   1  12
ATOM     12  N   UNL     1       8.971  -1.711  -7.146  0.00  0.00    -0.297 NA
ATOM     13  C   UNL     1      10.146  -1.478  -7.997  0.00  0.00    +0.066 C 
ATOM     14  C   UNL     1      11.391  -1.344  -7.118  0.00  0.00    -0.064 C 
ATOM     15  N   UNL     1      11.570  -2.572  -6.332  0.00  0.00    +0.379 N 
ATOM     16  C   UNL     1      10.400  -2.778  -5.468  0.00  0.00    -0.064 C 
ATOM     17  C   UNL     1       9.146  -2.924  -6.334  0.00  0.00    +0.066 C 
ATOM     18  C   UNL     1      12.775  -2.450  -5.501  0.00  0.00    -0.096 C 
ATOM     19  H   UNL     1      11.670  -3.358  -6.956  0.00  0.00    -0.082 HD
ENDBRANCH   1  12
BRANCH   1  20
ATOM     20  C   UNL     1       6.525  -1.748  -7.027  0.00  0.00    +0.128 C 
BRANCH  20  23
ATOM     21  C   UNL     1       5.553  -0.242  -5.378  0.00  0.00    +0.251 C 
ATOM     22  O   UNL     1       4.591  -0.978  -5.316  0.00  0.00    -0.272 OA
ATOM     23  N   UNL     1       6.575  -0.538  -6.204  0.00  0.00    -0.311 N 
ATOM     24  H   UNL     1       7.345   0.051  -6.254  0.00  0.00    +0.149 HD
BRANCH  21  25
ATOM     25  C   UNL     1       5.605   1.004  -4.531  0.00  0.00    +0.324 C 
BRANCH  25  26
ATOM     26  O   UNL     1       4.414   1.096  -3.746  0.00  0.00    -0.483 OA
BRANCH  26  30
ATOM     27  C   UNL     1       4.071   4.354  -1.239  0.00  0.00    -0.042 A 
ATOM     28  C   UNL     1       3.058   3.414  -1.292  0.00  0.00    +0.008 A 
ATOM     29  C   UNL     1       3.171   2.322  -2.130  0.00  0.00    +0.046 A 
ATOM     30  C   UNL     1       4.301   2.170  -2.921  0.00  0.00    +0.121 A 
ATOM     31  C   UNL     1       5.315   3.115  -2.867  0.00  0.00    +0.046 A 
ATOM     32  C   UNL     1       5.196   4.207  -2.030  0.00  0.00    +0.008 A 
BRANCH  27  34
ATOM     33  C   UNL     1       3.988   6.831  -1.150  0.00  0.00    +0.015 C 
ATOM     34  C   UNL     1       3.946   5.544  -0.323  0.00  0.00    -0.013 C 
ATOM     35  C   UNL     1       5.104   5.542   0.677  0.00  0.00    +0.015 C 
ATOM     36  C   UNL     1       2.619   5.468   0.434  0.00  0.00    +0.015 C 
ENDBRANCH  27  34
ENDBRANCH  26  30
ENDBRANCH  25  26
ENDBRANCH  21  25
ENDBRANCH  20  23
ENDBRANCH   1  20
TORSDOF 8
