REMARK  Name = ZINC43234165
REMARK  5 active torsions:
REMARK  status: ('A' for Active; 'I' for Inactive)
REMARK    1  A    between atoms: C_4  and  C_7
REMARK    2  A    between atoms: C_7  and  C_9
REMARK    3  A    between atoms: C_7  and  N_20
REMARK    4  A    between atoms: C_18  and  O_19
REMARK    5  A    between atoms: N_23  and  C_24
REMARK                            x       y       z     vdW  Elec       q    Type
REMARK                         _______ _______ _______ _____ _____    ______ ____
ROOT
ATOM      1  C   UNL     1       3.621  -0.617  -0.143  0.00  0.00    +0.139 C 
ENDROOT
BRANCH   1   2
ATOM      2  C   UNL     1       3.915  -1.101  -1.540  0.00  0.00    +0.026 A 
ATOM      3  C   UNL     1       4.925  -0.490  -2.301  0.00  0.00    -0.009 A 
ATOM      4  C   UNL     1       5.681   0.578  -1.787  0.00  0.00    +0.009 A 
ATOM      5  C   UNL     1       6.652   1.145  -2.553  0.00  0.00    +0.001 A 
ATOM      6  C   UNL     1       6.910   0.685  -3.843  0.00  0.00    +0.001 A 
ATOM      7  C   UNL     1       6.198  -0.347  -4.374  0.00  0.00    +0.008 A 
ATOM      8  C   UNL     1       5.187  -0.959  -3.613  0.00  0.00    -0.017 A 
ATOM      9  C   UNL     1       4.433  -2.027  -4.129  0.00  0.00    +0.012 A 
ATOM     10  C   UNL     1       3.462  -2.597  -3.366  0.00  0.00    +0.046 A 
ATOM     11  C   UNL     1       3.204  -2.140  -2.070  0.00  0.00    +0.123 A 
BRANCH  11  12
ATOM     12  O   UNL     1       2.232  -2.733  -1.330  0.00  0.00    -0.506 OA
ATOM     13  H   UNL     1       1.351  -2.358  -1.465  0.00  0.00    +0.292 HD
ENDBRANCH  11  12
ENDBRANCH   1   2
BRANCH   1  17
ATOM     14  C   UNL     1      -0.058   1.554  -0.136  0.00  0.00    +0.000 A 
ATOM     15  C   UNL     1       1.139   2.222  -0.321  0.00  0.00    +0.000 A 
ATOM     16  C   UNL     1       2.329   1.520  -0.323  0.00  0.00    +0.006 A 
ATOM     17  C   UNL     1       2.324   0.149  -0.140  0.00  0.00    -0.023 A 
ATOM     18  C   UNL     1       1.127  -0.518   0.046  0.00  0.00    +0.006 A 
ATOM     19  C   UNL     1      -0.063   0.184   0.047  0.00  0.00    +0.000 A 
ENDBRANCH   1  17
BRANCH   1  20
ATOM     20  N   UNL     1       3.513  -1.766   0.759  0.00  0.00    -0.288 N 
ATOM     21  C   UNL     1       3.756  -1.613   2.076  0.00  0.00    +0.305 C 
ATOM     22  O   UNL     1       4.065  -0.522   2.515  0.00  0.00    -0.252 OA
ATOM     23  N   UNL     1       3.656  -2.670   2.906  0.00  0.00    -0.268 N 
ATOM     24  H   UNL     1       3.266  -2.636   0.409  0.00  0.00    +0.151 HD
ATOM     25  H   UNL     1       3.340  -3.524   2.570  0.00  0.00    +0.156 HD
BRANCH  23  26
ATOM     26  C   UNL     1       4.007  -2.537   4.255  0.00  0.00    +0.053 A 
ATOM     27  C   UNL     1       3.765  -1.345   4.933  0.00  0.00    +0.026 A 
ATOM     28  C   UNL     1       4.129  -1.261   6.267  0.00  0.00    +0.021 A 
ATOM     29  C   UNL     1       4.717  -2.354   6.876  0.00  0.00    +0.111 A 
ATOM     30  N   UNL     1       4.933  -3.469   6.206  0.00  0.00    -0.261 NA
ATOM     31  C   UNL     1       4.596  -3.593   4.937  0.00  0.00    +0.134 A 
ENDBRANCH  23  26
ENDBRANCH   1  20
TORSDOF 5
