REMARK  Name = ZINC34759116
REMARK  9 active torsions:
REMARK  status: ('A' for Active; 'I' for Inactive)
REMARK    1  A    between atoms: C_1  and  C_2
REMARK    2  A    between atoms: C_2  and  C_3
REMARK    3  A    between atoms: C_3  and  N_4
REMARK    4  A    between atoms: C_12  and  C_31
REMARK    5  A    between atoms: C_13  and  C_30
REMARK    6  A    between atoms: C_17  and  S_19
REMARK    7  A    between atoms: S_19  and  C_20
REMARK    8  A    between atoms: C_20  and  C_21
REMARK    9  A    between atoms: C_24  and  N_27
REMARK                            x       y       z     vdW  Elec       q    Type
REMARK                         _______ _______ _______ _____ _____    ______ ____
ROOT
ATOM      1  N   UNL     1       0.027  -3.318  -0.723  0.00  0.00    +0.382 N 
ATOM      2  C   UNL     1      -0.066  -4.734  -1.097  0.00  0.00    -0.060 C 
ATOM      3  C   UNL     1      -1.496  -5.231  -0.859  0.00  0.00    +0.088 C 
ATOM      4  N   UNL     1      -1.861  -4.947   0.538  0.00  0.00    -0.318 N 
ATOM      5  C   UNL     1      -1.645  -3.584   1.047  0.00  0.00    +0.088 C 
ATOM      6  C   UNL     1      -0.208  -3.165   0.718  0.00  0.00    -0.060 C 
ATOM      7  C   UNL     1      -2.393  -5.934   1.348  0.00  0.00    +0.134 A 
ATOM      8  C   UNL     1      -3.783  -6.232   1.299  0.00  0.00    +0.051 A 
ATOM      9  C   UNL     1      -4.831  -5.640   0.484  0.00  0.00    -0.028 A 
ATOM     10  C   UNL     1      -6.088  -6.087   0.608  0.00  0.00    -0.008 A 
ATOM     11  S   UNL     1      -5.957  -7.359   1.850  0.00  0.00    -0.073 S 
ATOM     12  C   UNL     1      -4.216  -7.256   2.169  0.00  0.00    +0.115 A 
ATOM     13  N   UNL     1      -3.375  -7.883   2.968  0.00  0.00    -0.215 NA
ATOM     14  C   UNL     1      -2.088  -7.562   2.971  0.00  0.00    +0.191 A 
ATOM     15  N   UNL     1      -1.614  -6.612   2.173  0.00  0.00    -0.206 NA
ATOM     16  C   UNL     1      -7.320  -5.624  -0.127  0.00  0.00    +0.052 C 
ATOM     17  C   UNL     1      -4.507  -4.535  -0.488  0.00  0.00    +0.045 C 
ATOM     18  H   UNL     1      -0.665  -2.791  -1.233  0.00  0.00    -0.082 HD
ENDROOT
BRANCH   1  19
ATOM     19  C   UNL     1       1.366  -2.812  -1.054  0.00  0.00    -0.079 C 
BRANCH  19  21
ATOM     20  C   UNL     1       2.961  -2.329  -2.916  0.00  0.00    +0.002 C 
ATOM     21  C   UNL     1       1.567  -2.855  -2.571  0.00  0.00    -0.022 C 
ENDBRANCH  19  21
ENDBRANCH   1  19
BRANCH  14  22
ATOM     22  S   UNL     1      -0.986  -8.416   4.048  0.00  0.00    -0.081 S 
BRANCH  22  23
ATOM     23  C   UNL     1      -2.052  -9.599   4.918  0.00  0.00    +0.112 C 
BRANCH  23  24
ATOM     24  C   UNL     1      -1.223 -10.406   5.884  0.00  0.00    -0.037 A 
ATOM     25  C   UNL     1      -0.634 -11.586   5.471  0.00  0.00    +0.007 A 
ATOM     26  C   UNL     1       0.127 -12.326   6.357  0.00  0.00    +0.033 A 
ATOM     27  C   UNL     1       0.297 -11.886   7.657  0.00  0.00    +0.126 A 
ATOM     28  C   UNL     1      -0.292 -10.705   8.069  0.00  0.00    +0.033 A 
ATOM     29  C   UNL     1      -1.048  -9.963   7.182  0.00  0.00    +0.007 A 
BRANCH  27  30
ATOM     30  N   UNL     1       1.110 -12.678   8.606  0.00  0.00    +0.056 N 
ATOM     31  O   UNL     1       1.625 -13.711   8.245  0.00  0.00    -0.126 OA
ATOM     32  O   UNL     1       1.260 -12.293   9.742  0.00  0.00    -0.126 OA
ENDBRANCH  27  30
ENDBRANCH  23  24
ENDBRANCH  22  23
ENDBRANCH  14  22
TORSDOF 6
