REMARK  Name = ZINC60358191
REMARK  8 active torsions:
REMARK  status: ('A' for Active; 'I' for Inactive)
REMARK    1  A    between atoms: C_4  and  N_7
REMARK    2  A    between atoms: N_10  and  C_13
REMARK    3  A    between atoms: C_13  and  C_14
REMARK    4  A    between atoms: C_14  and  C_16
REMARK    5  A    between atoms: C_14  and  O_36
REMARK    6  A    between atoms: C_16  and  N_17
REMARK    7  A    between atoms: N_20  and  C_23
REMARK    8  A    between atoms: C_23  and  C_24
REMARK                            x       y       z     vdW  Elec       q    Type
REMARK                         _______ _______ _______ _____ _____    ______ ____
ROOT
ATOM      1  N   UNL     1       8.546  -5.686  -2.519  0.00  0.00    -0.303 NA
ATOM      2  C   UNL     1       9.490  -6.223  -3.509  0.00  0.00    +0.066 C 
ATOM      3  C   UNL     1       9.791  -7.687  -3.182  0.00  0.00    -0.063 C 
ATOM      4  N   UNL     1      10.365  -7.779  -1.833  0.00  0.00    +0.386 N 
ATOM      5  C   UNL     1       9.401  -7.262  -0.852  0.00  0.00    -0.063 C 
ATOM      6  C   UNL     1       9.097  -5.795  -1.161  0.00  0.00    +0.066 C 
ATOM      7  H   UNL     1      11.213  -7.234  -1.790  0.00  0.00    -0.081 HD
ENDROOT
BRANCH   1   8
ATOM      8  C   UNL     1       8.188  -4.296  -2.832  0.00  0.00    +0.116 C 
BRANCH   8   9
ATOM      9  C   UNL     1       6.880  -3.935  -2.124  0.00  0.00    +0.142 C 
BRANCH   9  10
ATOM     10  O   UNL     1       5.827  -4.766  -2.617  0.00  0.00    -0.389 OA
ATOM     11  H   UNL     1       5.670  -4.681  -3.567  0.00  0.00    +0.210 HD
ENDBRANCH   9  10
BRANCH   9  12
ATOM     12  C   UNL     1       6.542  -2.468  -2.397  0.00  0.00    +0.117 C 
BRANCH  12  16
ATOM     13  N   UNL     1       3.464  -0.648  -0.199  0.00  0.00    -0.327 N 
ATOM     14  C   UNL     1       4.194  -1.745   0.455  0.00  0.00    +0.120 C 
ATOM     15  C   UNL     1       5.535  -1.932  -0.261  0.00  0.00    +0.103 C 
ATOM     16  N   UNL     1       5.298  -2.115  -1.699  0.00  0.00    -0.297 NA
ATOM     17  C   UNL     1       4.682  -0.921  -2.293  0.00  0.00    +0.103 C 
ATOM     18  C   UNL     1       3.300  -0.696  -1.660  0.00  0.00    +0.120 C 
BRANCH  13  22
ATOM     19  C   UNL     1       1.889   2.498   2.026  0.00  0.00    +0.000 A 
ATOM     20  C   UNL     1       1.791   2.513   0.647  0.00  0.00    +0.002 A 
ATOM     21  C   UNL     1       2.313   1.471  -0.094  0.00  0.00    +0.023 A 
ATOM     22  C   UNL     1       2.936   0.408   0.547  0.00  0.00    +0.030 A 
ATOM     23  C   UNL     1       3.032   0.397   1.933  0.00  0.00    +0.023 A 
ATOM     24  C   UNL     1       2.508   1.442   2.668  0.00  0.00    +0.002 A 
ENDBRANCH  13  22
ENDBRANCH  12  16
ENDBRANCH   9  12
ENDBRANCH   8   9
ENDBRANCH   1   8
BRANCH   4  25
ATOM     25  C   UNL     1      10.670  -9.183  -1.526  0.00  0.00    -0.003 C 
BRANCH  25  26
ATOM     26  C   UNL     1      11.371  -9.265  -0.194  0.00  0.00    +0.094 A 
ATOM     27  N   UNL     1      11.742 -10.489   0.264  0.00  0.00    -0.312 N 
ATOM     28  H   UNL     1      11.553 -11.278  -0.266  0.00  0.00    +0.170 HD
ATOM     29  C   UNL     1      12.375 -10.616   1.454  0.00  0.00    +0.259 A 
ATOM     30  O   UNL     1      12.714 -11.706   1.877  0.00  0.00    -0.267 OA
ATOM     31  C   UNL     1      12.636  -9.386   2.217  0.00  0.00    +0.065 A 
ATOM     32  C   UNL     1      13.280  -9.408   3.452  0.00  0.00    +0.015 A 
ATOM     33  C   UNL     1      13.500  -8.225   4.124  0.00  0.00    +0.001 A 
ATOM     34  C   UNL     1      13.085  -7.016   3.580  0.00  0.00    +0.002 A 
ATOM     35  C   UNL     1      12.447  -6.973   2.361  0.00  0.00    +0.028 A 
ATOM     36  C   UNL     1      12.213  -8.159   1.661  0.00  0.00    +0.078 A 
ATOM     37  N   UNL     1      11.593  -8.162   0.454  0.00  0.00    -0.236 NA
ENDBRANCH  25  26
ENDBRANCH   4  25
TORSDOF 8
