REMARK  Name = ZINC40794823
REMARK  11 active torsions:
REMARK  status: ('A' for Active; 'I' for Inactive)
REMARK    1  A    between atoms: C_1  and  C_2
REMARK    2  A    between atoms: C_2  and  N_3
REMARK    3  A    between atoms: C_4  and  C_6
REMARK    4  A    between atoms: C_10  and  N_11
REMARK    5  A    between atoms: C_12  and  C_14
REMARK    6  A    between atoms: C_18  and  O_20
REMARK    7  A    between atoms: O_20  and  C_21
REMARK    8  A    between atoms: C_21  and  C_22
REMARK    9  A    between atoms: N_26  and  C_27
REMARK   10  A    between atoms: C_27  and  C_28
REMARK   11  A    between atoms: C_27  and  C_29
REMARK                            x       y       z     vdW  Elec       q    Type
REMARK                         _______ _______ _______ _____ _____    ______ ____
ROOT
ATOM      1  N   UNL     1      -0.537  -2.370  -4.043  0.00  0.00    -0.275 N 
ATOM      2  C   UNL     1      -1.044  -2.655  -5.258  0.00  0.00    +0.249 C 
ATOM      3  O   UNL     1      -0.311  -3.041  -6.148  0.00  0.00    -0.270 OA
ATOM      4  H   UNL     1      -1.122  -2.062  -3.333  0.00  0.00    +0.156 HD
ENDROOT
BRANCH   1   9
ATOM      5  C   UNL     1       1.513  -2.271  -2.631  0.00  0.00    +0.069 A 
ATOM      6  C   UNL     1       2.946  -2.510  -2.643  0.00  0.00    -0.023 A 
ATOM      7  C   UNL     1       3.425  -2.942  -3.829  0.00  0.00    -0.004 A 
ATOM      8  S   UNL     1       2.006  -3.026  -4.882  0.00  0.00    -0.077 S 
ATOM      9  C   UNL     1       0.821  -2.516  -3.807  0.00  0.00    +0.085 A 
ATOM     10  C   UNL     1       4.848  -3.272  -4.158  0.00  0.00    +0.043 C 
ATOM     11  C   UNL     1       5.745  -2.687  -3.058  0.00  0.00    +0.005 C 
ATOM     12  C   UNL     1       5.167  -3.068  -1.692  0.00  0.00    +0.005 C 
ATOM     13  C   UNL     1       3.864  -2.304  -1.447  0.00  0.00    +0.037 C 
BRANCH   5  15
ATOM     14  N   UNL     1       0.688  -0.476  -1.203  0.00  0.00    -0.312 N 
ATOM     15  C   UNL     1       0.827  -1.799  -1.425  0.00  0.00    +0.247 C 
ATOM     16  O   UNL     1       0.383  -2.600  -0.624  0.00  0.00    -0.270 OA
ATOM     17  H   UNL     1       1.042   0.162  -1.842  0.00  0.00    +0.149 HD
BRANCH  14  19
ATOM     18  C   UNL     1      -0.019   1.526   0.010  0.00  0.00    +0.024 C 
ATOM     19  C   UNL     1       0.002  -0.004   0.002  0.00  0.00    +0.101 C 
ENDBRANCH  14  19
ENDBRANCH   5  15
ENDBRANCH   1   9
BRANCH   2  20
ATOM     20  C   UNL     1      -2.493  -2.500  -5.509  0.00  0.00    +0.040 A 
ATOM     21  C   UNL     1      -3.336  -2.052  -4.490  0.00  0.00    +0.013 A 
ATOM     22  C   UNL     1      -4.688  -1.908  -4.728  0.00  0.00    +0.004 A 
ATOM     23  C   UNL     1      -5.211  -2.206  -5.973  0.00  0.00    +0.046 A 
ATOM     24  C   UNL     1      -4.380  -2.652  -6.992  0.00  0.00    +0.122 A 
ATOM     25  C   UNL     1      -3.021  -2.795  -6.766  0.00  0.00    +0.058 A 
BRANCH  24  26
ATOM     26  O   UNL     1      -4.900  -2.945  -8.213  0.00  0.00    -0.484 OA
BRANCH  26  27
ATOM     27  C   UNL     1      -6.308  -2.769  -8.377  0.00  0.00    +0.306 C 
BRANCH  27  28
ATOM     28  C   UNL     1      -6.700  -3.139  -9.785  0.00  0.00    +0.189 A 
ATOM     29  N   UNL     1      -6.738  -2.340 -10.823  0.00  0.00    -0.110 NA
ATOM     30  N   UNL     1      -7.120  -3.029 -11.842  0.00  0.00    -0.023 NA
ATOM     31  N   UNL     1      -7.325  -4.247 -11.482  0.00  0.00    -0.044 NA
ATOM     32  N   UNL     1      -7.072  -4.357 -10.222  0.00  0.00    -0.224 N 
BRANCH  32  33
ATOM     33  C   UNL     1      -7.174  -5.577  -9.416  0.00  0.00    +0.105 C 
ATOM     34  C   UNL     1      -8.612  -6.098  -9.460  0.00  0.00    +0.032 C 
ATOM     35  C   UNL     1      -6.229  -6.640  -9.979  0.00  0.00    +0.032 C 
ENDBRANCH  32  33
ENDBRANCH  27  28
ENDBRANCH  26  27
ENDBRANCH  24  26
ENDBRANCH   2  20
TORSDOF 8
