REMARK  Name = ZINC04914101
REMARK  8 active torsions:
REMARK  status: ('A' for Active; 'I' for Inactive)
REMARK    1  A    between atoms: C_1  and  C_2
REMARK    2  A    between atoms: C_5  and  C_9
REMARK    3  A    between atoms: C_7  and  C_8
REMARK    4  A    between atoms: C_12  and  S_14
REMARK    5  A    between atoms: S_14  and  C_15
REMARK    6  A    between atoms: C_15  and  C_16
REMARK    7  A    between atoms: N_18  and  C_19
REMARK    8  A    between atoms: C_22  and  C_25
REMARK                            x       y       z     vdW  Elec       q    Type
REMARK                         _______ _______ _______ _____ _____    ______ ____
ROOT
ATOM      1  C   UNL     1       2.425  -4.236  -0.258  0.00  0.00    +0.175 C 
ENDROOT
BRANCH   1   2
ATOM      2  C   UNL     1       2.410  -2.734  -0.137  0.00  0.00    +0.228 C 
ATOM      3  O   UNL     1       3.452  -2.114  -0.144  0.00  0.00    -0.275 OA
ATOM      4  N   UNL     1       1.237  -2.079  -0.020  0.00  0.00    -0.285 N 
ATOM      5  H   UNL     1       0.409  -2.578   0.062  0.00  0.00    +0.155 HD
BRANCH   4   6
ATOM      6  C   UNL     1       1.214  -0.680  -0.019  0.00  0.00    +0.033 A 
ATOM      7  C   UNL     1       2.137   0.031  -0.774  0.00  0.00    +0.024 A 
ATOM      8  C   UNL     1       2.111   1.412  -0.771  0.00  0.00    +0.014 A 
ATOM      9  C   UNL     1       1.168   2.086  -0.017  0.00  0.00    +0.055 A 
ATOM     10  C   UNL     1       0.248   1.380   0.736  0.00  0.00    +0.014 A 
ATOM     11  C   UNL     1       0.268  -0.001   0.737  0.00  0.00    +0.024 A 
BRANCH   9  12
ATOM     12  C   UNL     1       1.143   3.593  -0.015  0.00  0.00    +0.417 C 
ATOM     13  F   UNL     1       0.306   4.046  -1.041  0.00  0.00    -0.166 F 
ATOM     14  F   UNL     1       0.662   4.050   1.216  0.00  0.00    -0.166 F 
ATOM     15  F   UNL     1       2.438   4.081  -0.221  0.00  0.00    -0.166 F 
ENDBRANCH   9  12
ENDBRANCH   4   6
ENDBRANCH   1   2
BRANCH   1  16
ATOM     16  S   UNL     1       4.135  -4.812  -0.398  0.00  0.00    -0.056 S 
BRANCH  16  20
ATOM     17  C   UNL     1       4.160  -8.680  -0.709  0.00  0.00    +0.249 A 
ATOM     18  N   UNL     1       2.878  -8.426  -0.619  0.00  0.00    -0.106 NA
ATOM     19  N   UNL     1       2.700  -7.157  -0.508  0.00  0.00    -0.101 NA
ATOM     20  C   UNL     1       3.864  -6.549  -0.522  0.00  0.00    +0.278 A 
ATOM     21  O   UNL     1       4.811  -7.496  -0.655  0.00  0.00    -0.411 OA
BRANCH  17  26
ATOM     22  C   UNL     1       6.575 -13.874  -1.254  0.00  0.00    +0.044 C 
ATOM     23  C   UNL     1       5.943 -12.513  -1.111  0.00  0.00    -0.047 A 
ATOM     24  C   UNL     1       6.741 -11.384  -1.065  0.00  0.00    +0.004 A 
ATOM     25  C   UNL     1       6.168 -10.135  -0.940  0.00  0.00    +0.013 A 
ATOM     26  C   UNL     1       4.780 -10.013  -0.849  0.00  0.00    +0.039 A 
ATOM     27  C   UNL     1       3.981 -11.157  -0.897  0.00  0.00    +0.016 A 
ATOM     28  C   UNL     1       4.566 -12.399  -1.028  0.00  0.00    -0.047 A 
ATOM     29  C   UNL     1       3.705 -13.634  -1.080  0.00  0.00    +0.044 C 
ENDBRANCH  17  26
ENDBRANCH  16  20
ENDBRANCH   1  16
TORSDOF 6
