REMARK  Name = ZINC00979776
REMARK  7 active torsions:
REMARK  status: ('A' for Active; 'I' for Inactive)
REMARK    1  A    between atoms: C_1  and  N_2
REMARK    2  A    between atoms: N_2  and  C_3
REMARK    3  A    between atoms: N_2  and  C_4
REMARK    4  A    between atoms: C_7  and  C_10
REMARK    5  A    between atoms: C_13  and  C_23
REMARK    6  A    between atoms: C_13  and  O_27
REMARK    7  A    between atoms: C_15  and  C_17
REMARK                            x       y       z     vdW  Elec       q    Type
REMARK                         _______ _______ _______ _____ _____    ______ ____
ROOT
ATOM      1  C   UNL     1      -0.353   6.614  -0.108  0.00  0.00    +0.269 C 
ATOM      2  O   UNL     1      -0.041   7.781   0.031  0.00  0.00    -0.268 OA
ATOM      3  N   UNL     1       0.591   5.653  -0.058  0.00  0.00    -0.148 N 
ATOM      4  C   UNL     1       2.040   5.880   0.073  0.00  0.00    +0.257 C 
ATOM      5  C   UNL     1       2.622   4.452   0.083  0.00  0.00    +0.119 C 
ATOM      6  C   UNL     1       1.405   3.565  -0.055  0.00  0.00    +0.045 C 
ATOM      7  N   UNL     1       0.358   4.281  -0.122  0.00  0.00    -0.183 NA
ENDROOT
BRANCH   1  11
ATOM      8  C   UNL     1      -4.417   5.564  -0.752  0.00  0.00    +0.029 A 
ATOM      9  C   UNL     1      -4.043   6.905  -0.714  0.00  0.00    +0.024 A 
ATOM     10  C   UNL     1      -2.727   7.248  -0.505  0.00  0.00    +0.015 A 
ATOM     11  C   UNL     1      -1.765   6.249  -0.331  0.00  0.00    +0.039 A 
ATOM     12  C   UNL     1      -2.142   4.904  -0.375  0.00  0.00    +0.015 A 
ATOM     13  C   UNL     1      -3.461   4.567  -0.580  0.00  0.00    +0.024 A 
BRANCH   8  15
ATOM     14  C   UNL     1      -6.755   6.269  -1.146  0.00  0.00    +0.129 C 
ATOM     15  N   UNL     1      -5.747   5.221  -0.964  0.00  0.00    -0.336 N 
ATOM     16  C   UNL     1      -6.143   3.811  -1.004  0.00  0.00    +0.129 C 
ENDBRANCH   8  15
ENDBRANCH   1  11
BRANCH   6  17
ATOM     17  C   UNL     1       1.430   2.059  -0.101  0.00  0.00    +0.035 C 
ATOM     18  C   UNL     1      -0.004   1.525  -0.115  0.00  0.00    +0.009 C 
ATOM     19  C   UNL     1       0.021  -0.004  -0.162  0.00  0.00    +0.001 C 
ATOM     20  C   UNL     1       0.748  -0.463  -1.427  0.00  0.00    +0.000 C 
ATOM     21  C   UNL     1       2.182   0.070  -1.413  0.00  0.00    +0.001 C 
ATOM     22  C   UNL     1       2.157   1.599  -1.367  0.00  0.00    +0.009 C 
ENDBRANCH   6  17
BRANCH   4  23
ATOM     23  C   UNL     1       2.358   6.596   1.387  0.00  0.00    +0.438 C 
ATOM     24  F   UNL     1       1.894   5.829   2.460  0.00  0.00    -0.166 F 
ATOM     25  F   UNL     1       3.742   6.769   1.500  0.00  0.00    -0.166 F 
ATOM     26  F   UNL     1       1.729   7.846   1.401  0.00  0.00    -0.166 F 
ENDBRANCH   4  23
BRANCH   4  27
ATOM     27  O   UNL     1       2.536   6.624  -1.042  0.00  0.00    -0.363 OA
ATOM     28  H   UNL     1       3.604   6.880  -1.101  0.00  0.00    +0.212 HD
ENDBRANCH   4  27
TORSDOF 5
