REMARK  Name = ZINC59792329
REMARK  11 active torsions:
REMARK  status: ('A' for Active; 'I' for Inactive)
REMARK    1  A    between atoms: C_2  and  C_3
REMARK    2  A    between atoms: C_3  and  N_4
REMARK    3  A    between atoms: C_5  and  C_26
REMARK    4  A    between atoms: C_8  and  S_9
REMARK    5  A    between atoms: S_9  and  C_10
REMARK    6  A    between atoms: C_10  and  C_11
REMARK    7  A    between atoms: C_11  and  C_12
REMARK    8  A    between atoms: N_14  and  C_15
REMARK    9  A    between atoms: C_18  and  O_21
REMARK   10  A    between atoms: O_21  and  C_22
REMARK   11  A    between atoms: C_29  and  N_32
REMARK                            x       y       z     vdW  Elec       q    Type
REMARK                         _______ _______ _______ _____ _____    ______ ____
ROOT
ATOM      1  S   UNL     1       0.681  -3.947  -0.701  0.00  0.00    -0.086 S 
ENDROOT
BRANCH   1   6
ATOM      2  N   UNL     1       1.524  -1.768   0.837  0.00  0.00    -0.298 N 
ATOM      3  C   UNL     1       1.737  -1.521   2.174  0.00  0.00    +0.165 A 
ATOM      4  N   UNL     1       1.464  -2.631   2.820  0.00  0.00    -0.128 NA
ATOM      5  N   UNL     1       1.099  -3.542   1.990  0.00  0.00    -0.122 NA
ATOM      6  C   UNL     1       1.112  -3.068   0.764  0.00  0.00    +0.192 A 
BRANCH   3   7
ATOM      7  C   UNL     1       2.189  -0.246   2.771  0.00  0.00    +0.019 A 
ATOM      8  C   UNL     1       2.778  -0.234   4.036  0.00  0.00    +0.014 A 
ATOM      9  C   UNL     1       3.198   0.959   4.587  0.00  0.00    +0.033 A 
ATOM     10  C   UNL     1       3.037   2.142   3.888  0.00  0.00    +0.126 A 
ATOM     11  C   UNL     1       2.454   2.137   2.633  0.00  0.00    +0.033 A 
ATOM     12  C   UNL     1       2.035   0.950   2.068  0.00  0.00    +0.014 A 
BRANCH  10  13
ATOM     13  N   UNL     1       3.490   3.419   4.485  0.00  0.00    +0.056 N 
ATOM     14  O   UNL     1       3.999   3.426   5.581  0.00  0.00    -0.126 OA
ATOM     15  O   UNL     1       3.350   4.454   3.876  0.00  0.00    -0.126 OA
ENDBRANCH  10  13
ENDBRANCH   3   7
BRANCH   2  16
ATOM     16  C   UNL     1       1.696  -0.830  -0.275  0.00  0.00    +0.152 C 
BRANCH  16  18
ATOM     17  C   UNL     1       0.255   1.096  -0.692  0.00  0.00    +0.005 C 
ATOM     18  C   UNL     1       0.368  -0.207  -0.617  0.00  0.00    -0.013 C 
ENDBRANCH  16  18
ENDBRANCH   2  16
ENDBRANCH   1   6
BRANCH   1  19
ATOM     19  C   UNL     1       0.231  -5.600  -0.105  0.00  0.00    +0.086 C 
BRANCH  19  20
ATOM     20  C   UNL     1      -0.169  -6.479  -1.291  0.00  0.00    +0.107 C 
BRANCH  20  21
ATOM     21  C   UNL     1      -0.543  -7.852  -0.796  0.00  0.00    +0.218 C 
ATOM     22  O   UNL     1      -0.494  -8.103   0.390  0.00  0.00    -0.275 OA
ATOM     23  N   UNL     1      -0.932  -8.801  -1.671  0.00  0.00    -0.285 N 
ATOM     24  H   UNL     1      -0.906  -8.623  -2.623  0.00  0.00    +0.155 HD
BRANCH  23  25
ATOM     25  C   UNL     1      -1.374 -10.046  -1.203  0.00  0.00    +0.034 A 
ATOM     26  C   UNL     1      -1.113 -11.196  -1.936  0.00  0.00    +0.027 A 
ATOM     27  C   UNL     1      -1.548 -12.422  -1.474  0.00  0.00    +0.048 A 
ATOM     28  C   UNL     1      -2.247 -12.505  -0.279  0.00  0.00    +0.130 A 
ATOM     29  C   UNL     1      -2.508 -11.357   0.454  0.00  0.00    +0.048 A 
ATOM     30  C   UNL     1      -2.068 -10.130  -0.003  0.00  0.00    +0.027 A 
BRANCH  28  31
ATOM     31  O   UNL     1      -2.676 -13.713   0.175  0.00  0.00    -0.406 OA
BRANCH  31  32
ATOM     32  C   UNL     1      -3.389 -13.725   1.414  0.00  0.00    +0.575 C 
ATOM     33  F   UNL     1      -4.539 -12.937   1.297  0.00  0.00    -0.133 F 
ATOM     34  F   UNL     1      -3.753 -15.038   1.729  0.00  0.00    -0.133 F 
ATOM     35  F   UNL     1      -2.572 -13.211   2.427  0.00  0.00    -0.133 F 
ENDBRANCH  31  32
ENDBRANCH  28  31
ENDBRANCH  23  25
ENDBRANCH  20  21
ENDBRANCH  19  20
ENDBRANCH   1  19
TORSDOF 11
