REMARK  Name = ZINC39609580
REMARK  10 active torsions:
REMARK  status: ('A' for Active; 'I' for Inactive)
REMARK    1  A    between atoms: C_1  and  C_2
REMARK    2  A    between atoms: C_2  and  O_3
REMARK    3  A    between atoms: O_3  and  C_4
REMARK    4  A    between atoms: C_8  and  C_10
REMARK    5  A    between atoms: C_10  and  C_11
REMARK    6  A    between atoms: C_11  and  N_12
REMARK    7  A    between atoms: C_13  and  C_15
REMARK    8  A    between atoms: C_26  and  C_28
REMARK    9  A    between atoms: C_31  and  C_35
REMARK   10  A    between atoms: C_33  and  C_34
REMARK                            x       y       z     vdW  Elec       q    Type
REMARK                         _______ _______ _______ _____ _____    ______ ____
ROOT
ATOM      1  C   UNL     1       6.531  -6.557   5.965  0.00  0.00    +0.100 C 
ATOM      2  C   UNL     1       6.453  -5.363   6.943  0.00  0.00    +0.121 C 
ATOM      3  N   UNL     1       7.803  -5.288   7.549  0.00  0.00    -0.296 N 
ATOM      4  C   UNL     1       8.728  -5.580   6.428  0.00  0.00    +0.115 C 
ATOM      5  C   UNL     1       8.026  -6.696   5.629  0.00  0.00    -0.004 C 
ATOM      6  C   UNL     1       8.541  -8.063   6.067  0.00  0.00    -0.010 C 
ATOM      7  C   UNL     1      10.014  -8.199   5.672  0.00  0.00    -0.082 C 
ATOM      8  N   UNL     1      10.149  -8.045   4.218  0.00  0.00    +0.379 N 
ATOM      9  C   UNL     1       9.737  -6.695   3.817  0.00  0.00    -0.082 C 
ATOM     10  C   UNL     1       8.253  -6.495   4.134  0.00  0.00    -0.010 C 
ATOM     11  C   UNL     1       8.119  -5.014   8.831  0.00  0.00    +0.247 C 
ATOM     12  O   UNL     1       9.283  -4.892   9.157  0.00  0.00    -0.270 OA
ATOM     13  H   UNL     1      11.110  -8.195   3.953  0.00  0.00    -0.086 HD
ATOM     14  H   UNL     1       9.565  -8.725   3.754  0.00  0.00    -0.086 HD
ENDROOT
BRANCH  11  15
ATOM     15  C   UNL     1       7.049  -4.864   9.840  0.00  0.00    +0.040 A 
ATOM     16  C   UNL     1       5.834  -4.270   9.491  0.00  0.00    +0.013 A 
ATOM     17  C   UNL     1       4.840  -4.133  10.437  0.00  0.00    +0.004 A 
ATOM     18  C   UNL     1       5.044  -4.583  11.730  0.00  0.00    -0.050 A 
ATOM     19  C   UNL     1       6.245  -5.172  12.082  0.00  0.00    +0.007 A 
ATOM     20  C   UNL     1       7.246  -5.320  11.144  0.00  0.00    -0.038 A 
ATOM     21  C   UNL     1       8.552  -5.967  11.528  0.00  0.00    +0.044 C 
ATOM     22  C   UNL     1       3.954  -4.429  12.758  0.00  0.00    +0.044 C 
ENDBRANCH  11  15
BRANCH   1  24
ATOM     23  N   UNL     1       5.195  -7.278   4.012  0.00  0.00    -0.315 N 
ATOM     24  C   UNL     1       5.738  -6.266   4.717  0.00  0.00    +0.218 C 
ATOM     25  O   UNL     1       5.588  -5.120   4.348  0.00  0.00    -0.275 OA
ATOM     26  H   UNL     1       5.315  -8.194   4.307  0.00  0.00    +0.149 HD
BRANCH  23  27
ATOM     27  C   UNL     1       4.424  -6.995   2.799  0.00  0.00    +0.109 C 
BRANCH  27  28
ATOM     28  C   UNL     1       3.923  -8.308   2.195  0.00  0.00    +0.054 C 
BRANCH  28  33
ATOM     29  C   UNL     1       1.038  -7.535  -0.120  0.00  0.00    +0.121 A 
ATOM     30  C   UNL     1       1.679  -7.482  -1.349  0.00  0.00    +0.045 A 
ATOM     31  C   UNL     1       3.041  -7.697  -1.426  0.00  0.00    +0.004 A 
ATOM     32  C   UNL     1       3.766  -7.963  -0.279  0.00  0.00    +0.004 A 
ATOM     33  C   UNL     1       3.130  -8.017   0.947  0.00  0.00    -0.042 A 
ATOM     34  C   UNL     1       1.768  -7.797   1.030  0.00  0.00    +0.049 A 
BRANCH  29  35
ATOM     35  O   UNL     1      -0.302  -7.324  -0.041  0.00  0.00    -0.492 OA
BRANCH  35  37
ATOM     36  C   UNL     1      -2.479  -6.850  -0.979  0.00  0.00    +0.048 C 
ATOM     37  C   UNL     1      -0.990  -7.059  -1.265  0.00  0.00    +0.225 C 
ENDBRANCH  35  37
ENDBRANCH  29  35
ENDBRANCH  28  33
ENDBRANCH  27  28
ENDBRANCH  23  27
ENDBRANCH   1  24
TORSDOF 7
