REMARK  Name = ZINC03297645
REMARK  5 active torsions:
REMARK  status: ('A' for Active; 'I' for Inactive)
REMARK    1  A    between atoms: C_6  and  C_7
REMARK    2  A    between atoms: C_7  and  S_8
REMARK    3  A    between atoms: S_8  and  C_9
REMARK    4  A    between atoms: C_15  and  C_17
REMARK    5  A    between atoms: N_22  and  C_24
REMARK                            x       y       z     vdW  Elec       q    Type
REMARK                         _______ _______ _______ _____ _____    ______ ____
ROOT
ATOM      1  C   UNL     1      -3.379  -1.913  -1.488  0.00  0.00    +0.160 A 
ATOM      2  N   UNL     1      -4.019  -2.304  -0.396  0.00  0.00    -0.133 NA
ATOM      3  N   UNL     1      -5.095  -2.961  -0.453  0.00  0.00    -0.125 NA
ATOM      4  C   UNL     1      -5.649  -3.299  -1.605  0.00  0.00    +0.189 A 
ATOM      5  S   UNL     1      -4.473  -2.571  -2.742  0.00  0.00    -0.024 S 
ATOM      6  N   UNL     1      -6.818  -4.013  -1.861  0.00  0.00    -0.263 N 
ATOM      7  C   UNL     1      -7.566  -4.470  -0.837  0.00  0.00    +0.224 C 
ATOM      8  O   UNL     1      -7.222  -4.260   0.307  0.00  0.00    -0.275 OA
ATOM      9  H   UNL     1      -7.093  -4.181  -2.776  0.00  0.00    +0.157 HD
ENDROOT
BRANCH   7  10
ATOM     10  C   UNL     1      -8.830  -5.242  -1.114  0.00  0.00    +0.102 C 
ATOM     11  C   UNL     1      -8.518  -6.578  -1.827  0.00  0.00    +0.110 C 
ATOM     12  C   UNL     1      -8.404  -7.582  -0.700  0.00  0.00    +0.221 C 
ATOM     13  O   UNL     1      -7.898  -8.680  -0.797  0.00  0.00    -0.275 OA
ATOM     14  N   UNL     1      -8.944  -7.079   0.423  0.00  0.00    -0.271 N 
ATOM     15  C   UNL     1      -9.479  -5.730   0.201  0.00  0.00    +0.127 C 
BRANCH  14  16
ATOM     16  C   UNL     1      -8.992  -7.756   1.649  0.00  0.00    +0.040 A 
ATOM     17  C   UNL     1      -9.470  -7.110   2.781  0.00  0.00    +0.027 A 
ATOM     18  C   UNL     1      -9.516  -7.777   3.990  0.00  0.00    +0.051 A 
ATOM     19  C   UNL     1      -9.086  -9.092   4.077  0.00  0.00    +0.162 A 
ATOM     20  C   UNL     1      -8.609  -9.743   2.945  0.00  0.00    +0.164 A 
ATOM     21  C   UNL     1      -8.566  -9.074   1.731  0.00  0.00    +0.073 A 
ATOM     22  O   UNL     1      -8.191 -11.036   3.009  0.00  0.00    -0.485 OA
ATOM     23  C   UNL     1      -7.903 -11.556   4.312  0.00  0.00    +0.270 C 
ATOM     24  C   UNL     1      -9.051 -11.161   5.251  0.00  0.00    +0.270 C 
ATOM     25  O   UNL     1      -9.136  -9.732   5.279  0.00  0.00    -0.485 OA
ENDBRANCH  14  16
ENDBRANCH   7  10
BRANCH   1  26
ATOM     26  S   UNL     1      -1.882  -0.999  -1.657  0.00  0.00    -0.092 S 
BRANCH  26  27
ATOM     27  C   UNL     1      -1.359  -0.692   0.053  0.00  0.00    +0.111 C 
BRANCH  27  33
ATOM     28  C   UNL     1      -0.107   1.474   0.059  0.00  0.00    +0.007 A 
ATOM     29  C   UNL     1       1.073   2.195   0.059  0.00  0.00    +0.038 A 
ATOM     30  C   UNL     1       2.288   1.532   0.051  0.00  0.00    +0.123 A 
ATOM     31  C   UNL     1       2.321   0.148   0.044  0.00  0.00    +0.038 A 
ATOM     32  C   UNL     1       1.140  -0.570   0.045  0.00  0.00    +0.007 A 
ATOM     33  C   UNL     1      -0.073   0.092   0.052  0.00  0.00    -0.037 A 
ATOM     34  F   UNL     1       3.442   2.236   0.050  0.00  0.00    -0.205 F 
ENDBRANCH  27  33
ENDBRANCH  26  27
ENDBRANCH   1  26
TORSDOF 5
