REMARK  Name = ZINC09266823
REMARK  1 active torsions:
REMARK  status: ('A' for Active; 'I' for Inactive)
REMARK    1  A    between atoms: N_26  and  C_29
REMARK                            x       y       z     vdW  Elec       q    Type
REMARK                         _______ _______ _______ _____ _____    ______ ____
ROOT
ATOM      1  C   UNL     1      -0.016   1.358   0.009  0.00  0.00    +0.005 A 
ATOM      2  C   UNL     1       1.194   2.067   0.002  0.00  0.00    +0.018 A 
ATOM      3  C   UNL     1       2.370   1.402  -0.018  0.00  0.00    +0.096 A 
ATOM      4  N   UNL     1       2.400   0.039  -0.030  0.00  0.00    -0.269 N 
ATOM      5  C   UNL     1       1.237  -0.680  -0.014  0.00  0.00    +0.119 A 
ATOM      6  C   UNL     1       0.002  -0.004   0.002  0.00  0.00    +0.045 A 
ATOM      7  N   UNL     1       1.256  -2.010  -0.010  0.00  0.00    -0.329 N 
ATOM      8  C   UNL     1       2.403  -2.684  -0.027  0.00  0.00    +0.109 A 
ATOM      9  C   UNL     1       3.612  -1.993  -0.053  0.00  0.00    +0.057 A 
ATOM     10  C   UNL     1       3.588  -0.600  -0.059  0.00  0.00    +0.263 A 
ATOM     11  O   UNL     1       4.631   0.035  -0.090  0.00  0.00    -0.267 OA
ATOM     12  C   UNL     1       4.927  -2.721  -0.070  0.00  0.00    +0.071 C 
ATOM     13  C   UNL     1       4.752  -4.142  -0.611  0.00  0.00    +0.146 C 
ATOM     14  C   UNL     1       3.612  -4.830   0.159  0.00  0.00    +0.099 C 
ATOM     15  N   UNL     1       2.406  -4.058  -0.018  0.00  0.00    -0.312 N 
ATOM     16  C   UNL     1       1.120  -4.816  -0.201  0.00  0.00    +0.107 C 
ATOM     17  C   UNL     1       0.950  -5.556   1.063  0.00  0.00    +0.019 C 
ATOM     18  C   UNL     1       2.099  -6.470   1.442  0.00  0.00    +0.002 C 
ATOM     19  C   UNL     1       2.845  -5.570   2.377  0.00  0.00    +0.002 C 
ATOM     20  C   UNL     1       4.109  -4.994   1.643  0.00  0.00    +0.024 C 
ATOM     21  C   UNL     1       4.394  -4.082  -2.070  0.00  0.00    +0.238 C 
ATOM     22  O   UNL     1       3.397  -3.482  -2.408  0.00  0.00    -0.274 OA
ATOM     23  N   UNL     1       5.148  -4.674  -3.007  0.00  0.00    -0.239 N 
ATOM     24  C   UNL     1       6.266  -5.349  -2.701  0.00  0.00    +0.315 C 
ATOM     25  N   UNL     1       6.690  -5.464  -1.434  0.00  0.00    -0.222 N 
ATOM     26  C   UNL     1       6.023  -4.917  -0.408  0.00  0.00    +0.240 C 
ATOM     27  O   UNL     1       6.458  -5.051   0.716  0.00  0.00    -0.274 OA
ATOM     28  O   UNL     1       6.909  -5.868  -3.592  0.00  0.00    -0.252 OA
ATOM     29  H   UNL     1       4.876  -4.612  -3.937  0.00  0.00    +0.159 HD
ATOM     30  H   UNL     1       0.417  -2.498   0.006  0.00  0.00    +0.168 HD
ENDROOT
BRANCH  25  31
ATOM     31  C   UNL     1       7.921  -6.210  -1.163  0.00  0.00    +0.086 C 
ATOM     32  C   UNL     1       9.089  -5.553  -1.901  0.00  0.00    +0.023 C 
ATOM     33  C   UNL     1      10.375  -6.333  -1.618  0.00  0.00    +0.002 C 
ATOM     34  C   UNL     1      10.213  -7.776  -2.101  0.00  0.00    +0.000 C 
ATOM     35  C   UNL     1       9.045  -8.433  -1.363  0.00  0.00    +0.002 C 
ATOM     36  C   UNL     1       7.759  -7.653  -1.646  0.00  0.00    +0.023 C 
ENDBRANCH  25  31
TORSDOF 1
