REMARK  Name = ZINC38701365
REMARK  10 active torsions:
REMARK  status: ('A' for Active; 'I' for Inactive)
REMARK    1  A    between atoms: C_1  and  C_2
REMARK    2  A    between atoms: C_2  and  O_3
REMARK    3  A    between atoms: O_3  and  C_4
REMARK    4  A    between atoms: C_7  and  C_10
REMARK    5  A    between atoms: C_15  and  O_24
REMARK    6  A    between atoms: C_19  and  N_23
REMARK    7  A    between atoms: C_20  and  C_21
REMARK    8  A    between atoms: O_24  and  C_25
REMARK    9  A    between atoms: C_25  and  C_27
REMARK   10  A    between atoms: C_28  and  C_36
REMARK                            x       y       z     vdW  Elec       q    Type
REMARK                         _______ _______ _______ _____ _____    ______ ____
ROOT
ATOM      1  C   UNL     1      -2.057  -6.075  -0.038  0.00  0.00    +0.098 C 
ATOM      2  C   UNL     1      -2.794  -6.497   1.205  0.00  0.00    +0.008 A 
ATOM      3  C   UNL     1      -2.100  -6.632   2.395  0.00  0.00    +0.012 A 
ATOM      4  C   UNL     1      -2.759  -7.019   3.545  0.00  0.00    +0.047 A 
ATOM      5  C   UNL     1      -4.123  -7.273   3.510  0.00  0.00    +0.136 A 
ATOM      6  C   UNL     1      -4.821  -7.138   2.321  0.00  0.00    +0.093 A 
ATOM      7  C   UNL     1      -4.156  -6.749   1.165  0.00  0.00    +0.138 A 
ATOM      8  O   UNL     1      -4.853  -6.622   0.009  0.00  0.00    -0.441 OA
ATOM      9  C   UNL     1      -4.206  -6.633  -1.168  0.00  0.00    +0.199 C 
ATOM     10  C   UNL     1      -2.882  -6.381  -1.256  0.00  0.00    +0.098 C 
ENDROOT
BRANCH   1  14
ATOM     11  C   UNL     1      -1.285  -1.875   0.130  0.00  0.00    +0.121 A 
ATOM     12  C   UNL     1      -0.230  -2.773   0.050  0.00  0.00    +0.046 A 
ATOM     13  C   UNL     1      -0.482  -4.130  -0.004  0.00  0.00    +0.008 A 
ATOM     14  C   UNL     1      -1.784  -4.594   0.021  0.00  0.00    -0.034 A 
ATOM     15  C   UNL     1      -2.837  -3.701   0.101  0.00  0.00    +0.008 A 
ATOM     16  C   UNL     1      -2.590  -2.343   0.162  0.00  0.00    +0.046 A 
BRANCH  11  17
ATOM     17  O   UNL     1      -1.039  -0.539   0.184  0.00  0.00    -0.492 OA
BRANCH  17  19
ATOM     18  C   UNL     1       0.406   1.397   0.217  0.00  0.00    +0.048 C 
ATOM     19  C   UNL     1       0.329  -0.130   0.147  0.00  0.00    +0.225 C 
ENDBRANCH  17  19
ENDBRANCH  11  17
ENDBRANCH   1  14
BRANCH   9  20
ATOM     20  N   UNL     1      -4.911  -6.907  -2.313  0.00  0.00    -0.328 N 
ATOM     21  H   UNL     1      -5.863  -7.090  -2.265  0.00  0.00    +0.145 HD
ATOM     22  H   UNL     1      -4.458  -6.919  -3.171  0.00  0.00    +0.145 HD
ENDBRANCH   9  20
BRANCH  10  23
ATOM     23  C   UNL     1      -2.252  -6.406  -2.542  0.00  0.00    +0.101 C 
ATOM     24  N   UNL     1      -1.752  -6.426  -3.562  0.00  0.00    -0.191 NA
ENDBRANCH  10  23
BRANCH   5  25
ATOM     25  O   UNL     1      -4.773  -7.655   4.641  0.00  0.00    -0.420 OA
BRANCH  25  26
ATOM     26  C   UNL     1      -5.231  -8.921   4.711  0.00  0.00    +0.380 C 
ATOM     27  O   UNL     1      -4.969  -9.713   3.827  0.00  0.00    -0.241 OA
BRANCH  26  28
ATOM     28  C   UNL     1      -6.048  -9.344   5.856  0.00  0.00    +0.216 A 
ATOM     29  C   UNL     1      -6.558 -10.591   6.035  0.00  0.00    +0.010 A 
ATOM     30  C   UNL     1      -7.295 -10.549   7.297  0.00  0.00    +0.024 A 
ATOM     31  C   UNL     1      -8.032 -11.487   8.025  0.00  0.00    +0.012 A 
ATOM     32  C   UNL     1      -8.614 -11.120   9.206  0.00  0.00    +0.001 A 
ATOM     33  C   UNL     1      -8.479  -9.824   9.685  0.00  0.00    +0.004 A 
ATOM     34  C   UNL     1      -7.757  -8.885   8.981  0.00  0.00    +0.047 A 
ATOM     35  C   UNL     1      -7.154  -9.234   7.778  0.00  0.00    +0.136 A 
ATOM     36  O   UNL     1      -6.401  -8.554   6.892  0.00  0.00    -0.448 OA
ATOM     37  C   UNL     1      -6.398 -11.776   5.117  0.00  0.00    +0.048 C 
ENDBRANCH  26  28
ENDBRANCH  25  26
ENDBRANCH   5  25
TORSDOF 8
