REMARK  Name = ZINC11998283
REMARK  13 active torsions:
REMARK  status: ('A' for Active; 'I' for Inactive)
REMARK    1  A    between atoms: C_1  and  C_2
REMARK    2  A    between atoms: C_5  and  C_9
REMARK    3  A    between atoms: C_6  and  C_8
REMARK    4  A    between atoms: C_9  and  N_58
REMARK    5  A    between atoms: C_15  and  S_21
REMARK    6  A    between atoms: C_16  and  C_17
REMARK    7  A    between atoms: C_17  and  O_19
REMARK    8  A    between atoms: O_19  and  C_20
REMARK    9  A    between atoms: S_21  and  N_24
REMARK   10  A    between atoms: N_24  and  C_25
REMARK   11  A    between atoms: C_25  and  C_26
REMARK   12  A    between atoms: C_26  and  O_27
REMARK   13  A    between atoms: O_27  and  C_28
REMARK                            x       y       z     vdW  Elec       q    Type
REMARK                         _______ _______ _______ _____ _____    ______ ____
ROOT
ATOM      1  C   UNL     1       2.421   0.229  -0.464  0.00  0.00    -0.073 C 
ATOM      2  C   UNL     1       1.331  -0.750  -0.018  0.00  0.00    +0.018 C 
ATOM      3  C   UNL     1       0.002  -0.004   0.002  0.00  0.00    -0.025 A 
ATOM      4  C   UNL     1      -0.016   1.350   0.009  0.00  0.00    -0.021 A 
ATOM      5  S   UNL     1      -1.733   1.773   0.036  0.00  0.00    -0.074 S 
ATOM      6  C   UNL     1      -2.412   0.177   0.029  0.00  0.00    +0.157 A 
ATOM      7  C   UNL     1      -1.300  -0.639   0.014  0.00  0.00    +0.096 A 
ATOM      8  C   UNL     1       1.175   2.255   0.003  0.00  0.00    -0.035 C 
ATOM      9  N   UNL     1       2.361   1.445   0.374  0.00  0.00    +0.386 N 
ATOM     10  H   UNL     1       2.282   1.168   1.360  0.00  0.00    -0.081 HD
ENDROOT
BRANCH   6  11
ATOM     11  S   UNL     1      -4.111  -0.288   0.046  0.00  0.00    +0.066 S 
ATOM     12  O   UNL     1      -4.838   0.807  -0.492  0.00  0.00    -0.153 OA
ATOM     13  O   UNL     1      -4.179  -1.594  -0.510  0.00  0.00    -0.153 OA
BRANCH  11  14
ATOM     14  N   UNL     1      -4.566  -0.425   1.632  0.00  0.00    -0.187 NA
ATOM     15  H   UNL     1      -4.826  -1.288   1.989  0.00  0.00    +0.148 HD
BRANCH  14  16
ATOM     16  C   UNL     1      -4.576   0.758   2.496  0.00  0.00    +0.134 C 
BRANCH  16  17
ATOM     17  C   UNL     1      -5.370   0.455   3.768  0.00  0.00    +0.176 C 
BRANCH  17  18
ATOM     18  O   UNL     1      -4.697  -0.557   4.520  0.00  0.00    -0.382 OA
ATOM     19  C   UNL     1      -5.360  -0.916   5.734  0.00  0.00    +0.194 C 
ENDBRANCH  17  18
ENDBRANCH  16  17
ENDBRANCH  14  16
ENDBRANCH  11  14
ENDBRANCH   6  11
BRANCH   7  20
ATOM     20  C   UNL     1      -1.432  -2.103   0.009  0.00  0.00    +0.342 C 
ATOM     21  O   UNL     1      -1.475  -2.713   1.060  0.00  0.00    -0.245 OA
BRANCH  20  22
ATOM     22  O   UNL     1      -1.505  -2.770  -1.160  0.00  0.00    -0.464 OA
ATOM     23  C   UNL     1      -1.635  -4.214  -1.088  0.00  0.00    +0.280 C 
ENDBRANCH  20  22
ENDBRANCH   7  20
BRANCH   9  24
ATOM     24  C   UNL     1       3.594   2.243   0.197  0.00  0.00    -0.042 C 
BRANCH  24  29
ATOM     25  C   UNL     1       3.650   6.492   4.113  0.00  0.00    +0.044 C 
ATOM     26  C   UNL     1       3.635   5.384   3.091  0.00  0.00    -0.050 A 
ATOM     27  C   UNL     1       3.263   5.651   1.787  0.00  0.00    +0.003 A 
ATOM     28  C   UNL     1       3.254   4.635   0.849  0.00  0.00    +0.002 A 
ATOM     29  C   UNL     1       3.608   3.351   1.218  0.00  0.00    -0.061 A 
ATOM     30  C   UNL     1       3.981   3.084   2.522  0.00  0.00    -0.049 A 
ATOM     31  C   UNL     1       3.994   4.101   3.459  0.00  0.00    +0.007 A 
ATOM     32  C   UNL     1       4.373   1.685   2.923  0.00  0.00    +0.044 C 
ENDBRANCH  24  29
ENDBRANCH   9  24
TORSDOF 9
