REMARK  Name = ZINC41004981
REMARK  10 active torsions:
REMARK  status: ('A' for Active; 'I' for Inactive)
REMARK    1  A    between atoms: C_1  and  C_2
REMARK    2  A    between atoms: C_2  and  S_3
REMARK    3  A    between atoms: S_3  and  C_4
REMARK    4  A    between atoms: C_9  and  C_18
REMARK    5  A    between atoms: C_11  and  C_15
REMARK    6  A    between atoms: C_12  and  C_14
REMARK    7  A    between atoms: C_23  and  O_24
REMARK    8  A    between atoms: O_24  and  C_25
REMARK    9  A    between atoms: C_25  and  C_26
REMARK   10  A    between atoms: C_31  and  C_32
REMARK                            x       y       z     vdW  Elec       q    Type
REMARK                         _______ _______ _______ _____ _____    ______ ____
ROOT
ATOM      1  C   UNL     1       1.208  -2.384   1.080  0.00  0.00    +0.210 A 
ATOM      2  N   UNL     1       0.588  -3.061   0.102  0.00  0.00    -0.187 NA
ATOM      3  C   UNL     1       0.557  -4.331   0.402  0.00  0.00    +0.219 A 
ATOM      4  N   UNL     1       1.163  -4.495   1.603  0.00  0.00    -0.220 N 
ATOM      5  N   UNL     1       1.581  -3.231   2.016  0.00  0.00    -0.141 NA
ATOM      6  C   UNL     1       1.307  -5.789   2.266  0.00  0.00    +0.181 C 
ATOM      7  C   UNL     1       0.964  -6.889   1.297  0.00  0.00    +0.060 C 
ATOM      8  C   UNL     1       0.366  -6.665   0.118  0.00  0.00    +0.018 C 
ATOM      9  N   UNL     1       0.029  -5.403  -0.304  0.00  0.00    -0.287 N 
ATOM     10  C   UNL     1       0.055  -7.839  -0.775  0.00  0.00    +0.061 C 
ATOM     11  H   UNL     1      -0.556  -5.266  -1.066  0.00  0.00    +0.155 HD
ENDROOT
BRANCH   6  12
ATOM     12  C   UNL     1       0.377  -5.853   3.450  0.00  0.00    +0.024 A 
ATOM     13  C   UNL     1      -0.987  -5.729   3.265  0.00  0.00    +0.025 A 
ATOM     14  C   UNL     1      -1.841  -5.788   4.351  0.00  0.00    +0.018 A 
ATOM     15  C   UNL     1      -1.332  -5.972   5.624  0.00  0.00    +0.019 A 
ATOM     16  C   UNL     1       0.030  -6.098   5.813  0.00  0.00    +0.047 A 
ATOM     17  C   UNL     1       0.888  -6.044   4.725  0.00  0.00    +0.127 A 
ATOM     18 BR   UNL     1      -3.707  -5.616   4.095  0.00  0.00    -0.050 Br
BRANCH  17  19
ATOM     19  O   UNL     1       2.229  -6.172   4.908  0.00  0.00    -0.487 OA
BRANCH  19  20
ATOM     20  C   UNL     1       2.685  -6.366   6.248  0.00  0.00    +0.264 C 
BRANCH  20  21
ATOM     21  C   UNL     1       4.187  -6.486   6.255  0.00  0.00    -0.007 A 
ATOM     22  C   UNL     1       4.893  -6.397   5.070  0.00  0.00    +0.007 A 
ATOM     23  C   UNL     1       6.271  -6.507   5.077  0.00  0.00    +0.000 A 
ATOM     24  C   UNL     1       6.943  -6.706   6.269  0.00  0.00    +0.000 A 
ATOM     25  C   UNL     1       6.237  -6.794   7.454  0.00  0.00    +0.004 A 
ATOM     26  C   UNL     1       4.859  -6.679   7.447  0.00  0.00    -0.044 A 
ATOM     27  C   UNL     1       4.090  -6.770   8.740  0.00  0.00    +0.044 C 
ENDBRANCH  20  21
ENDBRANCH  19  20
ENDBRANCH  17  19
ENDBRANCH   6  12
BRANCH   7  28
ATOM     28  C   UNL     1       1.288  -8.221   1.647  0.00  0.00    +0.241 C 
ATOM     29  O   UNL     1       2.446  -8.597   1.605  0.00  0.00    -0.271 OA
ATOM     30  N   UNL     1       0.316  -9.073   2.027  0.00  0.00    -0.325 N 
ATOM     31  H   UNL     1      -0.606  -8.774   2.061  0.00  0.00    +0.145 HD
ATOM     32  H   UNL     1       0.538  -9.986   2.267  0.00  0.00    +0.145 HD
ENDBRANCH   7  28
BRANCH   1  33
ATOM     33  S   UNL     1       1.485  -0.644   1.105  0.00  0.00    -0.085 S 
BRANCH  33  35
ATOM     34  C   UNL     1       0.915   1.456  -0.552  0.00  0.00    +0.016 C 
ATOM     35  C   UNL     1       0.743  -0.060  -0.444  0.00  0.00    +0.074 C 
ENDBRANCH  33  35
ENDBRANCH   1  33
TORSDOF 7
