REMARK  Name = ZINC05156480
REMARK  8 active torsions:
REMARK  status: ('A' for Active; 'I' for Inactive)
REMARK    1  A    between atoms: C_1  and  C_2
REMARK    2  A    between atoms: C_2  and  C_3
REMARK    3  A    between atoms: C_3  and  N_4
REMARK    4  A    between atoms: C_7  and  C_18
REMARK    5  A    between atoms: N_11  and  C_12
REMARK    6  A    between atoms: C_18  and  C_19
REMARK    7  A    between atoms: N_21  and  C_22
REMARK    8  A    between atoms: C_27  and  C_28
REMARK                            x       y       z     vdW  Elec       q    Type
REMARK                         _______ _______ _______ _____ _____    ______ ____
ROOT
ATOM      1  N   UNL     1      -2.054  -2.556  -1.163  0.00  0.00    -0.250 N 
ATOM      2  C   UNL     1      -1.460  -2.051  -0.095  0.00  0.00    +0.235 C 
ATOM      3  O   UNL     1      -0.968  -2.755   0.761  0.00  0.00    -0.274 OA
ATOM      4  C   UNL     1      -1.433  -0.534  -0.008  0.00  0.00    +0.149 C 
ATOM      5  S   UNL     1      -2.313  -0.099  -1.560  0.00  0.00    -0.077 S 
ATOM      6  C   UNL     1      -2.616  -1.761  -2.140  0.00  0.00    +0.164 C 
ATOM      7  N   UNL     1      -3.229  -2.137  -3.238  0.00  0.00    -0.226 NA
ENDROOT
BRANCH   7   8
ATOM      8  C   UNL     1      -3.728  -1.197  -4.099  0.00  0.00    +0.067 A 
ATOM      9  C   UNL     1      -4.452  -0.109  -3.608  0.00  0.00    +0.028 A 
ATOM     10  C   UNL     1      -4.947   0.837  -4.481  0.00  0.00    +0.002 A 
ATOM     11  C   UNL     1      -4.738   0.703  -5.842  0.00  0.00    +0.000 A 
ATOM     12  C   UNL     1      -4.026  -0.375  -6.337  0.00  0.00    +0.002 A 
ATOM     13  C   UNL     1      -3.521  -1.326  -5.474  0.00  0.00    +0.028 A 
ENDBRANCH   7   8
BRANCH   1  14
ATOM     14  C   UNL     1      -2.119  -4.012  -1.314  0.00  0.00    +0.115 C 
BRANCH  14  16
ATOM     15  C   UNL     1      -0.952  -6.021  -2.231  0.00  0.00    +0.005 C 
ATOM     16  C   UNL     1      -0.884  -4.501  -2.074  0.00  0.00    +0.016 C 
ENDBRANCH  14  16
ENDBRANCH   1  14
BRANCH   4  17
ATOM     17  C   UNL     1       0.002  -0.004  -0.017  0.00  0.00    +0.120 C 
BRANCH  17  18
ATOM     18  C   UNL     1      -0.018   1.502   0.006  0.00  0.00    +0.219 C 
ATOM     19  O   UNL     1      -1.077   2.094   0.024  0.00  0.00    -0.275 OA
ATOM     20  N   UNL     1       1.139   2.192   0.003  0.00  0.00    -0.285 N 
ATOM     21  H   UNL     1       1.985   1.722   0.068  0.00  0.00    +0.155 HD
BRANCH  20  22
ATOM     22  C   UNL     1       1.122   3.588  -0.095  0.00  0.00    +0.038 A 
ATOM     23  C   UNL     1       0.042   4.231  -0.687  0.00  0.00    +0.023 A 
ATOM     24  C   UNL     1       0.025   5.609  -0.778  0.00  0.00    +0.003 A 
ATOM     25  C   UNL     1       1.086   6.349  -0.290  0.00  0.00    +0.020 A 
ATOM     26  C   UNL     1       2.166   5.712   0.296  0.00  0.00    +0.046 A 
ATOM     27  C   UNL     1       2.186   4.333   0.395  0.00  0.00    -0.011 A 
ATOM     28  C   UNL     1       3.362   3.640   1.033  0.00  0.00    +0.047 C 
ATOM     29 CL   UNL     1       3.496   6.645   0.907  0.00  0.00    -0.083 Cl
ENDBRANCH  20  22
ENDBRANCH  17  18
ENDBRANCH   4  17
TORSDOF 6
