REMARK  Name = ZINC16335628
REMARK  8 active torsions:
REMARK  status: ('A' for Active; 'I' for Inactive)
REMARK    1  A    between atoms: C_1  and  C_2
REMARK    2  A    between atoms: C_2  and  C_28
REMARK    3  A    between atoms: N_5  and  N_9
REMARK    4  A    between atoms: C_10  and  C_12
REMARK    5  A    between atoms: C_12  and  S_13
REMARK    6  A    between atoms: S_13  and  C_14
REMARK    7  A    between atoms: N_19  and  C_20
REMARK    8  A    between atoms: C_20  and  C_21
REMARK                            x       y       z     vdW  Elec       q    Type
REMARK                         _______ _______ _______ _____ _____    ______ ____
ROOT
ATOM      1  N   UNL     1       1.336 -11.805  -2.002  0.00  0.00    -0.223 N 
ATOM      2  C   UNL     1       1.315 -10.710  -2.788  0.00  0.00    +0.240 C 
ATOM      3  O   UNL     1       1.305 -10.830  -3.995  0.00  0.00    -0.273 OA
ATOM      4  H   UNL     1       1.344 -11.709  -1.037  0.00  0.00    +0.174 HD
ENDROOT
BRANCH   1   9
ATOM      5  C   UNL     1       2.142 -16.353  -2.419  0.00  0.00    +0.047 C 
ATOM      6  C   UNL     1       1.981 -15.141  -3.339  0.00  0.00    +0.137 C 
ATOM      7  C   UNL     1       2.435 -13.876  -2.638  0.00  0.00    +0.267 C 
ATOM      8  O   UNL     1       3.546 -13.629  -2.219  0.00  0.00    -0.271 OA
ATOM      9  N   UNL     1       1.348 -13.082  -2.579  0.00  0.00    -0.137 N 
ATOM     10  C   UNL     1       0.280 -13.665  -3.135  0.00  0.00    +0.327 C 
ATOM     11  O   UNL     1      -0.817 -13.146  -3.199  0.00  0.00    -0.251 OA
ATOM     12  N   UNL     1       0.557 -14.889  -3.620  0.00  0.00    -0.280 N 
ATOM     13  H   UNL     1      -0.061 -15.490  -4.064  0.00  0.00    +0.152 HD
BRANCH   6  14
ATOM     14  C   UNL     1       2.747 -15.341  -4.621  0.00  0.00    -0.015 A 
ATOM     15  C   UNL     1       4.042 -14.868  -4.734  0.00  0.00    +0.006 A 
ATOM     16  C   UNL     1       4.746 -15.057  -5.908  0.00  0.00    +0.000 A 
ATOM     17  C   UNL     1       4.153 -15.708  -6.974  0.00  0.00    +0.000 A 
ATOM     18  C   UNL     1       2.857 -16.175  -6.863  0.00  0.00    +0.000 A 
ATOM     19  C   UNL     1       2.154 -15.992  -5.686  0.00  0.00    +0.006 A 
ENDBRANCH   6  14
ENDBRANCH   1   9
BRANCH   2  20
ATOM     20  C   UNL     1       1.302  -9.337  -2.167  0.00  0.00    +0.173 C 
BRANCH  20  21
ATOM     21  S   UNL     1       1.273  -8.082  -3.476  0.00  0.00    -0.088 S 
BRANCH  21  22
ATOM     22  C   UNL     1       1.260  -6.553  -2.600  0.00  0.00    +0.160 A 
ATOM     23  N   UNL     1       1.270  -6.335  -1.299  0.00  0.00    -0.133 NA
ATOM     24  N   UNL     1       1.262  -5.045  -0.822  0.00  0.00    -0.125 NA
ATOM     25  C   UNL     1       1.236  -4.032  -1.666  0.00  0.00    +0.183 A 
ATOM     26  S   UNL     1       1.232  -4.884  -3.236  0.00  0.00    -0.025 S 
ATOM     27  N   UNL     1       1.221  -2.667  -1.405  0.00  0.00    -0.318 N 
ATOM     28  H   UNL     1       1.206  -2.033  -2.139  0.00  0.00    +0.148 HD
BRANCH  27  29
ATOM     29  C   UNL     1       1.227  -2.186  -0.021  0.00  0.00    +0.138 C 
BRANCH  29  30
ATOM     30  C   UNL     1       1.208  -0.679  -0.013  0.00  0.00    -0.030 A 
ATOM     31  C   UNL     1       0.002  -0.004   0.002  0.00  0.00    +0.008 A 
ATOM     32  C   UNL     1      -0.017   1.378   0.010  0.00  0.00    +0.038 A 
ATOM     33  C   UNL     1       1.173   2.086   0.002  0.00  0.00    +0.123 A 
ATOM     34  C   UNL     1       2.381   1.408  -0.013  0.00  0.00    +0.038 A 
ATOM     35  C   UNL     1       2.397   0.026  -0.020  0.00  0.00    +0.008 A 
ATOM     36  F   UNL     1       1.156   3.437   0.009  0.00  0.00    -0.205 F 
ENDBRANCH  29  30
ENDBRANCH  27  29
ENDBRANCH  21  22
ENDBRANCH  20  21
ENDBRANCH   2  20
TORSDOF 7
