REMARK  Name = ZINC09875281
REMARK  9 active torsions:
REMARK  status: ('A' for Active; 'I' for Inactive)
REMARK    1  A    between atoms: C_1  and  C_2
REMARK    2  A    between atoms: C_4  and  C_35
REMARK    3  A    between atoms: N_8  and  S_9
REMARK    4  A    between atoms: S_9  and  C_12
REMARK    5  A    between atoms: C_15  and  N_18
REMARK    6  A    between atoms: C_19  and  C_21
REMARK    7  A    between atoms: C_26  and  S_27
REMARK    8  A    between atoms: S_27  and  C_28
REMARK    9  A    between atoms: C_28  and  C_29
REMARK                            x       y       z     vdW  Elec       q    Type
REMARK                         _______ _______ _______ _____ _____    ______ ____
ROOT
ATOM      1  C   UNL     1      -4.885  -4.108  -0.240  0.00  0.00    +0.109 A 
ATOM      2  C   UNL     1      -3.707  -4.829  -0.161  0.00  0.00    +0.030 A 
ATOM      3  C   UNL     1      -2.497  -4.170  -0.080  0.00  0.00    +0.025 A 
ATOM      4  C   UNL     1      -2.462  -2.781  -0.079  0.00  0.00    +0.034 A 
ATOM      5  C   UNL     1      -3.647  -2.060  -0.153  0.00  0.00    +0.025 A 
ATOM      6  C   UNL     1      -4.854  -2.725  -0.240  0.00  0.00    +0.030 A 
ENDROOT
BRANCH   4   7
ATOM      7  N   UNL     1      -1.238  -2.110   0.003  0.00  0.00    -0.281 N 
ATOM      8  C   UNL     1      -0.146  -2.626  -0.596  0.00  0.00    +0.249 C 
ATOM      9  O   UNL     1      -0.205  -3.714  -1.135  0.00  0.00    -0.270 OA
ATOM     10  H   UNL     1      -1.174  -1.274   0.491  0.00  0.00    +0.155 HD
BRANCH   8  11
ATOM     11  C   UNL     1       1.119  -1.870  -0.597  0.00  0.00    +0.050 A 
ATOM     12  C   UNL     1       1.192  -0.619   0.021  0.00  0.00    +0.014 A 
ATOM     13  C   UNL     1       2.377   0.082   0.015  0.00  0.00    +0.001 A 
ATOM     14  C   UNL     1       3.502  -0.446  -0.600  0.00  0.00    +0.001 A 
ATOM     15  C   UNL     1       3.447  -1.680  -1.214  0.00  0.00    +0.015 A 
ATOM     16  C   UNL     1       2.260  -2.403  -1.220  0.00  0.00    +0.020 A 
BRANCH  16  17
ATOM     17  S   UNL     1       2.188  -3.983  -1.998  0.00  0.00    -0.122 S 
BRANCH  17  18
ATOM     18  C   UNL     1       3.866  -4.231  -2.642  0.00  0.00    +0.106 C 
BRANCH  18  19
ATOM     19  C   UNL     1       3.945  -5.584  -3.352  0.00  0.00    +0.128 C 
ATOM     20  C   UNL     1       5.397  -5.857  -3.798  0.00  0.00    +0.034 C 
ATOM     21  C   UNL     1       5.193  -6.518  -5.191  0.00  0.00    +0.031 C 
ATOM     22  C   UNL     1       3.937  -5.763  -5.695  0.00  0.00    +0.160 C 
ATOM     23  O   UNL     1       3.125  -5.565  -4.527  0.00  0.00    -0.376 OA
ENDBRANCH  18  19
ENDBRANCH  17  18
ENDBRANCH  16  17
ENDBRANCH   8  11
ENDBRANCH   4   7
BRANCH   1  24
ATOM     24  S   UNL     1      -6.428  -4.953  -0.343  0.00  0.00    +0.075 S 
ATOM     25  O   UNL     1      -7.342  -4.055  -0.958  0.00  0.00    -0.150 OA
ATOM     26  O   UNL     1      -6.150  -6.241  -0.876  0.00  0.00    -0.150 OA
BRANCH  24  34
ATOM     27  C   UNL     1      -6.751  -0.454   1.928  0.00  0.00    +0.066 C 
ATOM     28  C   UNL     1      -7.199  -1.828   2.357  0.00  0.00    +0.044 A 
ATOM     29  C   UNL     1      -7.929  -1.995   3.524  0.00  0.00    +0.046 A 
ATOM     30  C   UNL     1      -8.322  -3.275   3.882  0.00  0.00    +0.044 A 
ATOM     31  N   UNL     1      -7.991  -4.293   3.105  0.00  0.00    -0.219 NA
ATOM     32  C   UNL     1      -7.292  -4.099   1.996  0.00  0.00    +0.235 A 
ATOM     33  N   UNL     1      -6.896  -2.889   1.628  0.00  0.00    -0.219 NA
ATOM     34  N   UNL     1      -6.962  -5.187   1.206  0.00  0.00    -0.184 N 
ATOM     35  C   UNL     1      -9.118  -3.504   5.141  0.00  0.00    +0.066 C 
ATOM     36  H   UNL     1      -7.045  -6.086   1.561  0.00  0.00    +0.177 HD
ENDBRANCH  24  34
ENDBRANCH   1  24
TORSDOF 7
