REMARK  Name = ZINC38785219
REMARK  12 active torsions:
REMARK  status: ('A' for Active; 'I' for Inactive)
REMARK    1  A    between atoms: C_1  and  C_2
REMARK    2  A    between atoms: C_2  and  C_3
REMARK    3  A    between atoms: C_2  and  C_4
REMARK    4  A    between atoms: C_7  and  C_10
REMARK    5  A    between atoms: C_14  and  S_18
REMARK    6  A    between atoms: S_18  and  C_19
REMARK    7  A    between atoms: C_19  and  C_20
REMARK    8  A    between atoms: N_22  and  N_23
REMARK    9  A    between atoms: C_24  and  C_25
REMARK   10  A    between atoms: C_28  and  O_33
REMARK   11  A    between atoms: C_29  and  O_31
REMARK   12  A    between atoms: O_31  and  C_32
REMARK                            x       y       z     vdW  Elec       q    Type
REMARK                         _______ _______ _______ _____ _____    ______ ____
ROOT
ATOM      1  C   UNL     1      -5.386  -1.991   0.042  0.00  0.00    -0.015 C 
ATOM      2  C   UNL     1      -6.294  -1.612  -0.911  0.00  0.00    +0.075 C 
ATOM      3  C   UNL     1      -7.651  -2.176  -0.816  0.00  0.00    +0.112 C 
ATOM      4  N   UNL     1      -8.570  -1.856  -1.694  0.00  0.00    -0.217 NA
ATOM      5  C   UNL     1      -8.310  -1.016  -2.694  0.00  0.00    +0.182 C 
ATOM      6  N   UNL     1      -7.127  -0.453  -2.872  0.00  0.00    -0.151 NA
ATOM      7  C   UNL     1      -6.093  -0.681  -2.062  0.00  0.00    +0.272 C 
ATOM      8  O   UNL     1      -5.014  -0.145  -2.255  0.00  0.00    -0.268 OA
ATOM      9  S   UNL     1      -7.611  -3.227   0.614  0.00  0.00    -0.100 S 
ATOM     10  C   UNL     1      -5.860  -2.959   1.101  0.00  0.00    +0.112 C 
ENDROOT
BRANCH   1  14
ATOM     11  C   UNL     1      -1.412  -0.526   0.013  0.00  0.00    -0.045 A 
ATOM     12  C   UNL     1      -2.257  -0.201   1.060  0.00  0.00    +0.004 A 
ATOM     13  C   UNL     1      -3.551  -0.673   1.079  0.00  0.00    +0.008 A 
ATOM     14  C   UNL     1      -4.012  -1.484   0.032  0.00  0.00    -0.020 A 
ATOM     15  C   UNL     1      -3.149  -1.808  -1.025  0.00  0.00    +0.008 A 
ATOM     16  C   UNL     1      -1.859  -1.322  -1.028  0.00  0.00    +0.004 A 
BRANCH  11  18
ATOM     17  C   UNL     1      -0.019   1.526   0.010  0.00  0.00    +0.012 C 
ATOM     18  C   UNL     1       0.002  -0.004   0.002  0.00  0.00    +0.013 C 
ATOM     19  C   UNL     1       0.742  -0.511   1.242  0.00  0.00    +0.012 C 
ENDBRANCH  11  18
ENDBRANCH   1  14
BRANCH   5  20
ATOM     20  S   UNL     1      -9.601  -0.638  -3.832  0.00  0.00    -0.079 S 
BRANCH  20  21
ATOM     21  C   UNL     1      -8.830   0.515  -5.002  0.00  0.00    +0.174 C 
BRANCH  21  22
ATOM     22  C   UNL     1      -9.840   0.923  -6.043  0.00  0.00    +0.242 C 
ATOM     23  O   UNL     1     -10.969   0.480  -6.000  0.00  0.00    -0.273 OA
ATOM     24  N   UNL     1      -9.490   1.781  -7.022  0.00  0.00    -0.206 N 
ATOM     25  H   UNL     1      -8.587   2.135  -7.056  0.00  0.00    +0.177 HD
BRANCH  24  26
ATOM     26  N   UNL     1     -10.429   2.160  -7.990  0.00  0.00    -0.188 NA
ATOM     27  C   UNL     1     -10.091   2.986  -8.933  0.00  0.00    +0.138 C 
BRANCH  27  28
ATOM     28  C   UNL     1     -11.079   3.385  -9.951  0.00  0.00    -0.002 A 
ATOM     29  C   UNL     1     -12.381   2.881  -9.900  0.00  0.00    +0.013 A 
ATOM     30  C   UNL     1     -13.303   3.256 -10.854  0.00  0.00    +0.050 A 
ATOM     31  C   UNL     1     -12.942   4.133 -11.866  0.00  0.00    +0.158 A 
ATOM     32  C   UNL     1     -11.646   4.641 -11.923  0.00  0.00    +0.162 A 
ATOM     33  C   UNL     1     -10.717   4.274 -10.967  0.00  0.00    +0.058 A 
BRANCH  32  34
ATOM     34  O   UNL     1     -11.296   5.500 -12.917  0.00  0.00    -0.491 OA
ATOM     35  C   UNL     1      -9.950   5.981 -12.915  0.00  0.00    +0.277 C 
ENDBRANCH  32  34
BRANCH  31  36
ATOM     36  O   UNL     1     -13.856   4.499 -12.804  0.00  0.00    -0.503 OA
ATOM     37  H   UNL     1     -14.365   5.287 -12.571  0.00  0.00    +0.292 HD
ENDBRANCH  31  36
ENDBRANCH  27  28
ENDBRANCH  24  26
ENDBRANCH  21  22
ENDBRANCH  20  21
ENDBRANCH   5  20
TORSDOF 9
