REMARK  Name = ZINC33115165
REMARK  11 active torsions:
REMARK  status: ('A' for Active; 'I' for Inactive)
REMARK    1  A    between atoms: C_1  and  C_2
REMARK    2  A    between atoms: C_2  and  C_4
REMARK    3  A    between atoms: C_2  and  C_29
REMARK    4  A    between atoms: C_10  and  C_12
REMARK    5  A    between atoms: N_14  and  C_23
REMARK    6  A    between atoms: C_16  and  C_17
REMARK    7  A    between atoms: N_31  and  C_32
REMARK    8  A    between atoms: C_32  and  C_33
REMARK    9  A    between atoms: C_33  and  N_34
REMARK   10  A    between atoms: N_34  and  C_35
REMARK   11  A    between atoms: N_34  and  C_36
REMARK                            x       y       z     vdW  Elec       q    Type
REMARK                         _______ _______ _______ _____ _____    ______ ____
ROOT
ATOM      1  C   UNL     1       3.393  -2.291   1.327  0.00  0.00    +0.004 C 
ATOM      2  C   UNL     1       4.392  -1.135   1.407  0.00  0.00    +0.023 C 
ATOM      3  C   UNL     1       4.229  -0.239   0.175  0.00  0.00    +0.108 C 
ATOM      4  N   UNL     1       2.825   0.183   0.079  0.00  0.00    -0.297 N 
ATOM      5  C   UNL     1       1.776  -0.846   0.092  0.00  0.00    +0.108 C 
ATOM      6  C   UNL     1       1.966  -1.736   1.319  0.00  0.00    +0.023 C 
ATOM      7  C   UNL     1       2.505   1.489  -0.013  0.00  0.00    +0.250 C 
ATOM      8  O   UNL     1       3.383   2.326  -0.097  0.00  0.00    -0.270 OA
ENDROOT
BRANCH   7   9
ATOM      9  C   UNL     1       1.091   1.902  -0.013  0.00  0.00    +0.083 A 
ATOM     10  C   UNL     1       0.080   1.390  -0.800  0.00  0.00    +0.128 A 
ATOM     11  N   UNL     1      -1.053   2.045  -0.493  0.00  0.00    -0.239 N 
ATOM     12  N   UNL     1      -0.795   2.987   0.506  0.00  0.00    -0.166 NA
ATOM     13  C   UNL     1       0.479   2.940   0.823  0.00  0.00    +0.105 A 
BRANCH  13  14
ATOM     14  C   UNL     1       1.168   3.776   1.835  0.00  0.00    +0.003 A 
ATOM     15  C   UNL     1       2.203   3.240   2.599  0.00  0.00    +0.010 A 
ATOM     16  C   UNL     1       2.844   4.025   3.536  0.00  0.00    +0.001 A 
ATOM     17  C   UNL     1       2.454   5.339   3.724  0.00  0.00    +0.000 A 
ATOM     18  C   UNL     1       1.424   5.875   2.972  0.00  0.00    +0.001 A 
ATOM     19  C   UNL     1       0.780   5.101   2.029  0.00  0.00    +0.010 A 
ENDBRANCH  13  14
BRANCH  11  20
ATOM     20  C   UNL     1      -2.303   1.815  -1.083  0.00  0.00    +0.065 A 
ATOM     21  C   UNL     1      -2.439   0.850  -2.072  0.00  0.00    +0.028 A 
ATOM     22  C   UNL     1      -3.674   0.623  -2.648  0.00  0.00    +0.002 A 
ATOM     23  C   UNL     1      -4.772   1.362  -2.248  0.00  0.00    +0.000 A 
ATOM     24  C   UNL     1      -4.639   2.327  -1.266  0.00  0.00    +0.002 A 
ATOM     25  C   UNL     1      -3.408   2.556  -0.683  0.00  0.00    +0.028 A 
ENDBRANCH  11  20
ENDBRANCH   7   9
BRANCH   1  27
ATOM     26  C   UNL     1       2.577  -4.363   2.460  0.00  0.00    +0.017 C 
ATOM     27  C   UNL     1       3.576  -3.207   2.539  0.00  0.00    +0.075 C 
BRANCH  27  28
ATOM     28  C   UNL     1       4.979  -3.755   2.546  0.00  0.00    +0.216 C 
ATOM     29  O   UNL     1       5.757  -3.444   1.669  0.00  0.00    -0.276 OA
ATOM     30  N   UNL     1       5.371  -4.592   3.528  0.00  0.00    -0.317 N 
ATOM     31  H   UNL     1       4.666  -4.874   4.324  0.00  0.00    +0.149 HD
BRANCH  30  32
ATOM     32  C   UNL     1       6.735  -5.125   3.535  0.00  0.00    +0.085 C 
BRANCH  32  33
ATOM     33  C   UNL     1       6.919  -6.041   4.747  0.00  0.00    -0.061 C 
BRANCH  33  34
ATOM     34  N   UNL     1       8.287  -6.576   4.754  0.00  0.00    +0.377 N 
ATOM     35  C   UNL     1       8.576  -7.265   6.019  0.00  0.00    -0.097 C 
ATOM     36  C   UNL     1       8.511  -7.465   3.607  0.00  0.00    -0.097 C 
ATOM     37  H   UNL     1       8.981  -5.727   4.665  0.00  0.00    -0.083 HD
ENDBRANCH  33  34
ENDBRANCH  32  33
ENDBRANCH  30  32
ENDBRANCH  27  28
ENDBRANCH   1  27
TORSDOF 8
