REMARK  Name = ZINC19850517
REMARK  6 active torsions:
REMARK  status: ('A' for Active; 'I' for Inactive)
REMARK    1  A    between atoms: C_5  and  C_7
REMARK    2  A    between atoms: N_8  and  N_9
REMARK    3  A    between atoms: C_10  and  C_12
REMARK    4  A    between atoms: C_12  and  N_13
REMARK    5  A    between atoms: N_16  and  S_19
REMARK    6  A    between atoms: S_19  and  C_22
REMARK                            x       y       z     vdW  Elec       q    Type
REMARK                         _______ _______ _______ _____ _____    ______ ____
ROOT
ATOM      1  N   UNL     1      -1.926   4.967  -0.417  0.00  0.00    +0.387 N 
ATOM      2  C   UNL     1      -1.291   3.655  -0.235  0.00  0.00    -0.061 C 
ATOM      3  C   UNL     1      -0.725   3.558   1.185  0.00  0.00    +0.091 C 
ATOM      4  N   UNL     1      -1.798   3.867   2.142  0.00  0.00    -0.180 NA
ATOM      5  C   UNL     1      -2.576   5.099   1.940  0.00  0.00    +0.091 C 
ATOM      6  C   UNL     1      -3.069   5.136   0.490  0.00  0.00    -0.061 C 
ATOM      7  H   UNL     1      -1.182   5.737  -0.164  0.00  0.00    -0.081 HD
ENDROOT
BRANCH   4   8
ATOM      8  S   UNL     1      -2.126   2.852   3.409  0.00  0.00    +0.061 S 
ATOM      9  O   UNL     1      -3.477   3.088   3.780  0.00  0.00    -0.153 OA
ATOM     10  O   UNL     1      -1.653   1.565   3.031  0.00  0.00    -0.153 OA
BRANCH   8  11
ATOM     11  C   UNL     1      -1.131   3.375   4.766  0.00  0.00    +0.106 A 
ATOM     12  C   UNL     1       0.133   2.844   4.942  0.00  0.00    +0.029 A 
ATOM     13  C   UNL     1       0.915   3.257   6.004  0.00  0.00    +0.017 A 
ATOM     14  C   UNL     1       0.429   4.195   6.897  0.00  0.00    +0.018 A 
ATOM     15  C   UNL     1      -0.838   4.722   6.724  0.00  0.00    +0.017 A 
ATOM     16  C   UNL     1      -1.618   4.312   5.659  0.00  0.00    +0.029 A 
ATOM     17 BR   UNL     1       1.496   4.756   8.353  0.00  0.00    -0.050 Br
ENDBRANCH   8  11
ENDBRANCH   4   8
BRANCH   1  18
ATOM     18  C   UNL     1      -2.329   5.168  -1.815  0.00  0.00    +0.020 C 
BRANCH  18  20
ATOM     19  N   UNL     1      -3.997   4.229  -3.383  0.00  0.00    -0.209 N 
ATOM     20  C   UNL     1      -3.391   4.163  -2.181  0.00  0.00    +0.216 C 
ATOM     21  O   UNL     1      -3.700   3.293  -1.394  0.00  0.00    -0.276 OA
ATOM     22  H   UNL     1      -3.660   4.965  -4.129  0.00  0.00    +0.177 HD
BRANCH  19  24
ATOM     23  C   UNL     1      -5.571   3.356  -4.874  0.00  0.00    +0.139 C 
ATOM     24  N   UNL     1      -5.055   3.362  -3.684  0.00  0.00    -0.188 NA
BRANCH  23  29
ATOM     25  C   UNL     1      -2.912   4.978  -6.967  0.00  0.00    +0.001 A 
ATOM     26  C   UNL     1      -3.660   5.461  -8.026  0.00  0.00    +0.001 A 
ATOM     27  C   UNL     1      -5.029   5.262  -8.063  0.00  0.00    +0.020 A 
ATOM     28  C   UNL     1      -5.657   4.578  -7.042  0.00  0.00    +0.050 A 
ATOM     29  C   UNL     1      -4.907   4.088  -5.969  0.00  0.00    +0.013 A 
ATOM     30  C   UNL     1      -3.527   4.298  -5.937  0.00  0.00    +0.011 A 
ATOM     31 CL   UNL     1      -7.375   4.330  -7.089  0.00  0.00    -0.083 Cl
ENDBRANCH  23  29
ENDBRANCH  19  24
ENDBRANCH  18  20
ENDBRANCH   1  18
TORSDOF 6
