REMARK  Name = ZINC43262886
REMARK  11 active torsions:
REMARK  status: ('A' for Active; 'I' for Inactive)
REMARK    1  A    between atoms: C_1  and  C_2
REMARK    2  A    between atoms: C_2  and  C_3
REMARK    3  A    between atoms: C_3  and  C_5
REMARK    4  A    between atoms: C_3  and  N_21
REMARK    5  A    between atoms: C_5  and  C_7
REMARK    6  A    between atoms: C_5  and  N_13
REMARK    7  A    between atoms: N_13  and  C_14
REMARK    8  A    between atoms: N_13  and  C_18
REMARK    9  A    between atoms: C_14  and  C_15
REMARK   10  A    between atoms: C_15  and  C_16
REMARK   11  A    between atoms: C_15  and  C_17
REMARK                            x       y       z     vdW  Elec       q    Type
REMARK                         _______ _______ _______ _____ _____    ______ ____
ROOT
ATOM      1  C   UNL     1      -1.707  -1.718   0.028  0.00  0.00    +0.079 C 
ENDROOT
BRANCH   1   2
ATOM      2  C   UNL     1      -0.363  -2.068  -0.558  0.00  0.00    +0.006 A 
ATOM      3  C   UNL     1       0.817  -2.275   0.076  0.00  0.00    +0.014 A 
ATOM      4  C   UNL     1       1.935  -2.590  -0.674  0.00  0.00    +0.023 A 
ATOM      5  C   UNL     1       1.817  -2.683  -2.022  0.00  0.00    +0.055 A 
ATOM      6  S   UNL     1       0.085  -2.327  -2.267  0.00  0.00    -0.085 S 
ATOM      7 BR   UNL     1       3.143  -3.090  -3.308  0.00  0.00    -0.043 Br
ENDBRANCH   1   2
BRANCH   1   8
ATOM      8  C   UNL     1      -2.075  -0.286  -0.363  0.00  0.00    -0.053 C 
BRANCH   8   9
ATOM      9  N   UNL     1      -3.438   0.013   0.098  0.00  0.00    +0.381 N 
ATOM     10  H   UNL     1      -3.713   0.925  -0.233  0.00  0.00    -0.090 HD
ATOM     11  H   UNL     1      -4.075  -0.682  -0.262  0.00  0.00    -0.090 HD
ATOM     12  H   UNL     1      -3.461  -0.001   1.107  0.00  0.00    -0.090 HD
ENDBRANCH   8   9
BRANCH   8  14
ATOM     13  C   UNL     1      -1.383   2.110  -0.203  0.00  0.00    +0.002 C 
ATOM     14  C   UNL     1      -1.092   0.690   0.286  0.00  0.00    -0.018 C 
ENDBRANCH   8  14
ENDBRANCH   1   8
BRANCH   1  15
ATOM     15  N   UNL     1      -2.723  -2.644  -0.489  0.00  0.00    -0.293 NA
BRANCH  15  16
ATOM     16  C   UNL     1      -2.481  -4.012  -0.011  0.00  0.00    +0.057 C 
ATOM     17  C   UNL     1      -2.409  -5.124  -1.059  0.00  0.00    +0.020 C 
ATOM     18  C   UNL     1      -3.627  -5.018  -0.139  0.00  0.00    +0.020 C 
ENDBRANCH  15  16
BRANCH  15  19
ATOM     19  C   UNL     1      -2.776  -2.601  -1.957  0.00  0.00    +0.088 C 
BRANCH  19  20
ATOM     20  C   UNL     1      -4.114  -3.170  -2.435  0.00  0.00    -0.003 C 
ATOM     21  C   UNL     1      -5.258  -2.326  -1.871  0.00  0.00    +0.008 C 
ATOM     22  C   UNL     1      -4.163  -3.139  -3.964  0.00  0.00    +0.008 C 
ENDBRANCH  19  20
ENDBRANCH  15  19
ENDBRANCH   1  15
TORSDOF 8
