REMARK  Name = ZINC04358497
REMARK  4 active torsions:
REMARK  status: ('A' for Active; 'I' for Inactive)
REMARK    1  A    between atoms: C_4  and  C_7
REMARK    2  A    between atoms: C_7  and  C_12
REMARK    3  A    between atoms: N_14  and  C_15
REMARK    4  A    between atoms: C_18  and  N_21
REMARK                            x       y       z     vdW  Elec       q    Type
REMARK                         _______ _______ _______ _____ _____    ______ ____
ROOT
ATOM      1  C   UNL     1       3.119  -1.987  -0.739  0.00  0.00    +0.231 C 
ATOM      2  O   UNL     1       2.804  -2.951  -0.073  0.00  0.00    -0.274 OA
ATOM      3  N   UNL     1       3.450  -2.143  -2.036  0.00  0.00    -0.285 N 
ATOM      4  H   UNL     1       3.772  -1.385  -2.549  0.00  0.00    +0.155 HD
ENDROOT
BRANCH   3   5
ATOM      5  C   UNL     1       3.330  -3.398  -2.643  0.00  0.00    +0.034 A 
ATOM      6  C   UNL     1       3.569  -4.552  -1.908  0.00  0.00    +0.025 A 
ATOM      7  C   UNL     1       3.445  -5.790  -2.509  0.00  0.00    +0.034 A 
ATOM      8  C   UNL     1       3.093  -5.880  -3.843  0.00  0.00    +0.126 A 
ATOM      9  C   UNL     1       2.859  -4.733  -4.579  0.00  0.00    +0.034 A 
ATOM     10  C   UNL     1       2.976  -3.492  -3.982  0.00  0.00    +0.025 A 
BRANCH   8  11
ATOM     11  N   UNL     1       2.966  -7.207  -4.485  0.00  0.00    +0.056 N 
ATOM     12  O   UNL     1       2.657  -7.289  -5.660  0.00  0.00    -0.126 OA
ATOM     13  O   UNL     1       3.172  -8.219  -3.838  0.00  0.00    -0.126 OA
ENDBRANCH   8  11
ENDBRANCH   3   5
BRANCH   1  14
ATOM     14  C   UNL     1       3.139  -0.615  -0.115  0.00  0.00    +0.107 C 
ATOM     15  C   UNL     1       4.462   0.154  -0.145  0.00  0.00    +0.064 C 
ATOM     16  C   UNL     1       3.949  -0.436   1.171  0.00  0.00    +0.138 C 
ATOM     17 CL   UNL     1       3.307   0.712   2.405  0.00  0.00    -0.099 Cl
ATOM     18 CL   UNL     1       4.804  -1.882   1.824  0.00  0.00    -0.099 Cl
BRANCH  14  22
ATOM     19  C   UNL     1      -0.466   1.642  -0.508  0.00  0.00    +0.000 A 
ATOM     20  C   UNL     1       0.737   2.182  -0.925  0.00  0.00    +0.000 A 
ATOM     21  C   UNL     1       1.903   1.451  -0.799  0.00  0.00    +0.005 A 
ATOM     22  C   UNL     1       1.868   0.181  -0.254  0.00  0.00    -0.030 A 
ATOM     23  C   UNL     1       0.665  -0.359   0.163  0.00  0.00    +0.005 A 
ATOM     24  C   UNL     1      -0.501   0.372   0.035  0.00  0.00    +0.000 A 
ENDBRANCH  14  22
ENDBRANCH   1  14
TORSDOF 4
