REMARK  Name = ZINC08789523
REMARK  8 active torsions:
REMARK  status: ('A' for Active; 'I' for Inactive)
REMARK    1  A    between atoms: C_1  and  C_2
REMARK    2  A    between atoms: C_2  and  C_3
REMARK    3  A    between atoms: C_2  and  C_4
REMARK    4  A    between atoms: C_4  and  C_5
REMARK    5  A    between atoms: N_13  and  C_16
REMARK    6  A    between atoms: C_16  and  C_17
REMARK    7  A    between atoms: C_22  and  O_23
REMARK    8  A    between atoms: O_23  and  C_24
REMARK                            x       y       z     vdW  Elec       q    Type
REMARK                         _______ _______ _______ _____ _____    ______ ____
ROOT
ATOM      1  C   UNL     1      -4.238   5.095   0.840  0.00  0.00    -0.057 C 
ATOM      2  C   UNL     1      -4.058   5.447  -0.652  0.00  0.00    +0.073 C 
ATOM      3  C   UNL     1      -3.020   4.418  -1.182  0.00  0.00    +0.088 C 
ATOM      4  C   UNL     1      -1.828   5.268  -1.562  0.00  0.00    +0.225 C 
ATOM      5  O   UNL     1      -0.794   4.851  -2.038  0.00  0.00    -0.275 OA
ATOM      6  N   UNL     1      -2.093   6.551  -1.293  0.00  0.00    -0.237 N 
ATOM      7  C   UNL     1      -3.307   6.771  -0.774  0.00  0.00    +0.224 C 
ATOM      8  O   UNL     1      -3.747   7.855  -0.456  0.00  0.00    -0.275 OA
ATOM      9  C   UNL     1      -2.670   3.559   0.040  0.00  0.00    +0.050 C 
ATOM     10  C   UNL     1      -1.226   3.145   0.028  0.00  0.00    -0.028 A 
ATOM     11  C   UNL     1      -0.039   3.844   0.021  0.00  0.00    +0.004 A 
ATOM     12  C   UNL     1       1.165   3.162   0.008  0.00  0.00    +0.000 A 
ATOM     13  C   UNL     1       1.174   1.779   0.000  0.00  0.00    +0.002 A 
ATOM     14  C   UNL     1      -0.013   1.076   0.008  0.00  0.00    +0.023 A 
ATOM     15  C   UNL     1      -1.229   1.754   0.017  0.00  0.00    +0.036 A 
ATOM     16  N   UNL     1      -2.541   1.274   0.024  0.00  0.00    -0.286 N 
ATOM     17  C   UNL     1      -3.446   2.271   0.031  0.00  0.00    +0.211 C 
ATOM     18  O   UNL     1      -4.654   2.153   0.038  0.00  0.00    -0.277 OA
ATOM     19  H   UNL     1      -2.773   0.332   0.022  0.00  0.00    +0.155 HD
ATOM     20  N   UNL     1      -3.006   4.383   1.188  0.00  0.00    +0.394 N 
ATOM     21  H   UNL     1      -3.159   3.793   2.015  0.00  0.00    -0.083 HD
ATOM     22  H   UNL     1      -2.251   5.052   1.379  0.00  0.00    -0.083 HD
ENDROOT
BRANCH   1  23
ATOM     23  C   UNL     1      -4.403   6.369   1.671  0.00  0.00    -0.012 C 
BRANCH  23  25
ATOM     24  C   UNL     1      -4.745   7.263   3.979  0.00  0.00    +0.007 C 
ATOM     25  C   UNL     1      -4.704   5.995   3.124  0.00  0.00    -0.019 C 
ATOM     26  C   UNL     1      -6.058   5.286   3.197  0.00  0.00    +0.007 C 
ENDBRANCH  23  25
ENDBRANCH   1  23
BRANCH   6  27
ATOM     27  C   UNL     1      -1.133   7.629  -1.546  0.00  0.00    +0.155 C 
BRANCH  27  28
ATOM     28  C   UNL     1      -1.333   8.163  -2.940  0.00  0.00    +0.012 A 
ATOM     29  C   UNL     1      -0.496   7.758  -3.963  0.00  0.00    +0.009 A 
ATOM     30  C   UNL     1      -0.679   8.248  -5.242  0.00  0.00    +0.001 A 
ATOM     31  C   UNL     1      -1.700   9.144  -5.503  0.00  0.00    +0.004 A 
ATOM     32  C   UNL     1      -2.539   9.552  -4.484  0.00  0.00    +0.046 A 
ATOM     33  C   UNL     1      -2.360   9.058  -3.200  0.00  0.00    +0.125 A 
BRANCH  33  34
ATOM     34  O   UNL     1      -3.187   9.454  -2.197  0.00  0.00    -0.495 OA
ATOM     35  C   UNL     1      -4.223  10.378  -2.538  0.00  0.00    +0.277 C 
ENDBRANCH  33  34
ENDBRANCH  27  28
ENDBRANCH   6  27
TORSDOF 5
