REMARK  Name = ZINC20257622
REMARK  8 active torsions:
REMARK  status: ('A' for Active; 'I' for Inactive)
REMARK    1  A    between atoms: C_1  and  C_2
REMARK    2  A    between atoms: C_5  and  N_16
REMARK    3  A    between atoms: C_6  and  C_15
REMARK    4  A    between atoms: C_7  and  N_8
REMARK    5  A    between atoms: N_8  and  S_9
REMARK    6  A    between atoms: S_9  and  N_12
REMARK    7  A    between atoms: N_12  and  C_13
REMARK    8  A    between atoms: N_12  and  C_14
REMARK                            x       y       z     vdW  Elec       q    Type
REMARK                         _______ _______ _______ _____ _____    ______ ____
ROOT
ATOM      1  C   UNL     1       0.290   3.253   4.234  0.00  0.00    +0.046 C 
ATOM      2  C   UNL     1      -0.543   2.582   3.172  0.00  0.00    -0.028 A 
ATOM      3  C   UNL     1      -1.898   2.843   3.091  0.00  0.00    +0.007 A 
ATOM      4  C   UNL     1      -2.665   2.231   2.119  0.00  0.00    +0.023 A 
ATOM      5  C   UNL     1      -2.076   1.353   1.217  0.00  0.00    +0.029 A 
ATOM      6  C   UNL     1      -0.717   1.084   1.299  0.00  0.00    -0.007 A 
ATOM      7  C   UNL     1       0.051   1.702   2.276  0.00  0.00    +0.057 A 
ATOM      8  C   UNL     1      -0.076   0.129   0.326  0.00  0.00    +0.047 C 
ENDROOT
BRANCH   5   9
ATOM      9  N   UNL     1      -2.852   0.738   0.232  0.00  0.00    -0.358 N 
ATOM     10  H   UNL     1      -2.385   0.044  -0.482  0.00  0.00    +0.142 HD
ATOM     11  H   UNL     1      -3.930   0.949   0.170  0.00  0.00    +0.142 HD
ENDBRANCH   5   9
BRANCH   7  12
ATOM     12  N   UNL     1       1.420   1.439   2.359  0.00  0.00    -0.206 N 
ATOM     13  H   UNL     1       2.110   1.878   1.623  0.00  0.00    +0.175 HD
BRANCH  12  14
ATOM     14  S   UNL     1       2.005   0.465   3.564  0.00  0.00    +0.111 S 
ATOM     15  O   UNL     1       3.420   0.455   3.427  0.00  0.00    -0.138 OA
ATOM     16  O   UNL     1       1.359   0.870   4.763  0.00  0.00    -0.138 OA
BRANCH  14  17
ATOM     17  N   UNL     1       1.488  -1.075   3.244  0.00  0.00    -0.170 NA
ATOM     18  C   UNL     1       2.329  -1.982   2.460  0.00  0.00    +0.132 C 
ATOM     19  C   UNL     1       0.189  -1.530   3.745  0.00  0.00    +0.132 C 
ENDBRANCH  14  17
ENDBRANCH  12  14
ENDBRANCH   7  12
TORSDOF 4
