REMARK  Name = ZINC43092752
REMARK  9 active torsions:
REMARK  status: ('A' for Active; 'I' for Inactive)
REMARK    1  A    between atoms: C_1  and  C_2
REMARK    2  A    between atoms: C_2  and  C_4
REMARK    3  A    between atoms: C_2  and  N_23
REMARK    4  A    between atoms: C_4  and  C_6
REMARK    5  A    between atoms: C_4  and  N_13
REMARK    6  A    between atoms: N_16  and  C_19
REMARK    7  A    between atoms: C_19  and  C_20
REMARK    8  A    between atoms: C_19  and  C_21
REMARK    9  A    between atoms: C_19  and  C_22
REMARK                            x       y       z     vdW  Elec       q    Type
REMARK                         _______ _______ _______ _____ _____    ______ ____
ROOT
ATOM      1  C   UNL     1       0.895  -0.749   0.987  0.00  0.00    +0.073 C 
ENDROOT
BRANCH   1   2
ATOM      2  C   UNL     1       2.340  -0.433   0.697  0.00  0.00    -0.018 A 
ATOM      3  C   UNL     1       3.084  -1.276  -0.107  0.00  0.00    +0.006 A 
ATOM      4  C   UNL     1       4.409  -0.987  -0.374  0.00  0.00    +0.000 A 
ATOM      5  C   UNL     1       4.991   0.146   0.164  0.00  0.00    +0.001 A 
ATOM      6  C   UNL     1       4.248   0.990   0.968  0.00  0.00    +0.015 A 
ATOM      7  C   UNL     1       2.921   0.703   1.231  0.00  0.00    +0.022 A 
ATOM      8 BR   UNL     1       1.902   1.860   2.326  0.00  0.00    -0.050 Br
ENDBRANCH   1   2
BRANCH   1   9
ATOM      9  N   UNL     1       0.674  -2.196   0.855  0.00  0.00    -0.300 NA
ATOM     10  C   UNL     1      -0.757  -2.518   0.931  0.00  0.00    +0.066 C 
ATOM     11  C   UNL     1      -0.949  -4.023   0.730  0.00  0.00    -0.062 C 
ATOM     12  N   UNL     1      -0.209  -4.754   1.767  0.00  0.00    +0.385 N 
ATOM     13  C   UNL     1       1.222  -4.441   1.663  0.00  0.00    -0.062 C 
ATOM     14  C   UNL     1       1.432  -2.939   1.872  0.00  0.00    +0.066 C 
ATOM     15  H   UNL     1      -0.548  -4.481   2.678  0.00  0.00    -0.081 HD
BRANCH  12  16
ATOM     16  C   UNL     1      -0.408  -6.198   1.585  0.00  0.00    -0.074 C 
ATOM     17  C   UNL     1       0.104  -6.613   0.204  0.00  0.00    -0.010 C 
ATOM     18  C   UNL     1       0.362  -6.960   2.665  0.00  0.00    -0.010 C 
ATOM     19  C   UNL     1      -1.899  -6.525   1.695  0.00  0.00    -0.010 C 
ENDBRANCH  12  16
ENDBRANCH   1   9
BRANCH   1  21
ATOM     20  C   UNL     1       0.301  -0.489  -1.425  0.00  0.00    -0.012 C 
ATOM     21  C   UNL     1       0.001  -0.004  -0.006  0.00  0.00    -0.056 C 
BRANCH  21  22
ATOM     22  N   UNL     1       0.265   1.438   0.085  0.00  0.00    +0.381 N 
ATOM     23  H   UNL     1      -0.254   1.921  -0.633  0.00  0.00    -0.090 HD
ATOM     24  H   UNL     1      -0.022   1.776   0.992  0.00  0.00    -0.090 HD
ATOM     25  H   UNL     1       1.251   1.609  -0.040  0.00  0.00    -0.090 HD
ENDBRANCH  21  22
ENDBRANCH   1  21
TORSDOF 5
