REMARK  Name = ZINC01869609
REMARK  10 active torsions:
REMARK  status: ('A' for Active; 'I' for Inactive)
REMARK    1  A    between atoms: C_1  and  C_2
REMARK    2  A    between atoms: C_2  and  C_3
REMARK    3  A    between atoms: C_2  and  C_4
REMARK    4  A    between atoms: N_14  and  C_33
REMARK    5  A    between atoms: C_17  and  S_20
REMARK    6  A    between atoms: S_20  and  C_21
REMARK    7  A    between atoms: C_21  and  C_22
REMARK    8  A    between atoms: N_24  and  C_25
REMARK    9  A    between atoms: C_30  and  O_31
REMARK   10  A    between atoms: O_31  and  C_32
REMARK                            x       y       z     vdW  Elec       q    Type
REMARK                         _______ _______ _______ _____ _____    ______ ____
ROOT
ATOM      1  C   UNL     1      -4.511   3.544   8.543  0.00  0.00    +0.126 C 
ATOM      2  C   UNL     1      -3.053   3.076   8.498  0.00  0.00    +0.068 C 
ATOM      3  C   UNL     1      -2.677   2.849   7.037  0.00  0.00    -0.018 A 
ATOM      4  C   UNL     1      -3.435   3.386   6.057  0.00  0.00    +0.021 A 
ATOM      5  S   UNL     1      -2.653   2.879   4.555  0.00  0.00    -0.072 S 
ATOM      6  C   UNL     1      -1.344   1.974   5.223  0.00  0.00    +0.102 A 
ATOM      7  C   UNL     1      -1.521   2.069   6.601  0.00  0.00    +0.075 A 
ATOM      8  C   UNL     1      -0.520   1.369   7.438  0.00  0.00    +0.268 A 
ATOM      9  O   UNL     1      -0.608   1.403   8.652  0.00  0.00    -0.266 OA
ATOM     10  N   UNL     1       0.485   0.696   6.854  0.00  0.00    -0.245 N 
ATOM     11  C   UNL     1       0.611   0.639   5.474  0.00  0.00    +0.245 A 
ATOM     12  N   UNL     1      -0.294   1.278   4.668  0.00  0.00    -0.249 N 
ATOM     13  C   UNL     1       0.070   1.049   3.367  0.00  0.00    +0.198 A 
ATOM     14  N   UNL     1       1.154   0.313   3.371  0.00  0.00    -0.120 NA
ATOM     15  N   UNL     1       1.497   0.053   4.704  0.00  0.00    -0.109 NA
ATOM     16  C   UNL     1      -4.662   4.222   6.247  0.00  0.00    +0.203 C 
ATOM     17  O   UNL     1      -4.712   4.623   7.626  0.00  0.00    -0.371 OA
ENDROOT
BRANCH  10  18
ATOM     18  C   UNL     1       1.426   0.039   7.655  0.00  0.00    +0.053 A 
ATOM     19  C   UNL     1       1.661  -1.319   7.481  0.00  0.00    +0.026 A 
ATOM     20  C   UNL     1       2.594  -1.963   8.270  0.00  0.00    +0.002 A 
ATOM     21  C   UNL     1       3.285  -1.260   9.239  0.00  0.00    +0.000 A 
ATOM     22  C   UNL     1       3.049   0.091   9.419  0.00  0.00    +0.002 A 
ATOM     23  C   UNL     1       2.122   0.742   8.630  0.00  0.00    +0.026 A 
ENDBRANCH  10  18
BRANCH   1  25
ATOM     24  C   UNL     1      -6.305   4.468  10.016  0.00  0.00    +0.010 C 
ATOM     25  C   UNL     1      -4.845   4.015   9.960  0.00  0.00    +0.012 C 
ATOM     26  C   UNL     1      -4.631   2.863  10.944  0.00  0.00    +0.010 C 
ENDBRANCH   1  25
BRANCH  13  27
ATOM     27  S   UNL     1      -0.769   1.648   1.938  0.00  0.00    -0.076 S 
BRANCH  27  28
ATOM     28  C   UNL     1       0.213   1.008   0.553  0.00  0.00    +0.173 C 
BRANCH  28  29
ATOM     29  C   UNL     1      -0.404   1.453  -0.748  0.00  0.00    +0.228 C 
ATOM     30  O   UNL     1      -1.407   2.135  -0.742  0.00  0.00    -0.275 OA
ATOM     31  N   UNL     1       0.160   1.094  -1.919  0.00  0.00    -0.282 N 
ATOM     32  H   UNL     1       1.005   0.619  -1.924  0.00  0.00    +0.155 HD
BRANCH  31  33
ATOM     33  C   UNL     1      -0.477   1.406  -3.127  0.00  0.00    +0.076 A 
ATOM     34  C   UNL     1      -1.850   1.599  -3.161  0.00  0.00    +0.027 A 
ATOM     35  C   UNL     1      -2.475   1.912  -4.353  0.00  0.00    +0.002 A 
ATOM     36  C   UNL     1      -1.736   2.023  -5.516  0.00  0.00    +0.004 A 
ATOM     37  C   UNL     1      -0.367   1.827  -5.492  0.00  0.00    +0.047 A 
ATOM     38  C   UNL     1       0.267   1.518  -4.300  0.00  0.00    +0.141 A 
BRANCH  38  39
ATOM     39  O   UNL     1       1.613   1.324  -4.274  0.00  0.00    -0.493 OA
ATOM     40  C   UNL     1       2.311   1.455  -5.514  0.00  0.00    +0.277 C 
ENDBRANCH  38  39
ENDBRANCH  31  33
ENDBRANCH  28  29
ENDBRANCH  27  28
ENDBRANCH  13  27
TORSDOF 7
