REMARK  Name = ZINC07885037
REMARK  3 active torsions:
REMARK  status: ('A' for Active; 'I' for Inactive)
REMARK    1  A    between atoms: C_1  and  C_2
REMARK    2  A    between atoms: C_7  and  C_8
REMARK    3  A    between atoms: N_19  and  C_20
REMARK                            x       y       z     vdW  Elec       q    Type
REMARK                         _______ _______ _______ _____ _____    ______ ____
ROOT
ATOM      1  C   UNL     1      -2.281   2.992   0.076  0.00  0.00    +0.198 C 
ATOM      2  N   UNL     1      -2.131   4.400   0.463  0.00  0.00    -0.321 N 
ATOM      3  C   UNL     1      -2.691   4.828   1.662  0.00  0.00    +0.041 A 
ATOM      4  C   UNL     1      -2.153   5.881   2.383  0.00  0.00    +0.024 A 
ATOM      5  C   UNL     1      -2.751   6.278   3.563  0.00  0.00    +0.002 A 
ATOM      6  C   UNL     1      -3.885   5.631   4.031  0.00  0.00    +0.001 A 
ATOM      7  C   UNL     1      -4.431   4.578   3.327  0.00  0.00    +0.015 A 
ATOM      8  C   UNL     1      -3.835   4.164   2.137  0.00  0.00    +0.058 A 
ATOM      9  C   UNL     1      -4.366   3.029   1.362  0.00  0.00    +0.254 C 
ATOM     10  O   UNL     1      -5.440   2.538   1.650  0.00  0.00    -0.270 OA
ATOM     11  N   UNL     1      -3.649   2.542   0.334  0.00  0.00    -0.244 N 
ATOM     12  H   UNL     1      -1.649   5.020  -0.106  0.00  0.00    +0.148 HD
ENDROOT
BRANCH  11  13
ATOM     13  C   UNL     1      -4.227   1.582  -0.506  0.00  0.00    +0.042 A 
ATOM     14  C   UNL     1      -4.907   1.979  -1.650  0.00  0.00    +0.027 A 
ATOM     15  C   UNL     1      -5.478   1.033  -2.480  0.00  0.00    +0.051 A 
ATOM     16  C   UNL     1      -5.373  -0.314  -2.174  0.00  0.00    +0.166 A 
ATOM     17  C   UNL     1      -4.691  -0.716  -1.028  0.00  0.00    +0.168 A 
ATOM     18  C   UNL     1      -4.114   0.233  -0.199  0.00  0.00    +0.073 A 
ATOM     19  O   UNL     1      -4.728  -2.078  -0.952  0.00  0.00    -0.453 OA
ATOM     20  C   UNL     1      -5.085  -2.527  -2.273  0.00  0.00    +0.466 C 
ATOM     21  O   UNL     1      -5.838  -1.426  -2.817  0.00  0.00    -0.453 OA
ENDBRANCH  11  13
BRANCH   1  28
ATOM     22  C   UNL     1       0.441   2.654  -0.830  0.00  0.00    +0.044 C 
ATOM     23  C   UNL     1      -0.018   1.988   0.441  0.00  0.00    -0.044 A 
ATOM     24  C   UNL     1       0.864   1.215   1.173  0.00  0.00    +0.004 A 
ATOM     25  C   UNL     1       0.443   0.604   2.340  0.00  0.00    +0.000 A 
ATOM     26  C   UNL     1      -0.859   0.766   2.774  0.00  0.00    +0.000 A 
ATOM     27  C   UNL     1      -1.742   1.535   2.039  0.00  0.00    +0.007 A 
ATOM     28  C   UNL     1      -1.320   2.150   0.875  0.00  0.00    -0.006 A 
ENDBRANCH   1  28
TORSDOF 2
