REMARK  Name = ZINC12870227
REMARK  7 active torsions:
REMARK  status: ('A' for Active; 'I' for Inactive)
REMARK    1  A    between atoms: C_1  and  C_2
REMARK    2  A    between atoms: C_15  and  C_17
REMARK    3  A    between atoms: C_17  and  N_52
REMARK    4  A    between atoms: C_18  and  N_52
REMARK    5  A    between atoms: C_19  and  C_20
REMARK    6  A    between atoms: C_19  and  N_52
REMARK    7  A    between atoms: N_22  and  C_23
REMARK                            x       y       z     vdW  Elec       q    Type
REMARK                         _______ _______ _______ _____ _____    ______ ____
ROOT
ATOM      1  C   UNL     1       0.456   4.066   2.316  0.00  0.00    +0.029 C 
ATOM      2  C   UNL     1       1.599   4.144   1.302  0.00  0.00    +0.087 C 
ATOM      3  C   UNL     1       2.835   3.448   1.874  0.00  0.00    +0.118 C 
ATOM      4  C   UNL     1       3.823   3.161   0.775  0.00  0.00    +0.219 C 
ATOM      5  O   UNL     1       4.819   3.845   0.665  0.00  0.00    -0.275 OA
ATOM      6  N   UNL     1       3.607   2.147  -0.091  0.00  0.00    -0.284 N 
ATOM      7  C   UNL     1       2.417   1.411  -0.039  0.00  0.00    +0.055 A 
ATOM      8  C   UNL     1       2.438   0.026  -0.043  0.00  0.00    +0.025 A 
ATOM      9  C   UNL     1       1.249  -0.680  -0.022  0.00  0.00    +0.002 A 
ATOM     10  C   UNL     1       0.040  -0.008  -0.003  0.00  0.00    +0.002 A 
ATOM     11  C   UNL     1       0.011   1.374   0.006  0.00  0.00    +0.025 A 
ATOM     12  C   UNL     1       1.198   2.088  -0.002  0.00  0.00    +0.058 A 
ATOM     13  N   UNL     1       1.190   3.488   0.059  0.00  0.00    -0.268 N 
ATOM     14  C   UNL     1       0.811   4.218  -1.009  0.00  0.00    +0.204 C 
ATOM     15  O   UNL     1       0.808   5.429  -0.946  0.00  0.00    -0.277 OA
ATOM     16  H   UNL     1       4.281   1.927  -0.753  0.00  0.00    +0.155 HD
ENDROOT
BRANCH  14  17
ATOM     17  C   UNL     1       0.393   3.530  -2.283  0.00  0.00    +0.019 C 
BRANCH  17  19
ATOM     18  C   UNL     1      -1.171   5.279  -2.881  0.00  0.00    -0.095 C 
ATOM     19  N   UNL     1       0.052   4.556  -3.290  0.00  0.00    +0.389 N 
ATOM     20  H   UNL     1       0.827   5.225  -3.360  0.00  0.00    -0.081 HD
BRANCH  19  21
ATOM     21  C   UNL     1      -0.155   3.921  -4.609  0.00  0.00    +0.019 C 
BRANCH  21  22
ATOM     22  C   UNL     1      -0.282   5.000  -5.653  0.00  0.00    +0.201 C 
ATOM     23  O   UNL     1      -0.224   6.167  -5.329  0.00  0.00    -0.278 OA
ATOM     24  N   UNL     1      -0.459   4.668  -6.947  0.00  0.00    -0.287 N 
ATOM     25  H   UNL     1      -0.438   3.736  -7.216  0.00  0.00    +0.155 HD
BRANCH  24  26
ATOM     26  C   UNL     1      -0.674   5.667  -7.903  0.00  0.00    +0.033 A 
ATOM     27  C   UNL     1      -1.520   5.430  -8.979  0.00  0.00    +0.025 A 
ATOM     28  C   UNL     1      -1.734   6.420  -9.918  0.00  0.00    +0.022 A 
ATOM     29  C   UNL     1      -1.098   7.642  -9.794  0.00  0.00    +0.041 A 
ATOM     30  C   UNL     1      -0.250   7.879  -8.726  0.00  0.00    +0.022 A 
ATOM     31  C   UNL     1      -0.037   6.895  -7.781  0.00  0.00    +0.025 A 
ATOM     32 CL   UNL     1      -1.364   8.882 -10.980  0.00  0.00    -0.084 Cl
ENDBRANCH  24  26
ENDBRANCH  21  22
ENDBRANCH  19  21
ENDBRANCH  17  19
ENDBRANCH  14  17
TORSDOF 5
