REMARK  Name = ZINC25537676
REMARK  10 active torsions:
REMARK  status: ('A' for Active; 'I' for Inactive)
REMARK    1  A    between atoms: C_1  and  O_2
REMARK    2  A    between atoms: O_2  and  C_3
REMARK    3  A    between atoms: C_6  and  C_9
REMARK    4  A    between atoms: C_12  and  S_21
REMARK    5  A    between atoms: N_13  and  C_14
REMARK    6  A    between atoms: C_14  and  C_15
REMARK    7  A    between atoms: S_21  and  C_22
REMARK    8  A    between atoms: C_22  and  C_23
REMARK    9  A    between atoms: C_23  and  C_24
REMARK   10  A    between atoms: N_29  and  C_30
REMARK                            x       y       z     vdW  Elec       q    Type
REMARK                         _______ _______ _______ _____ _____    ______ ____
ROOT
ATOM      1  C   UNL     1       3.692  -0.693   0.022  0.00  0.00    +0.165 A 
ATOM      2  N   UNL     1       3.866  -1.976  -0.194  0.00  0.00    -0.128 NA
ATOM      3  N   UNL     1       5.122  -2.252  -0.213  0.00  0.00    -0.122 NA
ATOM      4  C   UNL     1       5.826  -1.161  -0.010  0.00  0.00    +0.192 A 
ATOM      5  N   UNL     1       4.941  -0.130   0.141  0.00  0.00    -0.300 N 
ENDROOT
BRANCH   1   9
ATOM      6  C   UNL     1      -0.030   1.341   0.283  0.00  0.00    +0.120 A 
ATOM      7  C   UNL     1       0.038   0.096  -0.329  0.00  0.00    +0.046 A 
ATOM      8  C   UNL     1       1.243  -0.567  -0.416  0.00  0.00    +0.015 A 
ATOM      9  C   UNL     1       2.397   0.014   0.113  0.00  0.00    +0.020 A 
ATOM     10  C   UNL     1       2.325   1.265   0.728  0.00  0.00    +0.015 A 
ATOM     11  C   UNL     1       1.116   1.922   0.810  0.00  0.00    +0.046 A 
BRANCH   6  13
ATOM     12  C   UNL     1      -2.359   1.333  -0.192  0.00  0.00    +0.277 C 
ATOM     13  O   UNL     1      -1.221   1.988   0.372  0.00  0.00    -0.495 OA
ENDBRANCH   6  13
ENDBRANCH   1   9
BRANCH   5  14
ATOM     14  C   UNL     1       5.258   1.279   0.383  0.00  0.00    +0.157 C 
BRANCH  14  15
ATOM     15  C   UNL     1       5.386   1.522   1.888  0.00  0.00    +0.138 C 
ATOM     16  C   UNL     1       5.605   3.026   2.160  0.00  0.00    +0.035 C 
ATOM     17  C   UNL     1       6.644   3.005   3.314  0.00  0.00    +0.031 C 
ATOM     18  C   UNL     1       7.475   1.752   2.938  0.00  0.00    +0.160 C 
ATOM     19  O   UNL     1       6.526   0.820   2.398  0.00  0.00    -0.375 OA
ENDBRANCH  14  15
ENDBRANCH   5  14
BRANCH   4  20
ATOM     20  S   UNL     1       7.583  -1.047   0.049  0.00  0.00    -0.086 S 
BRANCH  20  21
ATOM     21  C   UNL     1       8.020  -2.780  -0.238  0.00  0.00    +0.086 C 
BRANCH  21  22
ATOM     22  C   UNL     1       9.542  -2.931  -0.230  0.00  0.00    +0.107 C 
BRANCH  22  23
ATOM     23  C   UNL     1       9.906  -4.373  -0.469  0.00  0.00    +0.221 C 
ATOM     24  O   UNL     1       9.034  -5.200  -0.629  0.00  0.00    -0.275 OA
ATOM     25  N   UNL     1      11.201  -4.745  -0.503  0.00  0.00    -0.240 N 
ATOM     26  C   UNL     1      11.526  -6.036  -0.717  0.00  0.00    +0.306 C 
ATOM     27  O   UNL     1      10.652  -6.864  -0.878  0.00  0.00    -0.252 OA
ATOM     28  N   UNL     1      12.821  -6.407  -0.751  0.00  0.00    -0.296 N 
ATOM     29  H   UNL     1      11.993  -3.995  -0.357  0.00  0.00    +0.159 HD
ATOM     30  H   UNL     1      13.613  -5.657  -0.605  0.00  0.00    +0.151 HD
BRANCH  28  31
ATOM     31  C   UNL     1      13.175  -7.810  -0.984  0.00  0.00    +0.074 C 
ATOM     32  C   UNL     1      13.217  -8.573   0.357  0.00  0.00    +0.022 C 
ATOM     33  C   UNL     1      14.401  -9.559   0.195  0.00  0.00    +0.002 C 
ATOM     34  C   UNL     1      15.438  -8.722  -0.594  0.00  0.00    +0.002 C 
ATOM     35  C   UNL     1      14.587  -7.905  -1.588  0.00  0.00    +0.022 C 
ENDBRANCH  28  31
ENDBRANCH  22  23
ENDBRANCH  21  22
ENDBRANCH  20  21
ENDBRANCH   4  20
TORSDOF 9
