REMARK  Name = ZINC23688105
REMARK  13 active torsions:
REMARK  status: ('A' for Active; 'I' for Inactive)
REMARK    1  A    between atoms: C_1  and  C_2
REMARK    2  A    between atoms: C_2  and  C_3
REMARK    3  A    between atoms: C_3  and  C_4
REMARK    4  A    between atoms: C_4  and  C_5
REMARK    5  A    between atoms: C_5  and  N_6
REMARK    6  A    between atoms: N_6  and  C_7
REMARK    7  A    between atoms: C_8  and  N_20
REMARK    8  A    between atoms: N_9  and  C_16
REMARK    9  A    between atoms: C_16  and  C_17
REMARK   10  A    between atoms: C_17  and  C_18
REMARK   11  A    between atoms: C_18  and  C_19
REMARK   12  A    between atoms: C_21  and  C_23
REMARK   13  A    between atoms: N_28  and  C_30
REMARK                            x       y       z     vdW  Elec       q    Type
REMARK                         _______ _______ _______ _____ _____    ______ ____
ROOT
ATOM      1  N   UNL     1      -1.353   1.441  -3.344  0.00  0.00    -0.264 N 
ATOM      2  C   UNL     1      -1.861   0.363  -3.977  0.00  0.00    +0.225 C 
ATOM      3  O   UNL     1      -1.697  -0.746  -3.514  0.00  0.00    -0.275 OA
ENDROOT
BRANCH   1   4
ATOM      4  C   UNL     1      -1.456   2.719  -3.933  0.00  0.00    +0.140 A 
ATOM      5  C   UNL     1      -0.340   3.347  -4.446  0.00  0.00    +0.127 A 
ATOM      6  N   UNL     1      -0.473   4.590  -5.019  0.00  0.00    -0.280 N 
ATOM      7  C   UNL     1      -1.675   5.192  -5.069  0.00  0.00    +0.331 A 
ATOM      8  O   UNL     1      -1.771   6.293  -5.576  0.00  0.00    -0.246 OA
ATOM      9  N   UNL     1      -2.773   4.597  -4.570  0.00  0.00    -0.273 N 
ATOM     10  H   UNL     1      -3.746   5.107  -4.622  0.00  0.00    +0.173 HD
ATOM     11  C   UNL     1      -2.698   3.377  -4.003  0.00  0.00    +0.277 A 
ATOM     12  O   UNL     1      -3.700   2.848  -3.553  0.00  0.00    -0.266 OA
BRANCH   5  13
ATOM     13  N   UNL     1       0.890   2.736  -4.389  0.00  0.00    -0.343 N 
ATOM     14  H   UNL     1       1.776   3.242  -4.799  0.00  0.00    +0.144 HD
ATOM     15  H   UNL     1       0.988   1.739  -3.933  0.00  0.00    +0.144 HD
ENDBRANCH   5  13
BRANCH   6  16
ATOM     16  C   UNL     1       0.703   5.266  -5.573  0.00  0.00    +0.128 C 
BRANCH  16  17
ATOM     17  C   UNL     1       1.365   6.113  -4.483  0.00  0.00    +0.021 C 
BRANCH  17  18
ATOM     18  C   UNL     1       2.593   6.819  -5.061  0.00  0.00    -0.002 C 
ATOM     19  C   UNL     1       3.255   7.665  -3.972  0.00  0.00    +0.004 C 
ENDBRANCH  17  18
ENDBRANCH  16  17
ENDBRANCH   6  16
ENDBRANCH   1   4
BRANCH   2  20
ATOM     20  C   UNL     1      -2.633   0.537  -5.260  0.00  0.00    +0.102 C 
ATOM     21  C   UNL     1      -1.708   0.373  -6.489  0.00  0.00    +0.110 C 
ATOM     22  C   UNL     1      -1.838  -1.088  -6.858  0.00  0.00    +0.221 C 
ATOM     23  O   UNL     1      -1.075  -1.692  -7.583  0.00  0.00    -0.275 OA
ATOM     24  N   UNL     1      -2.921  -1.620  -6.266  0.00  0.00    -0.269 N 
ATOM     25  C   UNL     1      -3.635  -0.620  -5.464  0.00  0.00    +0.127 C 
BRANCH  24  26
ATOM     26  C   UNL     1      -3.318  -2.956  -6.399  0.00  0.00    +0.055 A 
ATOM     27  C   UNL     1      -4.186  -3.326  -7.419  0.00  0.00    +0.025 A 
ATOM     28  C   UNL     1      -4.571  -4.645  -7.550  0.00  0.00    +0.002 A 
ATOM     29  C   UNL     1      -4.103  -5.597  -6.662  0.00  0.00    +0.002 A 
ATOM     30  C   UNL     1      -3.244  -5.231  -5.643  0.00  0.00    +0.022 A 
ATOM     31  C   UNL     1      -2.850  -3.913  -5.508  0.00  0.00    +0.062 A 
ATOM     32 CL   UNL     1      -1.772  -3.455  -4.227  0.00  0.00    -0.082 Cl
ENDBRANCH  24  26
ENDBRANCH   2  20
BRANCH   1  33
ATOM     33  C   UNL     1      -0.696   1.285  -2.044  0.00  0.00    +0.114 C 
BRANCH  33  34
ATOM     34  C   UNL     1      -1.747   1.316  -0.933  0.00  0.00    +0.019 C 
BRANCH  34  35
ATOM     35  C   UNL     1      -1.075   1.040   0.413  0.00  0.00    +0.001 C 
BRANCH  35  37
ATOM     36  C   UNL     1      -1.453   0.796   2.871  0.00  0.00    +0.004 C 
ATOM     37  C   UNL     1      -2.126   1.072   1.524  0.00  0.00    -0.003 C 
ENDBRANCH  35  37
ENDBRANCH  34  35
ENDBRANCH  33  34
ENDBRANCH   1  33
TORSDOF 11
