REMARK  Name = ZINC14250986
REMARK  8 active torsions:
REMARK  status: ('A' for Active; 'I' for Inactive)
REMARK    1  A    between atoms: C_2  and  C_3
REMARK    2  A    between atoms: C_3  and  N_4
REMARK    3  A    between atoms: N_4  and  C_5
REMARK    4  A    between atoms: N_4  and  S_11
REMARK    5  A    between atoms: S_11  and  C_14
REMARK    6  A    between atoms: C_18  and  C_20
REMARK    7  A    between atoms: N_22  and  C_23
REMARK    8  A    between atoms: C_23  and  C_24
REMARK                            x       y       z     vdW  Elec       q    Type
REMARK                         _______ _______ _______ _____ _____    ______ ____
ROOT
ATOM      1  C   UNL     1      -0.202   3.644  -0.331  0.00  0.00    +0.109 A 
ATOM      2  C   UNL     1       0.931   2.870  -0.507  0.00  0.00    +0.029 A 
ATOM      3  C   UNL     1       0.819   1.507  -0.720  0.00  0.00    +0.003 A 
ATOM      4  C   UNL     1      -0.425   0.912  -0.757  0.00  0.00    +0.013 A 
ATOM      5  C   UNL     1      -1.572   1.688  -0.586  0.00  0.00    +0.039 A 
ATOM      6  C   UNL     1      -1.451   3.062  -0.367  0.00  0.00    +0.041 A 
ENDROOT
BRANCH   5   7
ATOM      7  C   UNL     1      -2.909   1.058  -0.631  0.00  0.00    +0.244 C 
ATOM      8  O   UNL     1      -3.906   1.737  -0.482  0.00  0.00    -0.270 OA
ATOM      9  N   UNL     1      -3.021  -0.269  -0.838  0.00  0.00    -0.307 N 
ATOM     10  H   UNL     1      -2.225  -0.810  -0.957  0.00  0.00    +0.149 HD
BRANCH   9  11
ATOM     11  C   UNL     1      -4.346  -0.893  -0.883  0.00  0.00    +0.140 C 
BRANCH  11  12
ATOM     12  C   UNL     1      -4.195  -2.373  -1.125  0.00  0.00    -0.026 A 
ATOM     13  C   UNL     1      -4.076  -3.258  -0.061  0.00  0.00    +0.023 A 
ATOM     14  C   UNL     1      -3.940  -4.608  -0.317  0.00  0.00    +0.084 A 
ATOM     15  C   UNL     1      -4.034  -4.253  -2.595  0.00  0.00    +0.099 A 
ATOM     16  C   UNL     1      -4.179  -2.881  -2.411  0.00  0.00    +0.047 A 
ATOM     17  N   UNL     1      -4.011  -4.776  -3.882  0.00  0.00    -0.317 N 
ATOM     18  C   UNL     1      -2.846  -4.261  -4.646  0.00  0.00    +0.106 C 
ATOM     19  C   UNL     1      -2.681  -5.299  -5.784  0.00  0.00    +0.020 C 
ATOM     20  C   UNL     1      -3.015  -6.636  -5.083  0.00  0.00    +0.020 C 
ATOM     21  C   UNL     1      -3.856  -6.247  -3.854  0.00  0.00    +0.106 C 
ATOM     22  N   UNL     1      -3.915  -5.141  -1.567  0.00  0.00    -0.350 N 
ATOM     23  H   UNL     1      -3.813  -6.151  -1.728  0.00  0.00    +0.166 HD
ENDBRANCH  11  12
ENDBRANCH   9  11
ENDBRANCH   5   7
BRANCH   1  24
ATOM     24  S   UNL     1      -0.048   5.379  -0.061  0.00  0.00    +0.075 S 
ATOM     25  O   UNL     1      -1.226   5.790   0.618  0.00  0.00    -0.150 OA
ATOM     26  O   UNL     1       1.252   5.593   0.472  0.00  0.00    -0.150 OA
BRANCH  24  27
ATOM     27  N   UNL     1      -0.077   6.110  -1.546  0.00  0.00    -0.199 N 
BRANCH  27  28
ATOM     28  C   UNL     1       1.120   6.428  -2.192  0.00  0.00    +0.052 A 
ATOM     29  C   UNL     1       1.410   5.874  -3.433  0.00  0.00    +0.025 A 
ATOM     30  C   UNL     1       2.592   6.194  -4.071  0.00  0.00    +0.002 A 
ATOM     31  C   UNL     1       3.492   7.057  -3.471  0.00  0.00    +0.000 A 
ATOM     32  C   UNL     1       3.209   7.606  -2.233  0.00  0.00    +0.002 A 
ATOM     33  C   UNL     1       2.026   7.294  -1.593  0.00  0.00    +0.025 A 
ENDBRANCH  27  28
BRANCH  27  34
ATOM     34  C   UNL     1      -1.359   6.423  -2.183  0.00  0.00    +0.158 C 
BRANCH  34  36
ATOM     35  C   UNL     1      -2.000   8.683  -2.849  0.00  0.00    +0.005 C 
ATOM     36  C   UNL     1      -1.738   7.849  -1.873  0.00  0.00    -0.014 C 
ENDBRANCH  34  36
ENDBRANCH  27  34
ENDBRANCH  24  27
ENDBRANCH   1  24
TORSDOF 8
