REMARK  Name = ZINC19148111
REMARK  10 active torsions:
REMARK  status: ('A' for Active; 'I' for Inactive)
REMARK    1  A    between atoms: C_1  and  C_2
REMARK    2  A    between atoms: C_4  and  C_8
REMARK    3  A    between atoms: C_5  and  C_7
REMARK    4  A    between atoms: C_9  and  C_20
REMARK    5  A    between atoms: N_11  and  C_13
REMARK    6  A    between atoms: C_20  and  N_49
REMARK    7  A    between atoms: C_21  and  C_22
REMARK    8  A    between atoms: C_21  and  N_49
REMARK    9  A    between atoms: C_22  and  S_23
REMARK   10  A    between atoms: S_23  and  C_24
REMARK                            x       y       z     vdW  Elec       q    Type
REMARK                         _______ _______ _______ _____ _____    ______ ____
ROOT
ATOM      1  C   UNL     1       0.473  -4.094  -0.217  0.00  0.00    +0.095 A 
ATOM      2  C   UNL     1       1.878  -4.187  -0.213  0.00  0.00    -0.019 A 
ATOM      3  C   UNL     1       2.375  -2.955   0.033  0.00  0.00    +0.117 A 
ATOM      4  N   UNL     1       1.326  -2.107   0.191  0.00  0.00    -0.236 N 
ATOM      5  N   UNL     1       0.145  -2.843   0.026  0.00  0.00    -0.166 NA
ENDROOT
BRANCH   1   9
ATOM      6  C   UNL     1      -1.255  -8.806   0.562  0.00  0.00    +0.051 C 
ATOM      7  C   UNL     1      -1.207  -7.420  -0.028  0.00  0.00    -0.012 A 
ATOM      8  C   UNL     1      -0.322  -6.426   0.210  0.00  0.00    +0.021 A 
ATOM      9  C   UNL     1      -0.474  -5.213  -0.453  0.00  0.00    +0.012 A 
ATOM     10  C   UNL     1      -1.512  -5.076  -1.332  0.00  0.00    -0.004 A 
ATOM     11  S   UNL     1      -2.300  -6.674  -1.226  0.00  0.00    -0.098 S 
ATOM     12  C   UNL     1      -1.893  -3.884  -2.172  0.00  0.00    +0.052 C 
ENDBRANCH   1   9
BRANCH   4  13
ATOM     13  C   UNL     1       1.410  -0.735   0.464  0.00  0.00    +0.100 A 
ATOM     14  C   UNL     1       2.651  -0.128   0.604  0.00  0.00    +0.031 A 
ATOM     15  C   UNL     1       2.731   1.224   0.874  0.00  0.00    +0.002 A 
ATOM     16  C   UNL     1       1.577   1.975   1.005  0.00  0.00    +0.003 A 
ATOM     17  C   UNL     1       0.339   1.376   0.867  0.00  0.00    +0.040 A 
ATOM     18  C   UNL     1       0.251   0.022   0.596  0.00  0.00    +0.149 A 
ATOM     19  F   UNL     1      -0.959  -0.564   0.461  0.00  0.00    -0.203 F 
ENDBRANCH   4  13
BRANCH   2  20
ATOM     20  C   UNL     1       2.685  -5.438  -0.449  0.00  0.00    -0.043 C 
BRANCH  20  21
ATOM     21  N   UNL     1       2.651  -5.771  -1.886  0.00  0.00    +0.382 N 
ATOM     22  H   UNL     1       3.049  -4.993  -2.424  0.00  0.00    -0.085 HD
ATOM     23  H   UNL     1       1.677  -5.925  -2.175  0.00  0.00    -0.085 HD
BRANCH  21  24
ATOM     24  C   UNL     1       3.434  -6.994  -2.147  0.00  0.00    -0.071 C 
BRANCH  24  25
ATOM     25  C   UNL     1       3.380  -7.314  -3.642  0.00  0.00    +0.058 C 
BRANCH  25  26
ATOM     26  S   UNL     1       4.339  -8.814  -3.972  0.00  0.00    -0.088 S 
BRANCH  26  27
ATOM     27  C   UNL     1       4.111  -8.944  -5.715  0.00  0.00    +0.184 A 
ATOM     28  N   UNL     1       4.620  -9.907  -6.514  0.00  0.00    -0.254 N 
ATOM     29  H   UNL     1       5.176 -10.654  -6.242  0.00  0.00    +0.191 HD
ATOM     30  N   UNL     1       4.183  -9.612  -7.815  0.00  0.00    -0.160 NA
ATOM     31  C   UNL     1       3.460  -8.528  -7.739  0.00  0.00    +0.245 A 
ATOM     32  N   UNL     1       3.410  -8.124  -6.469  0.00  0.00    -0.209 NA
ENDBRANCH  26  27
ENDBRANCH  25  26
ENDBRANCH  24  25
ENDBRANCH  21  24
ENDBRANCH  20  21
ENDBRANCH   2  20
TORSDOF 8
