REMARK  Name = ZINC39710534
REMARK  13 active torsions:
REMARK  status: ('A' for Active; 'I' for Inactive)
REMARK    1  A    between atoms: C_1  and  C_2
REMARK    2  A    between atoms: C_2  and  C_3
REMARK    3  A    between atoms: C_10  and  C_15
REMARK    4  A    between atoms: C_15  and  C_17
REMARK    5  A    between atoms: C_15  and  N_26
REMARK    6  A    between atoms: N_21  and  C_22
REMARK    7  A    between atoms: C_22  and  C_23
REMARK    8  A    between atoms: C_23  and  O_24
REMARK    9  A    between atoms: O_24  and  C_25
REMARK   10  A    between atoms: N_26  and  C_27
REMARK   11  A    between atoms: N_26  and  C_34
REMARK   12  A    between atoms: C_27  and  C_28
REMARK   13  A    between atoms: C_34  and  C_35
REMARK                            x       y       z     vdW  Elec       q    Type
REMARK                         _______ _______ _______ _____ _____    ______ ____
ROOT
ATOM      1  C   UNL     1      -5.421  -1.533  -3.478  0.00  0.00    +0.143 C 
ENDROOT
BRANCH   1   9
ATOM      2  C   UNL     1      -0.602   0.975  -1.349  0.00  0.00    -0.047 A 
ATOM      3  C   UNL     1      -1.339   1.722  -0.429  0.00  0.00    +0.005 A 
ATOM      4  C   UNL     1      -2.691   1.833  -0.491  0.00  0.00    +0.024 A 
ATOM      5  C   UNL     1      -3.415   1.184  -1.509  0.00  0.00    +0.040 A 
ATOM      6  N   UNL     1      -4.742   1.300  -1.560  0.00  0.00    -0.284 N 
ATOM      7  C   UNL     1      -5.482   0.717  -2.488  0.00  0.00    +0.226 C 
ATOM      8  O   UNL     1      -6.690   0.860  -2.484  0.00  0.00    -0.275 OA
ATOM      9  C   UNL     1      -4.821  -0.127  -3.554  0.00  0.00    +0.123 C 
ATOM     10  C   UNL     1      -3.312  -0.262  -3.500  0.00  0.00    -0.003 C 
ATOM     11  C   UNL     1      -2.662   0.388  -2.494  0.00  0.00    -0.007 A 
ATOM     12  C   UNL     1      -1.206   0.316  -2.370  0.00  0.00    +0.013 A 
ATOM     13  H   UNL     1      -5.185   1.838  -0.885  0.00  0.00    +0.155 HD
BRANCH   2  15
ATOM     14  C   UNL     1       1.538   2.049  -1.995  0.00  0.00    +0.009 C 
ATOM     15  C   UNL     1       0.897   0.904  -1.208  0.00  0.00    +0.032 C 
ENDBRANCH   2  15
ENDBRANCH   1   9
BRANCH   1  16
ATOM     16  C   UNL     1      -4.750  -2.420  -4.495  0.00  0.00    +0.170 A 
ATOM     17  N   UNL     1      -5.155  -2.652  -5.720  0.00  0.00    -0.112 NA
ATOM     18  N   UNL     1      -4.316  -3.461  -6.270  0.00  0.00    -0.023 NA
ATOM     19  N   UNL     1      -3.387  -3.750  -5.428  0.00  0.00    -0.044 NA
ATOM     20  N   UNL     1      -3.616  -3.124  -4.324  0.00  0.00    -0.225 N 
BRANCH  20  21
ATOM     21  C   UNL     1      -2.797  -3.173  -3.110  0.00  0.00    +0.175 C 
BRANCH  21  22
ATOM     22  C   UNL     1      -2.902  -4.563  -2.479  0.00  0.00    +0.183 C 
BRANCH  22  23
ATOM     23  O   UNL     1      -1.993  -4.657  -1.380  0.00  0.00    -0.381 OA
ATOM     24  C   UNL     1      -2.012  -5.923  -0.717  0.00  0.00    +0.194 C 
ENDBRANCH  22  23
ENDBRANCH  21  22
ENDBRANCH  20  21
ENDBRANCH   1  16
BRANCH   1  25
ATOM     25  N   UNL     1      -6.861  -1.467  -3.760  0.00  0.00    -0.283 NA
BRANCH  25  26
ATOM     26  C   UNL     1      -7.634  -1.319  -2.519  0.00  0.00    +0.120 C 
BRANCH  26  27
ATOM     27  C   UNL     1      -7.861  -2.675  -1.904  0.00  0.00    -0.033 A 
ATOM     28  C   UNL     1      -8.914  -3.461  -2.332  0.00  0.00    +0.005 A 
ATOM     29  C   UNL     1      -9.123  -4.705  -1.768  0.00  0.00    +0.000 A 
ATOM     30  C   UNL     1      -8.277  -5.164  -0.775  0.00  0.00    +0.000 A 
ATOM     31  C   UNL     1      -7.223  -4.379  -0.347  0.00  0.00    +0.000 A 
ATOM     32  C   UNL     1      -7.012  -3.136  -0.915  0.00  0.00    +0.005 A 
ENDBRANCH  26  27
ENDBRANCH  25  26
BRANCH  25  33
ATOM     33  C   UNL     1      -7.164  -0.381  -4.702  0.00  0.00    +0.122 C 
BRANCH  33  34
ATOM     34  C   UNL     1      -6.815  -0.818  -6.101  0.00  0.00    -0.015 A 
ATOM     35  C   UNL     1      -5.586  -0.491  -6.653  0.00  0.00    +0.008 A 
ATOM     36  C   UNL     1      -5.309  -0.914  -7.944  0.00  0.00    +0.020 A 
ATOM     37  C   UNL     1      -6.260  -1.643  -8.633  0.00  0.00    +0.111 A 
ATOM     38  N   UNL     1      -7.419  -1.935  -8.076  0.00  0.00    -0.263 NA
ATOM     39  C   UNL     1      -7.715  -1.555  -6.849  0.00  0.00    +0.115 A 
ENDBRANCH  33  34
ENDBRANCH  25  33
ENDBRANCH   1  25
TORSDOF 11
