REMARK  Name = ZINC39455818
REMARK  11 active torsions:
REMARK  status: ('A' for Active; 'I' for Inactive)
REMARK    1  A    between atoms: C_1  and  C_2
REMARK    2  A    between atoms: C_2  and  C_4
REMARK    3  A    between atoms: C_2  and  N_28
REMARK    4  A    between atoms: C_7  and  S_16
REMARK    5  A    between atoms: N_8  and  C_9
REMARK    6  A    between atoms: S_16  and  C_17
REMARK    7  A    between atoms: C_17  and  C_18
REMARK    8  A    between atoms: N_23  and  C_24
REMARK    9  A    between atoms: C_24  and  C_25
REMARK   10  A    between atoms: C_25  and  C_26
REMARK   11  A    between atoms: C_25  and  C_27
REMARK                            x       y       z     vdW  Elec       q    Type
REMARK                         _______ _______ _______ _____ _____    ______ ____
ROOT
ATOM      1  C   UNL     1       0.707  -0.490  -1.238  0.00  0.00    +0.125 A 
ATOM      2  N   UNL     1       0.230  -0.486  -2.450  0.00  0.00    -0.135 NA
ATOM      3  N   UNL     1       1.094  -0.971  -3.268  0.00  0.00    -0.122 NA
ATOM      4  C   UNL     1       2.182  -1.314  -2.618  0.00  0.00    +0.197 A 
ATOM      5  N   UNL     1       1.972  -1.012  -1.300  0.00  0.00    -0.275 N 
ENDROOT
BRANCH   5   6
ATOM      6  C   UNL     1       2.865  -1.202  -0.235  0.00  0.00    +0.050 A 
ATOM      7  C   UNL     1       3.363  -0.107   0.457  0.00  0.00    +0.029 A 
ATOM      8  C   UNL     1       4.242  -0.295   1.506  0.00  0.00    +0.040 A 
ATOM      9  C   UNL     1       4.626  -1.576   1.867  0.00  0.00    +0.124 A 
ATOM     10  C   UNL     1       4.130  -2.670   1.178  0.00  0.00    +0.040 A 
ATOM     11  C   UNL     1       3.246  -2.485   0.133  0.00  0.00    +0.029 A 
ATOM     12  F   UNL     1       5.487  -1.758   2.893  0.00  0.00    -0.205 F 
ENDBRANCH   5   6
BRANCH   1  14
ATOM     13  C   UNL     1      -0.019   1.526   0.010  0.00  0.00    -0.005 C 
ATOM     14  C   UNL     1       0.002  -0.004   0.002  0.00  0.00    -0.002 C 
BRANCH  14  15
ATOM     15  N   UNL     1      -1.376  -0.512   0.012  0.00  0.00    +0.386 N 
ATOM     16  C   UNL     1      -2.065  -0.031   1.216  0.00  0.00    -0.078 C 
ATOM     17  C   UNL     1      -3.524  -0.491   1.192  0.00  0.00    -0.019 C 
ATOM     18  C   UNL     1      -3.571  -2.021   1.152  0.00  0.00    -0.004 C 
ATOM     19  C   UNL     1      -2.787  -2.515  -0.067  0.00  0.00    -0.019 C 
ATOM     20  C   UNL     1      -1.355  -1.980   0.004  0.00  0.00    -0.078 C 
ATOM     21  H   UNL     1      -1.863  -0.180  -0.807  0.00  0.00    -0.081 HD
ENDBRANCH  14  15
ENDBRANCH   1  14
BRANCH   4  22
ATOM     22  S   UNL     1       3.638  -2.022  -3.312  0.00  0.00    -0.076 S 
BRANCH  22  23
ATOM     23  C   UNL     1       3.264  -2.149  -5.082  0.00  0.00    +0.173 C 
BRANCH  23  24
ATOM     24  C   UNL     1       4.444  -2.748  -5.804  0.00  0.00    +0.231 C 
ATOM     25  O   UNL     1       5.439  -3.058  -5.185  0.00  0.00    -0.274 OA
ATOM     26  N   UNL     1       4.393  -2.938  -7.137  0.00  0.00    -0.240 N 
ATOM     27  C   UNL     1       5.448  -3.474  -7.782  0.00  0.00    +0.306 C 
ATOM     28  O   UNL     1       6.446  -3.785  -7.162  0.00  0.00    -0.252 OA
ATOM     29  N   UNL     1       5.397  -3.664  -9.115  0.00  0.00    -0.299 N 
ATOM     30  H   UNL     1       3.597  -2.690  -7.632  0.00  0.00    +0.159 HD
ATOM     31  H   UNL     1       4.601  -3.416  -9.611  0.00  0.00    +0.150 HD
BRANCH  29  32
ATOM     32  C   UNL     1       6.544  -4.246  -9.817  0.00  0.00    +0.108 C 
BRANCH  32  33
ATOM     33  C   UNL     1       6.228  -4.353 -11.310  0.00  0.00    -0.000 C 
ATOM     34  C   UNL     1       6.064  -2.950 -11.898  0.00  0.00    +0.009 C 
ATOM     35  C   UNL     1       7.374  -5.074 -12.023  0.00  0.00    +0.009 C 
ENDBRANCH  32  33
ENDBRANCH  29  32
ENDBRANCH  23  24
ENDBRANCH  22  23
ENDBRANCH   4  22
TORSDOF 8
