REMARK  Name = ZINC48857136
REMARK  7 active torsions:
REMARK  status: ('A' for Active; 'I' for Inactive)
REMARK    1  A    between atoms: C_1  and  C_2
REMARK    2  A    between atoms: C_2  and  C_3
REMARK    3  A    between atoms: C_9  and  N_11
REMARK    4  A    between atoms: N_14  and  C_15
REMARK    5  A    between atoms: C_15  and  C_16
REMARK    6  A    between atoms: C_18  and  C_22
REMARK    7  A    between atoms: C_19  and  C_21
REMARK                            x       y       z     vdW  Elec       q    Type
REMARK                         _______ _______ _______ _____ _____    ______ ____
ROOT
ATOM      1  N   UNL     1       1.267  -2.605  -0.145  0.00  0.00    -0.296 N 
ATOM      2  C   UNL     1       0.902  -3.830   0.284  0.00  0.00    +0.300 C 
ATOM      3  O   UNL     1       0.043  -4.451  -0.312  0.00  0.00    -0.253 OA
ATOM      4  N   UNL     1       1.488  -4.365   1.373  0.00  0.00    -0.291 N 
ATOM      5  H   UNL     1       1.952  -2.110   0.331  0.00  0.00    +0.151 HD
ATOM      6  H   UNL     1       2.172  -3.869   1.849  0.00  0.00    +0.151 HD
ENDROOT
BRANCH   1  12
ATOM      7  C   UNL     1       0.718  -0.497  -1.257  0.00  0.00    +0.009 C 
ATOM      8  C   UNL     1       2.187  -0.073  -1.207  0.00  0.00    +0.005 C 
ATOM      9  C   UNL     1       2.904  -0.566  -2.466  0.00  0.00    +0.000 C 
ATOM     10  C   UNL     1       2.816  -2.092  -2.538  0.00  0.00    +0.002 C 
ATOM     11  C   UNL     1       1.347  -2.517  -2.587  0.00  0.00    +0.022 C 
ATOM     12  C   UNL     1       0.630  -2.023  -1.329  0.00  0.00    +0.078 C 
BRANCH   7  14
ATOM     13  C   UNL     1      -0.019   1.526   0.010  0.00  0.00    +0.004 C 
ATOM     14  C   UNL     1       0.002  -0.004   0.002  0.00  0.00    +0.002 C 
ENDBRANCH   7  14
ENDBRANCH   1  12
BRANCH   4  15
ATOM     15  C   UNL     1       1.090  -5.696   1.839  0.00  0.00    +0.201 C 
BRANCH  15  16
ATOM     16  C   UNL     1       1.890  -6.059   3.064  0.00  0.00    +0.213 A 
ATOM     17  N   UNL     1       1.546  -5.810   4.295  0.00  0.00    -0.217 NA
ATOM     18  C   UNL     1       2.504  -6.280   5.114  0.00  0.00    +0.079 A 
ATOM     19  C   UNL     1       3.459  -6.833   4.348  0.00  0.00    +0.125 A 
ATOM     20  O   UNL     1       3.068  -6.697   3.066  0.00  0.00    -0.443 OA
ATOM     21  C   UNL     1       4.728  -7.487   4.832  0.00  0.00    +0.088 C 
ATOM     22  C   UNL     1       2.505  -6.201   6.619  0.00  0.00    +0.069 C 
ENDBRANCH  15  16
ENDBRANCH   4  15
TORSDOF 4
