REMARK  Name = ZINC02396428
REMARK  6 active torsions:
REMARK  status: ('A' for Active; 'I' for Inactive)
REMARK    1  A    between atoms: C_1  and  C_2
REMARK    2  A    between atoms: C_5  and  S_8
REMARK    3  A    between atoms: S_8  and  C_11
REMARK    4  A    between atoms: N_22  and  N_25
REMARK    5  A    between atoms: C_23  and  N_24
REMARK    6  A    between atoms: C_26  and  C_27
REMARK                            x       y       z     vdW  Elec       q    Type
REMARK                         _______ _______ _______ _____ _____    ______ ____
ROOT
ATOM      1  C   UNL     1       4.171   0.024   0.736  0.00  0.00    +0.162 A 
ATOM      2  C   UNL     1       4.229  -0.008  -0.679  0.00  0.00    +0.137 A 
ATOM      3  C   UNL     1       3.014   0.671  -1.148  0.00  0.00    +0.184 A 
ATOM      4  N   UNL     1       2.794   0.794  -2.437  0.00  0.00    -0.224 NA
ATOM      5  C   UNL     1       3.678   0.302  -3.315  0.00  0.00    +0.092 A 
ATOM      6  C   UNL     1       3.450   0.430  -4.697  0.00  0.00    +0.030 A 
ATOM      7  C   UNL     1       4.353  -0.074  -5.582  0.00  0.00    +0.002 A 
ATOM      8  C   UNL     1       5.507  -0.719  -5.140  0.00  0.00    +0.002 A 
ATOM      9  C   UNL     1       5.762  -0.862  -3.812  0.00  0.00    +0.030 A 
ATOM     10  C   UNL     1       4.851  -0.354  -2.865  0.00  0.00    +0.090 A 
ATOM     11  N   UNL     1       5.093  -0.491  -1.557  0.00  0.00    -0.240 NA
ATOM     12  N   UNL     1       2.325   1.056  -0.015  0.00  0.00    -0.197 N 
ATOM     13  C   UNL     1       3.035   0.665   1.097  0.00  0.00    +0.148 A 
ENDROOT
BRANCH   1  14
ATOM     14  S   UNL     1       5.373  -0.649   1.835  0.00  0.00    +0.030 S 
ATOM     15  O   UNL     1       4.702  -0.905   3.062  0.00  0.00    -0.164 OA
ATOM     16  O   UNL     1       6.059  -1.664   1.116  0.00  0.00    -0.164 OA
BRANCH  14  21
ATOM     17  C   UNL     1       9.403   3.701   2.950  0.00  0.00    +0.044 C 
ATOM     18  C   UNL     1       8.397   2.614   2.672  0.00  0.00    -0.050 A 
ATOM     19  C   UNL     1       7.283   2.481   3.480  0.00  0.00    +0.005 A 
ATOM     20  C   UNL     1       6.359   1.484   3.224  0.00  0.00    +0.027 A 
ATOM     21  C   UNL     1       6.550   0.622   2.161  0.00  0.00    +0.094 A 
ATOM     22  C   UNL     1       7.666   0.752   1.357  0.00  0.00    +0.027 A 
ATOM     23  C   UNL     1       8.588   1.751   1.610  0.00  0.00    +0.005 A 
ENDBRANCH  14  21
ENDBRANCH   1  14
BRANCH  13  24
ATOM     24  N   UNL     1       2.640   0.892   2.403  0.00  0.00    -0.341 N 
ATOM     25  H   UNL     1       1.809   1.358   2.585  0.00  0.00    +0.144 HD
ATOM     26  H   UNL     1       3.195   0.587   3.138  0.00  0.00    +0.144 HD
ENDBRANCH  13  24
BRANCH  12  27
ATOM     27  N   UNL     1       1.102   1.740   0.001  0.00  0.00    -0.171 NA
ATOM     28  C   UNL     1      -0.013   1.076   0.008  0.00  0.00    +0.141 C 
BRANCH  28  29
ATOM     29  C   UNL     1      -1.300   1.796   0.018  0.00  0.00    -0.002 A 
ATOM     30  C   UNL     1      -1.341   3.196   0.032  0.00  0.00    +0.029 A 
ATOM     31  C   UNL     1      -2.567   3.828   0.035  0.00  0.00    +0.111 A 
ATOM     32  N   UNL     1      -3.688   3.132   0.037  0.00  0.00    -0.263 NA
ATOM     33  C   UNL     1      -3.695   1.812   0.029  0.00  0.00    +0.111 A 
ATOM     34  C   UNL     1      -2.515   1.099   0.020  0.00  0.00    +0.029 A 
ENDBRANCH  28  29
ENDBRANCH  12  27
TORSDOF 5
