REMARK  Name = ZINC38578579
REMARK  7 active torsions:
REMARK  status: ('A' for Active; 'I' for Inactive)
REMARK    1  A    between atoms: C_7  and  C_10
REMARK    2  A    between atoms: N_11  and  N_12
REMARK    3  A    between atoms: C_13  and  C_15
REMARK    4  A    between atoms: C_15  and  S_16
REMARK    5  A    between atoms: S_16  and  C_17
REMARK    6  A    between atoms: C_20  and  C_30
REMARK    7  A    between atoms: N_22  and  C_23
REMARK                            x       y       z     vdW  Elec       q    Type
REMARK                         _______ _______ _______ _____ _____    ______ ____
ROOT
ATOM      1  C   UNL     1      -0.924 -10.520  -0.004  0.00  0.00    +0.180 C 
ATOM      2  N   UNL     1      -2.198 -10.517   0.199  0.00  0.00    -0.162 NA
ATOM      3  N   UNL     1      -2.732 -11.809   0.130  0.00  0.00    -0.242 N 
ATOM      4  C   UNL     1      -1.600 -12.706  -0.158  0.00  0.00    +0.213 C 
ATOM      5  N   UNL     1      -0.442 -11.800  -0.239  0.00  0.00    -0.254 N 
ATOM      6  H   UNL     1      -3.661 -12.062   0.247  0.00  0.00    +0.170 HD
ENDROOT
BRANCH   5   7
ATOM      7  C   UNL     1       0.883 -12.159  -0.500  0.00  0.00    +0.038 A 
ATOM      8  C   UNL     1       1.539 -11.642  -1.611  0.00  0.00    +0.025 A 
ATOM      9  C   UNL     1       2.848 -11.999  -1.866  0.00  0.00    +0.022 A 
ATOM     10  C   UNL     1       3.508 -12.870  -1.016  0.00  0.00    +0.041 A 
ATOM     11  C   UNL     1       2.857 -13.386   0.091  0.00  0.00    +0.022 A 
ATOM     12  C   UNL     1       1.550 -13.029   0.354  0.00  0.00    +0.025 A 
ATOM     13 CL   UNL     1       5.154 -13.316  -1.340  0.00  0.00    -0.084 Cl
ENDBRANCH   5   7
BRANCH   4  14
ATOM     14  C   UNL     1      -1.808 -13.416  -1.471  0.00  0.00    -0.005 A 
ATOM     15  C   UNL     1      -0.733 -13.946  -2.169  0.00  0.00    +0.027 A 
ATOM     16  C   UNL     1      -0.962 -14.590  -3.370  0.00  0.00    +0.111 A 
ATOM     17  N   UNL     1      -2.184 -14.702  -3.853  0.00  0.00    -0.263 NA
ATOM     18  C   UNL     1      -3.229 -14.210  -3.217  0.00  0.00    +0.111 A 
ATOM     19  C   UNL     1      -3.078 -13.559  -2.007  0.00  0.00    +0.027 A 
ENDBRANCH   4  14
BRANCH   1  20
ATOM     20  S   UNL     1       0.082  -9.073   0.008  0.00  0.00    -0.079 S 
BRANCH  20  21
ATOM     21  C   UNL     1      -1.085  -7.731   0.363  0.00  0.00    +0.174 C 
BRANCH  21  23
ATOM     22  N   UNL     1      -1.013  -5.275   0.651  0.00  0.00    -0.206 N 
ATOM     23  C   UNL     1      -0.345  -6.419   0.402  0.00  0.00    +0.242 C 
ATOM     24  O   UNL     1       0.852  -6.392   0.210  0.00  0.00    -0.273 OA
ATOM     25  H   UNL     1      -1.970  -5.296   0.805  0.00  0.00    +0.177 HD
BRANCH  22  27
ATOM     26  C   UNL     1      -0.973  -2.944   0.929  0.00  0.00    +0.136 C 
ATOM     27  N   UNL     1      -0.324  -4.055   0.688  0.00  0.00    -0.188 NA
BRANCH  26  34
ATOM     28  C   UNL     1      -2.370   1.304   1.677  0.00  0.00    +0.001 A 
ATOM     29  C   UNL     1      -1.341   2.248   1.624  0.00  0.00    +0.002 A 
ATOM     30  C   UNL     1      -0.058   1.895   1.371  0.00  0.00    +0.026 A 
ATOM     31  C   UNL     1       0.268   0.530   1.151  0.00  0.00    +0.043 A 
ATOM     32  N   UNL     1       1.415  -0.060   0.891  0.00  0.00    -0.380 N 
ATOM     33  C   UNL     1       1.197  -1.502   0.750  0.00  0.00    +0.150 C 
ATOM     34  C   UNL     1      -0.284  -1.724   0.966  0.00  0.00    +0.000 C 
ATOM     35  C   UNL     1      -0.820  -0.461   1.208  0.00  0.00    +0.004 A 
ATOM     36  C   UNL     1      -2.134  -0.017   1.477  0.00  0.00    +0.010 A 
ATOM     37  H   UNL     1       2.271   0.389   0.805  0.00  0.00    +0.160 HD
ENDBRANCH  26  34
ENDBRANCH  22  27
ENDBRANCH  21  23
ENDBRANCH  20  21
ENDBRANCH   1  20
TORSDOF 7
