REMARK  Name = ZINC36519091
REMARK  14 active torsions:
REMARK  status: ('A' for Active; 'I' for Inactive)
REMARK    1  A    between atoms: C_1  and  C_2
REMARK    2  A    between atoms: C_2  and  C_3
REMARK    3  A    between atoms: C_3  and  C_4
REMARK    4  A    between atoms: C_4  and  C_5
REMARK    5  A    between atoms: C_5  and  C_6
REMARK    6  A    between atoms: C_6  and  N_7
REMARK    7  A    between atoms: N_7  and  C_8
REMARK    8  A    between atoms: C_8  and  C_10
REMARK    9  A    between atoms: C_8  and  C_17
REMARK   10  A    between atoms: C_13  and  C_16
REMARK   11  A    between atoms: N_19  and  C_20
REMARK   12  A    between atoms: C_26  and  C_28
REMARK   13  A    between atoms: C_28  and  N_29
REMARK   14  A    between atoms: C_30  and  C_32
REMARK                            x       y       z     vdW  Elec       q    Type
REMARK                         _______ _______ _______ _____ _____    ______ ____
ROOT
ATOM      1  N   UNL     1       2.271  -3.697   4.302  0.00  0.00    -0.285 N 
ATOM      2  C   UNL     1       3.603  -3.499   4.356  0.00  0.00    +0.234 C 
ATOM      3  O   UNL     1       4.320  -4.338   4.859  0.00  0.00    -0.274 OA
ENDROOT
BRANCH   1   4
ATOM      4  C   UNL     1       1.404  -2.684   3.695  0.00  0.00    +0.109 C 
BRANCH   4   5
ATOM      5  C   UNL     1       0.651  -1.932   4.795  0.00  0.00    +0.019 C 
BRANCH   5   6
ATOM      6  C   UNL     1      -0.324  -0.940   4.158  0.00  0.00    +0.002 C 
BRANCH   6   7
ATOM      7  C   UNL     1      -1.077  -0.187   5.257  0.00  0.00    -0.000 C 
BRANCH   7   9
ATOM      8  C   UNL     1      -2.805   1.557   5.720  0.00  0.00    +0.004 C 
ATOM      9  C   UNL     1      -2.052   0.805   4.620  0.00  0.00    -0.003 C 
ENDBRANCH   7   9
ENDBRANCH   6   7
ENDBRANCH   5   6
ENDBRANCH   4   5
ENDBRANCH   1   4
BRANCH   1  10
ATOM     10  C   UNL     1       1.690  -4.925   4.850  0.00  0.00    +0.192 C 
BRANCH  10  11
ATOM     11  C   UNL     1       2.008  -5.019   6.320  0.00  0.00    -0.018 A 
ATOM     12  C   UNL     1       2.030  -3.876   7.097  0.00  0.00    +0.006 A 
ATOM     13  C   UNL     1       2.322  -3.962   8.445  0.00  0.00    +0.004 A 
ATOM     14  C   UNL     1       2.591  -5.191   9.017  0.00  0.00    -0.050 A 
ATOM     15  C   UNL     1       2.567  -6.335   8.241  0.00  0.00    +0.004 A 
ATOM     16  C   UNL     1       2.271  -6.249   6.893  0.00  0.00    +0.006 A 
ATOM     17  C   UNL     1       2.910  -5.285  10.487  0.00  0.00    +0.044 C 
ENDBRANCH  10  11
BRANCH  10  18
ATOM     18  C   UNL     1       0.195  -4.902   4.660  0.00  0.00    +0.238 C 
ATOM     19  O   UNL     1      -0.273  -4.715   3.557  0.00  0.00    -0.273 OA
ATOM     20  N   UNL     1      -0.622  -5.088   5.716  0.00  0.00    -0.311 N 
ATOM     21  H   UNL     1      -0.247  -5.237   6.598  0.00  0.00    +0.149 HD
BRANCH  20  22
ATOM     22  C   UNL     1      -2.075  -5.065   5.531  0.00  0.00    +0.073 C 
ATOM     23  C   UNL     1      -2.574  -3.620   5.587  0.00  0.00    +0.022 C 
ATOM     24  C   UNL     1      -4.091  -3.596   5.394  0.00  0.00    +0.002 C 
ATOM     25  C   UNL     1      -4.759  -4.409   6.505  0.00  0.00    +0.000 C 
ATOM     26  C   UNL     1      -4.261  -5.855   6.449  0.00  0.00    +0.002 C 
ATOM     27  C   UNL     1      -2.743  -5.878   6.642  0.00  0.00    +0.022 C 
ENDBRANCH  20  22
ENDBRANCH  10  18
ENDBRANCH   1  10
BRANCH   2  28
ATOM     28  C   UNL     1       4.201  -2.236   3.793  0.00  0.00    +0.200 C 
BRANCH  28  29
ATOM     29  N   UNL     1       5.654  -2.261   3.973  0.00  0.00    -0.303 N 
ATOM     30  C   UNL     1       6.405  -1.228   3.542  0.00  0.00    +0.244 C 
ATOM     31  O   UNL     1       5.875  -0.275   3.004  0.00  0.00    -0.270 OA
ATOM     32  H   UNL     1       6.077  -3.021   4.402  0.00  0.00    +0.150 HD
BRANCH  30  33
ATOM     33  C   UNL     1       7.872  -1.253   3.723  0.00  0.00    +0.037 A 
ATOM     34  C   UNL     1       8.483  -2.348   4.335  0.00  0.00    +0.013 A 
ATOM     35  C   UNL     1       9.853  -2.366   4.501  0.00  0.00    +0.001 A 
ATOM     36  C   UNL     1      10.620  -1.301   4.063  0.00  0.00    +0.000 A 
ATOM     37  C   UNL     1      10.020  -0.212   3.456  0.00  0.00    +0.001 A 
ATOM     38  C   UNL     1       8.652  -0.185   3.278  0.00  0.00    +0.013 A 
ENDBRANCH  30  33
ENDBRANCH  28  29
ENDBRANCH   2  28
TORSDOF 12
