REMARK  Name = ZINC56737185
REMARK  5 active torsions:
REMARK  status: ('A' for Active; 'I' for Inactive)
REMARK    1  A    between atoms: C_1  and  C_2
REMARK    2  A    between atoms: C_18  and  C_20
REMARK    3  A    between atoms: C_20  and  C_21
REMARK    4  A    between atoms: C_20  and  C_22
REMARK    5  A    between atoms: C_20  and  C_23
REMARK                            x       y       z     vdW  Elec       q    Type
REMARK                         _______ _______ _______ _____ _____    ______ ____
ROOT
ATOM      1  C   UNL     1       2.840  -1.347   0.265  0.00  0.00    +0.033 C 
ATOM      2  C   UNL     1       2.189  -0.355   1.230  0.00  0.00    +0.105 C 
ATOM      3  C   UNL     1       2.534   1.074   0.813  0.00  0.00    -0.017 A 
ATOM      4  C   UNL     1       3.795   1.639   0.995  0.00  0.00    +0.013 A 
ATOM      5  C   UNL     1       4.030   2.910   0.597  0.00  0.00    +0.046 A 
ATOM      6  S   UNL     1       2.443   3.387  -0.070  0.00  0.00    -0.101 S 
ATOM      7  C   UNL     1       1.589   1.863   0.233  0.00  0.00    -0.004 A 
ATOM      8  C   UNL     1       0.167   1.520  -0.070  0.00  0.00    +0.062 C 
ATOM      9  C   UNL     1       0.003  -0.007  -0.002  0.00  0.00    +0.115 C 
ATOM     10  N   UNL     1       0.728  -0.498   1.180  0.00  0.00    -0.278 N 
ATOM     11  C   UNL     1       0.062  -1.070   2.203  0.00  0.00    +0.308 C 
ATOM     12  O   UNL     1      -1.153  -1.099   2.196  0.00  0.00    -0.252 OA
ATOM     13  N   UNL     1       0.744  -1.611   3.232  0.00  0.00    -0.247 N 
ATOM     14  C   UNL     1       0.063  -2.292   4.235  0.00  0.00    +0.189 A 
ATOM     15  N   UNL     1      -1.230  -2.520   4.356  0.00  0.00    -0.126 NA
ATOM     16  N   UNL     1      -1.707  -3.162   5.334  0.00  0.00    -0.144 NA
ATOM     17  C   UNL     1      -0.889  -3.618   6.261  0.00  0.00    +0.109 A 
ATOM     18  S   UNL     1       0.676  -3.049   5.612  0.00  0.00    -0.035 S 
ATOM     19  H   UNL     1       1.709  -1.525   3.273  0.00  0.00    +0.158 HD
ENDROOT
BRANCH  17  20
ATOM     20  C   UNL     1      -1.187  -4.402   7.513  0.00  0.00    +0.013 C 
ATOM     21  C   UNL     1      -1.863  -5.723   7.139  0.00  0.00    +0.018 C 
ATOM     22  C   UNL     1       0.117  -4.690   8.258  0.00  0.00    +0.018 C 
ATOM     23  C   UNL     1      -2.120  -3.589   8.414  0.00  0.00    +0.018 C 
ENDBRANCH  17  20
TORSDOF 1
