REMARK  Name = ZINC33269302
REMARK  6 active torsions:
REMARK  status: ('A' for Active; 'I' for Inactive)
REMARK    1  A    between atoms: C_1  and  C_2
REMARK    2  A    between atoms: C_5  and  N_9
REMARK    3  A    between atoms: C_6  and  C_8
REMARK    4  A    between atoms: C_10  and  C_12
REMARK    5  A    between atoms: C_24  and  S_29
REMARK    6  A    between atoms: S_29  and  N_32
REMARK                            x       y       z     vdW  Elec       q    Type
REMARK                         _______ _______ _______ _____ _____    ______ ____
ROOT
ATOM      1  C   UNL     1      -3.642  -0.569  -0.105  0.00  0.00    +0.093 C 
ATOM      2  C   UNL     1      -3.763  -1.554   1.061  0.00  0.00    +0.016 C 
ATOM      3  C   UNL     1      -2.539  -2.474   1.069  0.00  0.00    +0.020 C 
ATOM      4  C   UNL     1      -1.269  -1.626   1.176  0.00  0.00    +0.106 C 
ATOM      5  N   UNL     1      -1.200  -0.701   0.037  0.00  0.00    -0.314 N 
ATOM      6  C   UNL     1      -2.341   0.224   0.035  0.00  0.00    +0.119 C 
ATOM      7  C   UNL     1       0.001  -0.009   0.032  0.00  0.00    +0.122 A 
ATOM      8  C   UNL     1       1.206  -0.727   0.027  0.00  0.00    +0.044 A 
ATOM      9  C   UNL     1       2.393  -0.061   0.021  0.00  0.00    +0.013 A 
ATOM     10  C   UNL     1       2.369   1.349   0.019  0.00  0.00    +0.002 A 
ATOM     11  C   UNL     1       3.555   2.098   0.013  0.00  0.00    +0.038 A 
ATOM     12  C   UNL     1       3.493   3.459   0.012  0.00  0.00    +0.106 A 
ATOM     13  C   UNL     1       2.266   4.118   0.017  0.00  0.00    +0.030 A 
ATOM     14  C   UNL     1       1.096   3.422   0.024  0.00  0.00    +0.030 A 
ATOM     15  C   UNL     1       1.120   2.017   0.024  0.00  0.00    +0.073 A 
ATOM     16  N   UNL     1      -0.015   1.308   0.030  0.00  0.00    -0.232 NA
ENDROOT
BRANCH   1  18
ATOM     17  N   UNL     1      -6.069  -0.100  -0.193  0.00  0.00    -0.285 N 
ATOM     18  C   UNL     1      -4.814   0.379  -0.086  0.00  0.00    +0.222 C 
ATOM     19  O   UNL     1      -4.628   1.572   0.025  0.00  0.00    -0.275 OA
ATOM     20  H   UNL     1      -6.236  -1.170  -0.385  0.00  0.00    +0.155 HD
BRANCH  17  25
ATOM     21  C   UNL     1     -10.497   3.405   0.348  0.00  0.00    +0.044 C 
ATOM     22  C   UNL     1      -9.321   2.474   0.204  0.00  0.00    -0.050 A 
ATOM     23  C   UNL     1      -8.112   2.794   0.793  0.00  0.00    +0.005 A 
ATOM     24  C   UNL     1      -7.032   1.943   0.663  0.00  0.00    +0.024 A 
ATOM     25  C   UNL     1      -7.162   0.765  -0.060  0.00  0.00    +0.036 A 
ATOM     26  C   UNL     1      -8.376   0.449  -0.655  0.00  0.00    -0.029 A 
ATOM     27  C   UNL     1      -9.454   1.302  -0.517  0.00  0.00    +0.008 A 
ATOM     28  C   UNL     1      -8.519  -0.826  -1.446  0.00  0.00    +0.045 C 
ENDBRANCH  17  25
ENDBRANCH   1  18
BRANCH  12  29
ATOM     29  S   UNL     1       4.984   4.398   0.004  0.00  0.00    +0.061 S 
ATOM     30  O   UNL     1       4.667   5.669   0.555  0.00  0.00    -0.153 OA
ATOM     31  O   UNL     1       5.994   3.561   0.551  0.00  0.00    -0.153 OA
BRANCH  29  32
ATOM     32  N   UNL     1       5.391   4.657  -1.580  0.00  0.00    -0.177 NA
ATOM     33  C   UNL     1       6.243   3.784  -2.400  0.00  0.00    +0.109 C 
ATOM     34  C   UNL     1       6.361   4.436  -3.794  0.00  0.00    +0.018 C 
ATOM     35  C   UNL     1       6.042   5.926  -3.506  0.00  0.00    +0.018 C 
ATOM     36  C   UNL     1       4.963   5.805  -2.400  0.00  0.00    +0.109 C 
ENDBRANCH  29  32
ENDBRANCH  12  29
TORSDOF 4
