REMARK  Name = ZINC40110787
REMARK  12 active torsions:
REMARK  status: ('A' for Active; 'I' for Inactive)
REMARK    1  A    between atoms: C_1  and  C_2
REMARK    2  A    between atoms: C_2  and  C_3
REMARK    3  A    between atoms: C_3  and  C_4
REMARK    4  A    between atoms: C_4  and  N_5
REMARK    5  A    between atoms: C_6  and  C_27
REMARK    6  A    between atoms: C_8  and  C_13
REMARK    7  A    between atoms: C_13  and  C_15
REMARK    8  A    between atoms: C_18  and  S_21
REMARK    9  A    between atoms: S_21  and  N_24
REMARK   10  A    between atoms: N_24  and  C_25
REMARK   11  A    between atoms: N_24  and  C_26
REMARK   12  A    between atoms: C_30  and  N_33
REMARK                            x       y       z     vdW  Elec       q    Type
REMARK                         _______ _______ _______ _____ _____    ______ ____
ROOT
ATOM      1  N   UNL     1       1.472  -2.439  -2.508  0.00  0.00    -0.284 N 
ATOM      2  C   UNL     1       0.787  -2.828  -3.746  0.00  0.00    +0.145 C 
ATOM      3  C   UNL     1       1.867  -3.283  -4.701  0.00  0.00    +0.076 C 
ATOM      4  C   UNL     1       3.045  -3.156  -4.046  0.00  0.00    +0.249 C 
ATOM      5  C   UNL     1       2.792  -2.627  -2.689  0.00  0.00    +0.288 C 
ATOM      6  O   UNL     1       3.650  -2.398  -1.859  0.00  0.00    -0.266 OA
ATOM      7  O   UNL     1       4.261  -3.461  -4.555  0.00  0.00    -0.282 OA
ENDROOT
BRANCH   2   8
ATOM      8  C   UNL     1      -0.175  -3.955  -3.474  0.00  0.00    -0.022 A 
ATOM      9  C   UNL     1       0.220  -5.027  -2.696  0.00  0.00    +0.008 A 
ATOM     10  C   UNL     1      -0.663  -6.062  -2.446  0.00  0.00    +0.033 A 
ATOM     11  C   UNL     1      -1.939  -6.024  -2.975  0.00  0.00    +0.126 A 
ATOM     12  C   UNL     1      -2.334  -4.952  -3.753  0.00  0.00    +0.033 A 
ATOM     13  C   UNL     1      -1.453  -3.915  -3.999  0.00  0.00    +0.008 A 
BRANCH  11  14
ATOM     14  N   UNL     1      -2.884  -7.133  -2.709  0.00  0.00    +0.056 N 
ATOM     15  O   UNL     1      -2.538  -8.071  -2.029  0.00  0.00    -0.126 OA
ATOM     16  O   UNL     1      -4.000  -7.100  -3.171  0.00  0.00    -0.126 OA
ENDBRANCH  11  14
ENDBRANCH   2   8
BRANCH   3  17
ATOM     17  C   UNL     1       1.675  -3.767  -6.071  0.00  0.00    +0.195 C 
ATOM     18  O   UNL     1       1.934  -4.923  -6.349  0.00  0.00    -0.287 OA
BRANCH  17  19
ATOM     19  C   UNL     1       1.166  -2.851  -7.114  0.00  0.00    +0.022 A 
ATOM     20  C   UNL     1       0.986  -1.496  -6.831  0.00  0.00    +0.013 A 
ATOM     21  C   UNL     1       0.512  -0.647  -7.809  0.00  0.00    +0.029 A 
ATOM     22  C   UNL     1       0.215  -1.136  -9.069  0.00  0.00    +0.105 A 
ATOM     23  C   UNL     1       0.391  -2.478  -9.357  0.00  0.00    +0.029 A 
ATOM     24  C   UNL     1       0.870  -3.337  -8.390  0.00  0.00    +0.013 A 
BRANCH  22  25
ATOM     25  S   UNL     1      -0.391  -0.045 -10.313  0.00  0.00    +0.060 S 
ATOM     26  O   UNL     1      -1.110  -0.846 -11.241  0.00  0.00    -0.153 OA
ATOM     27  O   UNL     1      -0.985   1.054  -9.635  0.00  0.00    -0.153 OA
BRANCH  25  28
ATOM     28  N   UNL     1       0.924   0.553 -11.123  0.00  0.00    -0.183 NA
ATOM     29  C   UNL     1       1.442  -0.150 -12.299  0.00  0.00    +0.131 C 
ATOM     30  C   UNL     1       1.569   1.785 -10.663  0.00  0.00    +0.131 C 
ENDBRANCH  25  28
ENDBRANCH  22  25
ENDBRANCH  17  19
ENDBRANCH   3  17
BRANCH   1  31
ATOM     31  C   UNL     1       0.833  -1.931  -1.292  0.00  0.00    +0.109 C 
BRANCH  31  32
ATOM     32  C   UNL     1       0.735  -0.406  -1.367  0.00  0.00    +0.019 C 
BRANCH  32  34
ATOM     33  C   UNL     1      -0.032   1.650  -0.172  0.00  0.00    +0.004 C 
ATOM     34  C   UNL     1       0.067   0.125  -0.097  0.00  0.00    -0.002 C 
ENDBRANCH  32  34
ENDBRANCH  31  32
ENDBRANCH   1  31
TORSDOF 9
