REMARK  Name = ZINC08437580
REMARK  3 active torsions:
REMARK  status: ('A' for Active; 'I' for Inactive)
REMARK    1  A    between atoms: C_12  and  C_14
REMARK    2  A    between atoms: N_16  and  N_17
REMARK    3  A    between atoms: N_17  and  C_18
REMARK                            x       y       z     vdW  Elec       q    Type
REMARK                         _______ _______ _______ _____ _____    ______ ____
ROOT
ATOM      1  C   UNL     1       7.269  -1.459  -0.079  0.00  0.00    +0.295 C 
ATOM      2  O   UNL     1       7.919  -0.430  -0.080  0.00  0.00    -0.265 OA
ATOM      3  N   UNL     1       7.896  -2.652  -0.092  0.00  0.00    -0.230 N 
ATOM      4  H   UNL     1       7.378  -3.472  -0.091  0.00  0.00    +0.173 HD
ENDROOT
BRANCH   1  16
ATOM      5  C   UNL     1      -0.016   1.358   0.009  0.00  0.00    +0.001 A 
ATOM      6  C   UNL     1       1.167   2.090   0.002  0.00  0.00    +0.001 A 
ATOM      7  C   UNL     1       2.378   1.461  -0.013  0.00  0.00    +0.009 A 
ATOM      8  C   UNL     1       2.433   0.064  -0.021  0.00  0.00    -0.007 A 
ATOM      9  C   UNL     1       1.231  -0.683  -0.013  0.00  0.00    -0.017 A 
ATOM     10  C   UNL     1       0.002  -0.004   0.002  0.00  0.00    +0.008 A 
ATOM     11  C   UNL     1       1.288  -2.091  -0.022  0.00  0.00    +0.012 A 
ATOM     12  C   UNL     1       2.475  -2.745  -0.037  0.00  0.00    +0.047 A 
ATOM     13  C   UNL     1       3.694  -2.057  -0.045  0.00  0.00    +0.136 A 
ATOM     14  C   UNL     1       3.704  -0.655  -0.038  0.00  0.00    +0.029 A 
ATOM     15  C   UNL     1       5.059  -0.261  -0.050  0.00  0.00    +0.063 A 
ATOM     16  C   UNL     1       5.802  -1.401  -0.064  0.00  0.00    +0.192 A 
ATOM     17  O   UNL     1       4.977  -2.469  -0.059  0.00  0.00    -0.450 OA
ENDBRANCH   1  16
BRANCH   3  18
ATOM     18  N   UNL     1       9.296  -2.707  -0.107  0.00  0.00    -0.271 N 
ATOM     19  H   UNL     1       9.814  -1.887  -0.108  0.00  0.00    +0.169 HD
BRANCH  18  20
ATOM     20  C   UNL     1       9.920  -3.895  -0.120  0.00  0.00    +0.099 C 
ATOM     21  C   UNL     1      11.315  -3.950  -0.135  0.00  0.00    +0.039 C 
ATOM     22  C   UNL     1      12.085  -2.765  -0.130  0.00  0.00    +0.028 C 
ATOM     23  C   UNL     1      13.442  -2.840  -0.144  0.00  0.00    +0.020 C 
ATOM     24  C   UNL     1      14.104  -4.065  -0.163  0.00  0.00    +0.039 C 
ATOM     25  C   UNL     1      13.421  -5.244  -0.168  0.00  0.00    +0.089 C 
ATOM     26  C   UNL     1      12.015  -5.241  -0.149  0.00  0.00    +0.206 C 
ATOM     27  O   UNL     1      11.388  -6.292  -0.149  0.00  0.00    -0.286 OA
ATOM     28 CL   UNL     1      14.287  -6.748  -0.192  0.00  0.00    -0.080 Cl
ATOM     29 BR   UNL     1      14.455  -1.243  -0.138  0.00  0.00    -0.050 Br
ENDBRANCH  18  20
ENDBRANCH   3  18
TORSDOF 3
