REMARK  Name = ZINC13064689
REMARK  13 active torsions:
REMARK  status: ('A' for Active; 'I' for Inactive)
REMARK    1  A    between atoms: C_1  and  C_2
REMARK    2  A    between atoms: C_2  and  C_3
REMARK    3  A    between atoms: C_3  and  C_5
REMARK    4  A    between atoms: C_3  and  N_69
REMARK    5  A    between atoms: N_9  and  C_10
REMARK    6  A    between atoms: C_16  and  C_17
REMARK    7  A    between atoms: C_16  and  N_69
REMARK    8  A    between atoms: C_17  and  C_18
REMARK    9  A    between atoms: C_18  and  O_19
REMARK   10  A    between atoms: C_20  and  C_21
REMARK   11  A    between atoms: C_20  and  N_69
REMARK   12  A    between atoms: C_25  and  C_34
REMARK   13  A    between atoms: C_26  and  C_33
REMARK                            x       y       z     vdW  Elec       q    Type
REMARK                         _______ _______ _______ _____ _____    ______ ____
ROOT
ATOM      1  N   UNL     1      -5.575   4.220  -1.584  0.00  0.00    +0.389 N 
ATOM      2  H   UNL     1      -5.588   3.496  -2.312  0.00  0.00    -0.080 HD
ENDROOT
BRANCH   1   3
ATOM      3  C   UNL     1      -6.953   4.437  -1.098  0.00  0.00    +0.003 C 
BRANCH   3   4
ATOM      4  C   UNL     1      -6.946   5.283   0.149  0.00  0.00    +0.138 A 
ATOM      5  N   UNL     1      -6.253   5.063   1.240  0.00  0.00    -0.115 NA
ATOM      6  N   UNL     1      -6.516   6.008   2.076  0.00  0.00    -0.023 NA
ATOM      7  N   UNL     1      -7.364   6.820   1.550  0.00  0.00    -0.044 NA
ATOM      8  N   UNL     1      -7.654   6.408   0.362  0.00  0.00    -0.228 N 
BRANCH   8   9
ATOM      9  C   UNL     1      -8.580   7.044  -0.579  0.00  0.00    +0.111 C 
ATOM     10  C   UNL     1      -8.098   8.463  -0.887  0.00  0.00    +0.027 C 
ATOM     11  C   UNL     1      -9.064   9.127  -1.870  0.00  0.00    +0.002 C 
ATOM     12  C   UNL     1     -10.461   9.187  -1.249  0.00  0.00    +0.000 C 
ATOM     13  C   UNL     1     -10.943   7.769  -0.940  0.00  0.00    +0.002 C 
ATOM     14  C   UNL     1      -9.977   7.104   0.043  0.00  0.00    +0.027 C 
ENDBRANCH   8   9
ENDBRANCH   3   4
BRANCH   3  16
ATOM     15  C   UNL     1      -7.674   2.254  -2.075  0.00  0.00    +0.002 C 
ATOM     16  C   UNL     1      -7.587   3.079  -0.790  0.00  0.00    -0.011 C 
ENDBRANCH   3  16
ENDBRANCH   1   3
BRANCH   1  17
ATOM     17  C   UNL     1      -5.039   5.471  -2.160  0.00  0.00    -0.075 C 
BRANCH  17  18
ATOM     18  C   UNL     1      -5.707   5.713  -3.515  0.00  0.00    +0.009 C 
BRANCH  18  19
ATOM     19  C   UNL     1      -5.069   6.931  -4.188  0.00  0.00    +0.154 C 
BRANCH  19  20
ATOM     20  O   UNL     1      -5.692   7.157  -5.453  0.00  0.00    -0.395 OA
ATOM     21  H   UNL     1      -5.337   7.915  -5.937  0.00  0.00    +0.209 HD
ENDBRANCH  19  20
ENDBRANCH  18  19
ENDBRANCH  17  18
ENDBRANCH   1  17
BRANCH   1  22
ATOM     22  C   UNL     1      -4.713   3.765  -0.472  0.00  0.00    -0.037 C 
BRANCH  22  23
ATOM     23  C   UNL     1      -3.441   3.196  -1.047  0.00  0.00    +0.001 A 
ATOM     24  C   UNL     1      -2.333   3.973  -1.136  0.00  0.00    +0.017 A 
ATOM     25  C   UNL     1      -1.115   3.391  -1.704  0.00  0.00    -0.001 A 
ATOM     26  C   UNL     1       0.054   4.147  -1.837  0.00  0.00    +0.013 A 
ATOM     27  C   UNL     1       1.173   3.575  -2.370  0.00  0.00    -0.047 A 
ATOM     28  C   UNL     1       1.161   2.249  -2.782  0.00  0.00    -0.046 A 
ATOM     29  C   UNL     1       0.021   1.485  -2.661  0.00  0.00    +0.030 A 
ATOM     30  C   UNL     1      -1.133   2.048  -2.125  0.00  0.00    +0.049 A 
ATOM     31  N   UNL     1      -2.290   1.309  -1.997  0.00  0.00    -0.322 N 
ATOM     32  H   UNL     1      -2.299   0.382  -2.285  0.00  0.00    +0.169 HD
ATOM     33  C   UNL     1      -3.405   1.853  -1.480  0.00  0.00    +0.251 A 
ATOM     34  O   UNL     1      -4.409   1.170  -1.381  0.00  0.00    -0.268 OA
ATOM     35  C   UNL     1       2.409   1.639  -3.368  0.00  0.00    +0.044 C 
ATOM     36  C   UNL     1       2.433   4.390  -2.514  0.00  0.00    +0.044 C 
ENDBRANCH  22  23
ENDBRANCH   1  22
TORSDOF 10
