REMARK  Name = ZINC22651952
REMARK  8 active torsions:
REMARK  status: ('A' for Active; 'I' for Inactive)
REMARK    1  A    between atoms: C_3  and  S_20
REMARK    2  A    between atoms: C_6  and  C_7
REMARK    3  A    between atoms: C_7  and  C_8
REMARK    4  A    between atoms: C_8  and  C_9
REMARK    5  A    between atoms: N_11  and  C_12
REMARK    6  A    between atoms: C_12  and  C_13
REMARK    7  A    between atoms: C_13  and  C_14
REMARK    8  A    between atoms: S_20  and  N_23
REMARK                            x       y       z     vdW  Elec       q    Type
REMARK                         _______ _______ _______ _____ _____    ______ ____
ROOT
ATOM      1  C   UNL     1      -0.013   1.086   0.008  0.00  0.00    +0.044 C 
ENDROOT
BRANCH   1   7
ATOM      2  C   UNL     1      -0.360   2.779   1.819  0.00  0.00    +0.005 A 
ATOM      3  C   UNL     1      -1.010   3.227   2.953  0.00  0.00    +0.029 A 
ATOM      4  C   UNL     1      -2.012   2.463   3.523  0.00  0.00    +0.105 A 
ATOM      5  C   UNL     1      -2.366   1.254   2.955  0.00  0.00    +0.029 A 
ATOM      6  C   UNL     1      -1.719   0.808   1.818  0.00  0.00    +0.005 A 
ATOM      7  C   UNL     1      -0.718   1.572   1.248  0.00  0.00    -0.047 A 
BRANCH   4   8
ATOM      8  S   UNL     1      -2.837   3.032   4.972  0.00  0.00    +0.056 S 
ATOM      9  O   UNL     1      -2.695   4.446   4.992  0.00  0.00    -0.153 OA
ATOM     10  O   UNL     1      -4.107   2.394   4.993  0.00  0.00    -0.153 OA
BRANCH   8  11
ATOM     11  N   UNL     1      -1.995   2.453   6.274  0.00  0.00    -0.204 NA
ATOM     12  H   UNL     1      -2.480   2.788   7.203  0.00  0.00    +0.144 HD
ATOM     13  H   UNL     1      -0.963   2.834   6.242  0.00  0.00    +0.144 HD
ENDBRANCH   8  11
ENDBRANCH   4   8
ENDBRANCH   1   7
BRANCH   1  14
ATOM     14  C   UNL     1      -0.753   1.593  -1.232  0.00  0.00    +0.100 C 
BRANCH  14  15
ATOM     15  C   UNL     1      -0.047   1.107  -2.471  0.00  0.00    +0.213 C 
ATOM     16  O   UNL     1       0.949   0.422  -2.373  0.00  0.00    -0.276 OA
ATOM     17  N   UNL     1      -0.524   1.433  -3.689  0.00  0.00    -0.315 N 
ATOM     18  H   UNL     1      -1.428   2.053  -3.778  0.00  0.00    +0.149 HD
BRANCH  17  19
ATOM     19  C   UNL     1       0.162   0.960  -4.895  0.00  0.00    +0.108 C 
BRANCH  19  20
ATOM     20  C   UNL     1      -0.578   1.467  -6.134  0.00  0.00    +0.049 C 
BRANCH  20  21
ATOM     21  C   UNL     1       0.127   0.981  -7.374  0.00  0.00    -0.072 C 
ATOM     22  C   UNL     1      -0.301  -0.107  -7.929  0.00  0.00    -0.028 C 
ATOM     23  C   UNL     1       0.304  -0.718  -9.159  0.00  0.00    +0.027 C 
ATOM     24  C   UNL     1       1.176   0.309  -9.883  0.00  0.00    +0.004 C 
ATOM     25  C   UNL     1       2.119   0.953  -8.859  0.00  0.00    +0.005 C 
ATOM     26  C   UNL     1       1.279   1.792  -7.892  0.00  0.00    +0.030 C 
ENDBRANCH  20  21
ENDBRANCH  19  20
ENDBRANCH  17  19
ENDBRANCH  14  15
ENDBRANCH   1  14
TORSDOF 8
