REMARK  Name = ZINC08740202
REMARK  21 active torsions:
REMARK  status: ('A' for Active; 'I' for Inactive)
REMARK    1  A    between atoms: C_1  and  C_2
REMARK    2  A    between atoms: C_2  and  O_4
REMARK    3  A    between atoms: O_4  and  C_5
REMARK    4  A    between atoms: C_8  and  C_22
REMARK    5  A    between atoms: C_8  and  O_35
REMARK    6  A    between atoms: C_10  and  O_18
REMARK    7  A    between atoms: C_12  and  O_14
REMARK    8  A    between atoms: O_14  and  C_15
REMARK    9  A    between atoms: C_15  and  C_17
REMARK   10  A    between atoms: O_18  and  C_19
REMARK   11  A    between atoms: C_19  and  C_21
REMARK   12  A    between atoms: N_24  and  C_25
REMARK   13  A    between atoms: C_25  and  C_27
REMARK   14  A    between atoms: C_25  and  C_31
REMARK   15  A    between atoms: C_27  and  C_28
REMARK   16  A    between atoms: C_28  and  S_29
REMARK   17  A    between atoms: S_29  and  C_30
REMARK   18  A    between atoms: C_31  and  O_33
REMARK   19  A    between atoms: O_33  and  C_34
REMARK   20  A    between atoms: O_35  and  C_36
REMARK   21  A    between atoms: C_36  and  C_38
REMARK                            x       y       z     vdW  Elec       q    Type
REMARK                         _______ _______ _______ _____ _____    ______ ____
ROOT
ATOM      1  C   UNL     1      -6.092  -4.446  -2.524  0.00  0.00    +0.225 C 
ATOM      2  C   UNL     1      -4.688  -3.838  -2.536  0.00  0.00    +0.106 C 
ATOM      3  C   UNL     1      -4.412  -3.166  -1.190  0.00  0.00    +0.195 C 
ATOM      4  C   UNL     1      -5.443  -2.062  -0.950  0.00  0.00    +0.106 C 
ATOM      5  C   UNL     1      -6.847  -2.669  -0.938  0.00  0.00    +0.225 C 
ATOM      6  C   UNL     1      -7.123  -3.341  -2.284  0.00  0.00    +0.257 C 
ENDROOT
BRANCH   3   7
ATOM      7  C   UNL     1      -3.028  -2.568  -1.202  0.00  0.00    +0.258 C 
ATOM      8  O   UNL     1      -2.501  -2.280  -2.255  0.00  0.00    -0.271 OA
ATOM      9  N   UNL     1      -2.377  -2.353  -0.042  0.00  0.00    -0.299 N 
ATOM     10  H   UNL     1      -2.825  -2.514   0.803  0.00  0.00    +0.150 HD
BRANCH   9  11
ATOM     11  C   UNL     1      -0.992  -1.877  -0.057  0.00  0.00    +0.183 C 
BRANCH  11  12
ATOM     12  C   UNL     1      -0.978  -0.375  -0.175  0.00  0.00    +0.327 C 
ATOM     13  O   UNL     1      -2.018   0.235  -0.240  0.00  0.00    -0.249 OA
BRANCH  12  14
ATOM     14  O   UNL     1       0.191   0.285  -0.208  0.00  0.00    -0.467 OA
ATOM     15  C   UNL     1       0.128   1.731  -0.323  0.00  0.00    +0.280 C 
ENDBRANCH  12  14
ENDBRANCH  11  12
BRANCH  11  16
ATOM     16  C   UNL     1      -0.295  -2.293   1.241  0.00  0.00    +0.044 C 
BRANCH  16  17
ATOM     17  C   UNL     1      -0.199  -3.819   1.302  0.00  0.00    +0.071 C 
BRANCH  17  18
ATOM     18  S   UNL     1       0.627  -4.312   2.840  0.00  0.00    -0.164 S 
ATOM     19  C   UNL     1       0.661  -6.124   2.758  0.00  0.00    +0.084 C 
ENDBRANCH  17  18
ENDBRANCH  16  17
ENDBRANCH  11  16
ENDBRANCH   9  11
ENDBRANCH   3   7
BRANCH   1  20
ATOM     20  O   UNL     1      -6.355  -5.084  -3.802  0.00  0.00    -0.458 OA
BRANCH  20  22
ATOM     21  C   UNL     1      -6.260  -7.107  -5.214  0.00  0.00    +0.136 C 
ATOM     22  C   UNL     1      -6.017  -6.378  -3.917  0.00  0.00    +0.304 C 
ATOM     23  O   UNL     1      -5.519  -6.958  -2.982  0.00  0.00    -0.251 OA
ENDBRANCH  20  22
ENDBRANCH   1  20
BRANCH   6  24
ATOM     24  O   UNL     1      -8.456  -3.917  -2.273  0.00  0.00    -0.454 OA
BRANCH  24  25
ATOM     25  C   UNL     1      -9.463  -3.133  -2.689  0.00  0.00    +0.304 C 
ATOM     26  O   UNL     1      -9.238  -2.002  -3.050  0.00  0.00    -0.251 OA
ATOM     27  C   UNL     1     -10.874  -3.663  -2.705  0.00  0.00    +0.136 C 
ENDBRANCH  24  25
ENDBRANCH   6  24
BRANCH   5  28
ATOM     28  O   UNL     1      -6.939  -3.655   0.123  0.00  0.00    -0.458 OA
BRANCH  28  29
ATOM     29  C   UNL     1      -7.418  -3.236   1.305  0.00  0.00    +0.304 C 
ATOM     30  O   UNL     1      -7.836  -2.108   1.422  0.00  0.00    -0.251 OA
ATOM     31  C   UNL     1      -7.437  -4.173   2.486  0.00  0.00    +0.136 C 
ENDBRANCH  28  29
ENDBRANCH   5  28
BRANCH   3  32
ATOM     32  O   UNL     1      -4.503  -4.153  -0.128  0.00  0.00    -0.449 OA
BRANCH  32  33
ATOM     33  C   UNL     1      -3.589  -5.136  -0.129  0.00  0.00    +0.305 C 
ATOM     34  O   UNL     1      -2.795  -5.221  -1.036  0.00  0.00    -0.251 OA
ATOM     35  C   UNL     1      -3.554  -6.133   1.000  0.00  0.00    +0.136 C 
ENDBRANCH  32  33
ENDBRANCH   3  32
TORSDOF 15
