REMARK  Name = ZINC10936719
REMARK  10 active torsions:
REMARK  status: ('A' for Active; 'I' for Inactive)
REMARK    1  A    between atoms: C_1  and  C_2
REMARK    2  A    between atoms: C_2  and  N_3
REMARK    3  A    between atoms: C_4  and  C_25
REMARK    4  A    between atoms: C_7  and  S_8
REMARK    5  A    between atoms: S_8  and  C_9
REMARK    6  A    between atoms: C_9  and  C_11
REMARK    7  A    between atoms: C_9  and  C_12
REMARK    8  A    between atoms: N_14  and  C_15
REMARK    9  A    between atoms: C_30  and  O_31
REMARK   10  A    between atoms: O_31  and  C_32
REMARK                            x       y       z     vdW  Elec       q    Type
REMARK                         _______ _______ _______ _____ _____    ______ ____
ROOT
ATOM      1  S   UNL     1       4.779  -4.375  -0.635  0.00  0.00    -0.074 S 
ENDROOT
BRANCH   1   6
ATOM      2  N   UNL     1       6.906  -6.176  -0.878  0.00  0.00    -0.302 N 
ATOM      3  C   UNL     1       8.236  -6.193  -0.528  0.00  0.00    +0.168 A 
ATOM      4  N   UNL     1       8.491  -5.051   0.069  0.00  0.00    -0.128 NA
ATOM      5  N   UNL     1       7.428  -4.331   0.111  0.00  0.00    -0.122 NA
ATOM      6  C   UNL     1       6.428  -4.967  -0.457  0.00  0.00    +0.193 A 
BRANCH   3   7
ATOM      7  C   UNL     1       9.195  -7.290  -0.773  0.00  0.00    +0.061 A 
ATOM      8  C   UNL     1       8.852  -8.605  -0.457  0.00  0.00    +0.015 A 
ATOM      9  C   UNL     1       9.752  -9.625  -0.688  0.00  0.00    +0.001 A 
ATOM     10  C   UNL     1      10.994  -9.349  -1.232  0.00  0.00    +0.004 A 
ATOM     11  C   UNL     1      11.346  -8.050  -1.548  0.00  0.00    +0.046 A 
ATOM     12  C   UNL     1      10.451  -7.016  -1.327  0.00  0.00    +0.131 A 
BRANCH  12  13
ATOM     13  O   UNL     1      10.794  -5.740  -1.644  0.00  0.00    -0.494 OA
ATOM     14  C   UNL     1      12.092  -5.537  -2.206  0.00  0.00    +0.277 C 
ENDBRANCH  12  13
ENDBRANCH   3   7
BRANCH   2  16
ATOM     15  C   UNL     1       6.157  -6.964  -3.069  0.00  0.00    +0.027 C 
ATOM     16  C   UNL     1       6.158  -7.234  -1.563  0.00  0.00    +0.122 C 
ENDBRANCH   2  16
ENDBRANCH   1   6
BRANCH   1  17
ATOM     17  C   UNL     1       4.939  -2.755   0.156  0.00  0.00    +0.137 C 
ATOM     18  C   UNL     1       5.258  -2.943   1.641  0.00  0.00    +0.029 C 
BRANCH  17  19
ATOM     19  C   UNL     1       3.645  -1.996   0.012  0.00  0.00    +0.230 C 
ATOM     20  O   UNL     1       2.602  -2.597  -0.137  0.00  0.00    -0.274 OA
ATOM     21  N   UNL     1       3.647  -0.649   0.049  0.00  0.00    -0.284 N 
ATOM     22  H   UNL     1       4.487  -0.166   0.099  0.00  0.00    +0.155 HD
BRANCH  21  23
ATOM     23  C   UNL     1       2.436   0.055   0.015  0.00  0.00    +0.037 A 
ATOM     24  C   UNL     1       2.292   1.226   0.746  0.00  0.00    +0.027 A 
ATOM     25  C   UNL     1       1.098   1.920   0.713  0.00  0.00    +0.051 A 
ATOM     26  C   UNL     1       0.040   1.449  -0.050  0.00  0.00    +0.162 A 
ATOM     27  C   UNL     1       0.181   0.278  -0.785  0.00  0.00    +0.164 A 
ATOM     28  C   UNL     1       1.379  -0.419  -0.750  0.00  0.00    +0.072 A 
ATOM     29  O   UNL     1      -0.844  -0.195  -1.546  0.00  0.00    -0.485 OA
ATOM     30  C   UNL     1      -2.148   0.323  -1.263  0.00  0.00    +0.270 C 
ATOM     31  C   UNL     1      -2.041   1.848  -1.131  0.00  0.00    +0.270 C 
ATOM     32  O   UNL     1      -1.133   2.142  -0.064  0.00  0.00    -0.485 OA
ENDBRANCH  21  23
ENDBRANCH  17  19
ENDBRANCH   1  17
TORSDOF 7
