REMARK  Name = ZINC38673057
REMARK  9 active torsions:
REMARK  status: ('A' for Active; 'I' for Inactive)
REMARK    1  A    between atoms: C_1  and  N_2
REMARK    2  A    between atoms: N_5  and  C_8
REMARK    3  A    between atoms: C_8  and  C_10
REMARK    4  A    between atoms: C_8  and  C_28
REMARK    5  A    between atoms: C_10  and  N_11
REMARK    6  A    between atoms: C_12  and  C_14
REMARK    7  A    between atoms: C_17  and  S_20
REMARK    8  A    between atoms: S_20  and  N_23
REMARK    9  A    between atoms: N_37  and  C_38
REMARK                            x       y       z     vdW  Elec       q    Type
REMARK                         _______ _______ _______ _____ _____    ______ ____
ROOT
ATOM      1  C   UNL     1       1.475  -4.086  -0.161  0.00  0.00    +0.104 C 
ENDROOT
BRANCH   1   2
ATOM      2  C   UNL     1       2.203  -4.641   1.036  0.00  0.00    -0.028 A 
ATOM      3  C   UNL     1       3.377  -4.049   1.465  0.00  0.00    +0.007 A 
ATOM      4  C   UNL     1       4.044  -4.559   2.561  0.00  0.00    +0.024 A 
ATOM      5  C   UNL     1       3.536  -5.666   3.232  0.00  0.00    +0.033 A 
ATOM      6  C   UNL     1       2.358  -6.257   2.803  0.00  0.00    -0.026 A 
ATOM      7  C   UNL     1       1.693  -5.737   1.705  0.00  0.00    +0.010 A 
ATOM      8  C   UNL     1       1.773  -7.450   3.511  0.00  0.00    +0.038 C 
ATOM      9  C   UNL     1       2.845  -8.163   4.334  0.00  0.00    +0.024 C 
ATOM     10  C   UNL     1       3.558  -7.133   5.220  0.00  0.00    +0.105 C 
ATOM     11  N   UNL     1       4.231  -6.170   4.337  0.00  0.00    -0.333 N 
ATOM     12  C   UNL     1       5.606  -5.745   4.609  0.00  0.00    +0.129 C 
ENDBRANCH   1   2
BRANCH   1  17
ATOM     13  C   UNL     1       0.458   1.454  -0.014  0.00  0.00    -0.096 C 
ATOM     14  N   UNL     1       0.356  -0.011  -0.050  0.00  0.00    +0.379 N 
ATOM     15  C   UNL     1       1.003  -0.516  -1.268  0.00  0.00    -0.064 C 
ATOM     16  C   UNL     1       0.881  -2.041  -1.315  0.00  0.00    +0.066 C 
ATOM     17  N   UNL     1       1.521  -2.618  -0.125  0.00  0.00    -0.297 NA
ATOM     18  C   UNL     1       0.900  -2.102   1.103  0.00  0.00    +0.066 C 
ATOM     19  C   UNL     1       1.022  -0.577   1.131  0.00  0.00    -0.064 C 
ATOM     20  H   UNL     1      -0.616  -0.281  -0.049  0.00  0.00    -0.082 HD
ENDBRANCH   1  17
BRANCH   1  21
ATOM     21  C   UNL     1       2.145  -4.585  -1.443  0.00  0.00    +0.128 C 
BRANCH  21  22
ATOM     22  N   UNL     1       2.028  -6.043  -1.519  0.00  0.00    -0.310 N 
ATOM     23  C   UNL     1       2.645  -6.719  -2.508  0.00  0.00    +0.244 C 
ATOM     24  O   UNL     1       3.300  -6.118  -3.337  0.00  0.00    -0.270 OA
ATOM     25  H   UNL     1       1.505  -6.523  -0.857  0.00  0.00    +0.149 HD
BRANCH  23  26
ATOM     26  C   UNL     1       2.527  -8.190  -2.585  0.00  0.00    +0.037 A 
ATOM     27  C   UNL     1       1.771  -8.883  -1.637  0.00  0.00    +0.015 A 
ATOM     28  C   UNL     1       1.664 -10.256  -1.715  0.00  0.00    +0.029 A 
ATOM     29  C   UNL     1       2.304 -10.947  -2.728  0.00  0.00    +0.106 A 
ATOM     30  C   UNL     1       3.055 -10.267  -3.671  0.00  0.00    +0.029 A 
ATOM     31  C   UNL     1       3.165  -8.893  -3.608  0.00  0.00    +0.015 A 
BRANCH  29  32
ATOM     32  S   UNL     1       2.163 -12.701  -2.820  0.00  0.00    +0.061 S 
ATOM     33  O   UNL     1       3.299 -13.163  -3.538  0.00  0.00    -0.153 OA
ATOM     34  O   UNL     1       1.856 -13.152  -1.508  0.00  0.00    -0.153 OA
BRANCH  32  35
ATOM     35  N   UNL     1       0.841 -13.037  -3.758  0.00  0.00    -0.177 NA
ATOM     36  C   UNL     1      -0.537 -13.200  -3.271  0.00  0.00    +0.109 C 
ATOM     37  C   UNL     1      -1.420 -13.528  -4.493  0.00  0.00    +0.018 C 
ATOM     38  C   UNL     1      -0.399 -14.089  -5.518  0.00  0.00    +0.018 C 
ATOM     39  C   UNL     1       0.849 -13.217  -5.221  0.00  0.00    +0.109 C 
ENDBRANCH  32  35
ENDBRANCH  29  32
ENDBRANCH  23  26
ENDBRANCH  21  22
ENDBRANCH   1  21
TORSDOF 7
