REMARK  Name = ZINC62182823
REMARK  6 active torsions:
REMARK  status: ('A' for Active; 'I' for Inactive)
REMARK    1  A    between atoms: C_1  and  C_2
REMARK    2  A    between atoms: C_5  and  C_21
REMARK    3  A    between atoms: C_6  and  C_18
REMARK    4  A    between atoms: C_9  and  C_12
REMARK    5  A    between atoms: C_10  and  C_11
REMARK    6  A    between atoms: C_12  and  N_13
REMARK                            x       y       z     vdW  Elec       q    Type
REMARK                         _______ _______ _______ _____ _____    ______ ____
ROOT
ATOM      1  C   UNL     1      -0.151   1.313  -0.235  0.00  0.00    +0.044 C 
ATOM      2  C   UNL     1      -0.069  -0.190  -0.165  0.00  0.00    -0.047 A 
ATOM      3  C   UNL     1      -0.013  -0.921  -1.318  0.00  0.00    +0.015 A 
ATOM      4  C   UNL     1       0.064  -2.315  -1.251  0.00  0.00    +0.024 A 
ATOM      5  C   UNL     1       0.136  -3.380  -2.249  0.00  0.00    +0.010 A 
ATOM      6  C   UNL     1       0.192  -4.547  -1.552  0.00  0.00    +0.220 A 
ATOM      7  O   UNL     1       0.159  -4.287  -0.227  0.00  0.00    -0.448 OA
ATOM      8  C   UNL     1       0.083  -2.961  -0.000  0.00  0.00    +0.138 A 
ATOM      9  C   UNL     1       0.025  -2.196   1.159  0.00  0.00    -0.018 A 
ATOM     10  C   UNL     1      -0.045  -0.822   1.071  0.00  0.00    -0.043 A 
ATOM     11  C   UNL     1      -0.102   0.003   2.330  0.00  0.00    +0.044 C 
ATOM     12  C   UNL     1       0.148  -3.218  -3.748  0.00  0.00    +0.048 C 
ENDROOT
BRANCH   6  13
ATOM     13  C   UNL     1       0.274  -5.883  -2.147  0.00  0.00    +0.421 C 
ATOM     14  O   UNL     1       0.297  -6.010  -3.365  0.00  0.00    -0.237 OA
ATOM     15  O   UNL     1       0.319  -6.872  -1.428  0.00  0.00    -0.237 OA
ENDBRANCH   6  13
BRANCH   9  16
ATOM     16  C   UNL     1       0.044  -2.866   2.508  0.00  0.00    -0.039 C 
BRANCH  16  17
ATOM     17  N   UNL     1      -1.333  -3.025   2.996  0.00  0.00    +0.382 N 
ATOM     18  C   UNL     1      -2.054  -4.033   2.177  0.00  0.00    -0.078 C 
ATOM     19  C   UNL     1      -3.205  -4.488   3.108  0.00  0.00    -0.020 C 
ATOM     20  C   UNL     1      -2.539  -4.497   4.503  0.00  0.00    -0.020 C 
ATOM     21  C   UNL     1      -1.327  -3.556   4.376  0.00  0.00    -0.078 C 
ATOM     22  H   UNL     1      -1.817  -2.140   2.965  0.00  0.00    -0.081 HD
ENDBRANCH  16  17
ENDBRANCH   9  16
TORSDOF 3
