REMARK  Name = ZINC06244892
REMARK  7 active torsions:
REMARK  status: ('A' for Active; 'I' for Inactive)
REMARK    1  A    between atoms: C_1  and  C_2
REMARK    2  A    between atoms: C_5  and  C_39
REMARK    3  A    between atoms: C_9  and  C_14
REMARK    4  A    between atoms: C_14  and  C_16
REMARK    5  A    between atoms: C_14  and  N_72
REMARK    6  A    between atoms: N_20  and  C_21
REMARK    7  A    between atoms: N_29  and  C_32
REMARK                            x       y       z     vdW  Elec       q    Type
REMARK                         _______ _______ _______ _____ _____    ______ ____
ROOT
ATOM      1  C   UNL     1       1.669   7.546  -1.035  0.00  0.00    +0.039 C 
ENDROOT
BRANCH   1  10
ATOM      2  C   UNL     1      -2.419  10.716  -1.635  0.00  0.00    +0.044 C 
ATOM      3  C   UNL     1      -2.021  10.235  -3.006  0.00  0.00    -0.041 A 
ATOM      4  C   UNL     1      -2.714  10.651  -4.107  0.00  0.00    +0.004 A 
ATOM      5  C   UNL     1      -2.355  10.214  -5.375  0.00  0.00    +0.005 A 
ATOM      6  C   UNL     1      -1.294   9.352  -5.547  0.00  0.00    -0.026 A 
ATOM      7  C   UNL     1      -0.574   8.914  -4.441  0.00  0.00    +0.052 A 
ATOM      8  C   UNL     1      -0.941   9.359  -3.157  0.00  0.00    +0.002 A 
ATOM      9  C   UNL     1      -0.177   8.893  -1.998  0.00  0.00    +0.018 A 
ATOM     10  C   UNL     1       0.861   8.045  -2.206  0.00  0.00    +0.011 A 
ATOM     11  C   UNL     1       1.192   7.633  -3.514  0.00  0.00    +0.251 A 
ATOM     12  O   UNL     1       2.132   6.875  -3.679  0.00  0.00    -0.268 OA
ATOM     13  N   UNL     1       0.492   8.051  -4.584  0.00  0.00    -0.322 N 
ATOM     14  H   UNL     1       0.744   7.745  -5.469  0.00  0.00    +0.169 HD
ATOM     15  C   UNL     1      -0.914   8.886  -6.929  0.00  0.00    +0.046 C 
ENDBRANCH   1  10
BRANCH   1  21
ATOM     16  C   UNL     1       2.466   5.554   0.088  0.00  0.00    -0.058 C 
ATOM     17  C   UNL     1       2.526   4.028  -0.001  0.00  0.00    +0.086 C 
ATOM     18  N   UNL     1       1.161   3.485   0.009  0.00  0.00    -0.333 N 
ATOM     19  C   UNL     1       0.381   4.008  -1.121  0.00  0.00    +0.086 C 
ATOM     20  C   UNL     1       0.320   5.535  -1.032  0.00  0.00    -0.058 C 
ATOM     21  N   UNL     1       1.698   6.069  -1.066  0.00  0.00    +0.391 N 
ATOM     22  H   UNL     1       2.154   5.762  -1.933  0.00  0.00    -0.080 HD
BRANCH  18  23
ATOM     23  C   UNL     1       1.177   2.087   0.002  0.00  0.00    +0.030 A 
ATOM     24  C   UNL     1      -0.017   1.377   0.010  0.00  0.00    +0.026 A 
ATOM     25  C   UNL     1       0.002  -0.004   0.002  0.00  0.00    +0.040 A 
ATOM     26  C   UNL     1       1.210  -0.681  -0.013  0.00  0.00    +0.124 A 
ATOM     27  C   UNL     1       2.401   0.025  -0.021  0.00  0.00    +0.040 A 
ATOM     28  C   UNL     1       2.387   1.406  -0.013  0.00  0.00    +0.026 A 
ATOM     29  F   UNL     1       1.226  -2.032  -0.020  0.00  0.00    -0.205 F 
ENDBRANCH  18  23
ENDBRANCH   1  21
BRANCH   1  30
ATOM     30  C   UNL     1       3.079   8.066  -1.140  0.00  0.00    +0.143 A 
ATOM     31  N   UNL     1       4.013   7.637  -1.954  0.00  0.00    -0.115 NA
ATOM     32  N   UNL     1       5.076   8.334  -1.742  0.00  0.00    -0.023 NA
ATOM     33  N   UNL     1       4.847   9.190  -0.809  0.00  0.00    -0.044 NA
ATOM     34  N   UNL     1       3.627   9.057  -0.411  0.00  0.00    -0.227 N 
BRANCH  34  35
ATOM     35  C   UNL     1       2.962   9.837   0.636  0.00  0.00    +0.111 C 
ATOM     36  C   UNL     1       2.968  11.317   0.250  0.00  0.00    +0.027 C 
ATOM     37  C   UNL     1       2.274  12.132   1.343  0.00  0.00    +0.002 C 
ATOM     38  C   UNL     1       3.018  11.947   2.667  0.00  0.00    +0.000 C 
ATOM     39  C   UNL     1       3.012  10.466   3.053  0.00  0.00    +0.002 C 
ATOM     40  C   UNL     1       3.707   9.652   1.960  0.00  0.00    +0.027 C 
ENDBRANCH  34  35
ENDBRANCH   1  30
TORSDOF 5
