REMARK  Name = ZINC09672524
REMARK  6 active torsions:
REMARK  status: ('A' for Active; 'I' for Inactive)
REMARK    1  A    between atoms: C_4  and  N_7
REMARK    2  A    between atoms: C_10  and  C_15
REMARK    3  A    between atoms: C_15  and  S_16
REMARK    4  A    between atoms: S_16  and  C_17
REMARK    5  A    between atoms: C_20  and  C_25
REMARK    6  A    between atoms: N_21  and  C_22
REMARK                            x       y       z     vdW  Elec       q    Type
REMARK                         _______ _______ _______ _____ _____    ______ ____
ROOT
ATOM      1  N   UNL     1       6.167  11.549  -3.566  0.00  0.00    -0.284 N 
ATOM      2  C   UNL     1       5.744  11.207  -2.296  0.00  0.00    +0.224 A 
ATOM      3  N   UNL     1       4.655  10.459  -2.136  0.00  0.00    -0.198 NA
ATOM      4  C   UNL     1       4.250  10.131  -0.922  0.00  0.00    +0.146 A 
ATOM      5  N   UNL     1       4.920  10.548   0.138  0.00  0.00    -0.199 NA
ATOM      6  C   UNL     1       6.013  11.292  -0.015  0.00  0.00    +0.217 A 
ATOM      7  N   UNL     1       6.424  11.624  -1.234  0.00  0.00    -0.181 NA
ATOM      8  N   UNL     1       6.716  11.723   1.092  0.00  0.00    -0.327 N 
ATOM      9  H   UNL     1       5.720  11.178  -4.343  0.00  0.00    +0.155 HD
ATOM     10  H   UNL     1       7.510  12.268   0.981  0.00  0.00    +0.145 HD
ATOM     11  H   UNL     1       6.416  11.480   1.982  0.00  0.00    +0.145 HD
ENDROOT
BRANCH   1  15
ATOM     12  C   UNL     1       9.365  14.172  -4.059  0.00  0.00    +0.000 A 
ATOM     13  C   UNL     1       9.238  13.075  -4.891  0.00  0.00    +0.002 A 
ATOM     14  C   UNL     1       8.179  12.204  -4.731  0.00  0.00    +0.023 A 
ATOM     15  C   UNL     1       7.241  12.430  -3.731  0.00  0.00    +0.034 A 
ATOM     16  C   UNL     1       7.368  13.536  -2.901  0.00  0.00    +0.023 A 
ATOM     17  C   UNL     1       8.433  14.400  -3.063  0.00  0.00    +0.002 A 
ENDBRANCH   1  15
BRANCH   4  18
ATOM     18  C   UNL     1       3.016   9.283  -0.745  0.00  0.00    +0.153 C 
BRANCH  18  19
ATOM     19  S   UNL     1       3.482   7.534  -0.734  0.00  0.00    -0.078 S 
BRANCH  19  20
ATOM     20  C   UNL     1       1.896   6.797  -0.520  0.00  0.00    +0.193 A 
ATOM     21  N   UNL     1       0.751   7.430  -0.409  0.00  0.00    -0.122 NA
ATOM     22  N   UNL     1      -0.210   6.588  -0.270  0.00  0.00    -0.128 NA
ATOM     23  C   UNL     1       0.265   5.362  -0.274  0.00  0.00    +0.172 A 
ATOM     24  N   UNL     1       1.629   5.458  -0.438  0.00  0.00    -0.299 N 
BRANCH  23  25
ATOM     25  C   UNL     1      -0.515   4.121  -0.137  0.00  0.00    +0.056 A 
ATOM     26  C   UNL     1      -1.806   3.954   0.298  0.00  0.00    +0.019 A 
ATOM     27  C   UNL     1      -2.331   2.682   0.336  0.00  0.00    +0.008 A 
ATOM     28  C   UNL     1      -1.556   1.634  -0.045  0.00  0.00    +0.046 A 
ATOM     29  S   UNL     1      -0.028   2.441  -0.494  0.00  0.00    -0.094 S 
ENDBRANCH  23  25
BRANCH  24  30
ATOM     30  C   UNL     1       2.592   4.357  -0.511  0.00  0.00    +0.091 C 
ATOM     31  C   UNL     1       4.070   4.696  -0.306  0.00  0.00    +0.027 C 
ATOM     32  C   UNL     1       3.553   4.336  -1.702  0.00  0.00    +0.027 C 
ENDBRANCH  24  30
ENDBRANCH  19  20
ENDBRANCH  18  19
ENDBRANCH   4  18
TORSDOF 6
