REMARK  Name = ZINC15080855
REMARK  6 active torsions:
REMARK  status: ('A' for Active; 'I' for Inactive)
REMARK    1  A    between atoms: C_3  and  S_13
REMARK    2  A    between atoms: C_4  and  N_10
REMARK    3  A    between atoms: C_6  and  C_7
REMARK    4  A    between atoms: S_13  and  C_14
REMARK    5  A    between atoms: C_14  and  C_15
REMARK    6  A    between atoms: N_17  and  C_18
REMARK                            x       y       z     vdW  Elec       q    Type
REMARK                         _______ _______ _______ _____ _____    ______ ____
ROOT
ATOM      1  C   UNL     1       0.066   5.810   0.033  0.00  0.00    +0.014 A 
ATOM      2  C   UNL     1       0.216   4.442   0.024  0.00  0.00    +0.018 A 
ATOM      3  C   UNL     1       1.492   3.882   0.009  0.00  0.00    +0.039 A 
ATOM      4  C   UNL     1       2.616   4.705   0.008  0.00  0.00    +0.140 A 
ATOM      5  C   UNL     1       2.473   6.063   0.012  0.00  0.00    +0.047 A 
ATOM      6  C   UNL     1       1.197   6.633   0.027  0.00  0.00    +0.039 A 
ENDROOT
BRANCH   6   7
ATOM      7  C   UNL     1       1.043   8.100   0.036  0.00  0.00    +0.242 C 
ATOM      8  O   UNL     1       2.026   8.814   0.031  0.00  0.00    -0.270 OA
ATOM      9  N   UNL     1      -0.189   8.648   0.051  0.00  0.00    -0.325 N 
ATOM     10  H   UNL     1      -0.973   8.078   0.055  0.00  0.00    +0.145 HD
ATOM     11  H   UNL     1      -0.290   9.613   0.057  0.00  0.00    +0.145 HD
ENDBRANCH   6   7
BRANCH   4  12
ATOM     12  N   UNL     1       3.969   4.105  -0.002  0.00  0.00    +0.058 N 
ATOM     13  O   UNL     1       4.954   4.822  -0.002  0.00  0.00    -0.126 OA
ATOM     14  O   UNL     1       4.098   2.894  -0.010  0.00  0.00    -0.126 OA
ENDBRANCH   4  12
BRANCH   3  15
ATOM     15  S   UNL     1       1.683   2.131  -0.003  0.00  0.00    -0.114 S 
BRANCH  15  16
ATOM     16  C   UNL     1      -0.018   1.503   0.010  0.00  0.00    +0.170 C 
BRANCH  16  17
ATOM     17  C   UNL     1       0.002  -0.004   0.002  0.00  0.00    +0.223 C 
ATOM     18  O   UNL     1       1.060  -0.596  -0.011  0.00  0.00    -0.275 OA
ATOM     19  N   UNL     1      -1.156  -0.694   0.009  0.00  0.00    -0.312 N 
ATOM     20  H   UNL     1      -2.002  -0.220   0.020  0.00  0.00    +0.149 HD
BRANCH  19  21
ATOM     21  C   UNL     1      -1.136  -2.159   0.001  0.00  0.00    +0.073 C 
ATOM     22  C   UNL     1      -1.017  -2.659  -1.440  0.00  0.00    +0.022 C 
ATOM     23  C   UNL     1      -0.600  -4.131  -1.435  0.00  0.00    +0.002 C 
ATOM     24  C   UNL     1       0.517  -4.343  -0.412  0.00  0.00    +0.000 C 
ATOM     25  C   UNL     1       0.000  -5.213   0.735  0.00  0.00    +0.000 C 
ATOM     26  C   UNL     1      -0.896  -4.373   1.648  0.00  0.00    +0.000 C 
ATOM     27  C   UNL     1      -2.256  -4.167   0.978  0.00  0.00    +0.002 C 
ATOM     28  C   UNL     1      -2.430  -2.690   0.621  0.00  0.00    +0.022 C 
ENDBRANCH  19  21
ENDBRANCH  16  17
ENDBRANCH  15  16
ENDBRANCH   3  15
TORSDOF 6
