REMARK  Name = ZINC39467003
REMARK  12 active torsions:
REMARK  status: ('A' for Active; 'I' for Inactive)
REMARK    1  A    between atoms: C_1  and  C_2
REMARK    2  A    between atoms: C_2  and  C_3
REMARK    3  A    between atoms: C_2  and  C_4
REMARK    4  A    between atoms: C_4  and  C_5
REMARK    5  A    between atoms: C_5  and  C_7
REMARK    6  A    between atoms: C_5  and  N_30
REMARK    7  A    between atoms: N_16  and  C_19
REMARK    8  A    between atoms: C_19  and  C_20
REMARK    9  A    between atoms: C_31  and  C_33
REMARK   10  A    between atoms: C_36  and  C_38
REMARK   11  A    between atoms: C_38  and  O_39
REMARK   12  A    between atoms: O_39  and  C_40
REMARK                            x       y       z     vdW  Elec       q    Type
REMARK                         _______ _______ _______ _____ _____    ______ ____
ROOT
ATOM      1  C   UNL     1       0.758  -0.520   3.740  0.00  0.00    +0.219 C 
ATOM      2  N   UNL     1       2.026   0.228   3.798  0.00  0.00    -0.170 NA
ATOM      3  N   UNL     1       2.263   0.610   4.955  0.00  0.00    -0.172 NA
ATOM      4  C   UNL     1       1.211   0.169   5.869  0.00  0.00    +0.197 C 
ATOM      5  N   UNL     1       0.042  -0.114   4.969  0.00  0.00    -0.257 NA
ATOM      6  C   UNL     1      -0.673  -1.212   5.612  0.00  0.00    +0.070 C 
ATOM      7  C   UNL     1      -1.919  -0.684   6.312  0.00  0.00    -0.063 C 
ATOM      8  N   UNL     1      -1.651   0.730   6.724  0.00  0.00    +0.384 N 
ATOM      9  C   UNL     1      -0.496   0.816   7.613  0.00  0.00    -0.075 C 
ATOM     10  C   UNL     1       0.784   1.236   6.853  0.00  0.00    +0.026 C 
ATOM     11  H   UNL     1      -1.476   1.286   5.900  0.00  0.00    -0.081 HD
ENDROOT
BRANCH   1  12
ATOM     12  C   UNL     1      -0.042  -0.124   2.497  0.00  0.00    +0.115 C 
BRANCH  12  13
ATOM     13  N   UNL     1      -1.330  -0.821   2.503  0.00  0.00    -0.303 N 
ATOM     14  C   UNL     1      -2.382  -0.298   1.842  0.00  0.00    +0.280 C 
ATOM     15  O   UNL     1      -2.261   0.753   1.241  0.00  0.00    -0.267 OA
ATOM     16  H   UNL     1      -1.426  -1.658   2.983  0.00  0.00    +0.150 HD
BRANCH  14  17
ATOM     17  C   UNL     1      -3.672  -0.996   1.848  0.00  0.00    +0.190 A 
ATOM     18  C   UNL     1      -4.811  -0.582   1.219  0.00  0.00    +0.055 A 
ATOM     19  C   UNL     1      -5.794  -1.547   1.489  0.00  0.00    +0.048 A 
ATOM     20  C   UNL     1      -5.220  -2.495   2.261  0.00  0.00    +0.131 A 
ATOM     21  O   UNL     1      -3.940  -2.162   2.471  0.00  0.00    -0.453 OA
BRANCH  20  22
ATOM     22  C   UNL     1      -5.905  -3.726   2.794  0.00  0.00    +0.233 C 
BRANCH  22  23
ATOM     23  O   UNL     1      -5.759  -4.796   1.858  0.00  0.00    -0.375 OA
ATOM     24  C   UNL     1      -6.377  -6.017   2.270  0.00  0.00    +0.194 C 
ENDBRANCH  22  23
ENDBRANCH  20  22
ENDBRANCH  14  17
ENDBRANCH  12  13
BRANCH  12  25
ATOM     25  C   UNL     1       0.742  -0.511   1.242  0.00  0.00    +0.028 C 
BRANCH  25  27
ATOM     26  C   UNL     1      -0.019   1.526   0.010  0.00  0.00    +0.007 C 
ATOM     27  C   UNL     1       0.002  -0.004   0.002  0.00  0.00    -0.015 C 
ATOM     28  C   UNL     1       0.718  -0.497  -1.257  0.00  0.00    +0.007 C 
ENDBRANCH  25  27
ENDBRANCH  12  25
ENDBRANCH   1  12
BRANCH   8  29
ATOM     29  C   UNL     1      -2.832   1.260   7.418  0.00  0.00    -0.025 C 
BRANCH  29  30
ATOM     30  C   UNL     1      -3.990   1.332   6.455  0.00  0.00    +0.000 A 
ATOM     31  H   UNL     1      -3.699   3.176   5.531  0.00  0.00    +0.166 HD
ATOM     32  C   UNL     1      -4.932   0.387   6.310  0.00  0.00    +0.029 A 
ATOM     33  C   UNL     1      -5.857   0.859   5.278  0.00  0.00    -0.000 A 
ATOM     34  C   UNL     1      -7.013   0.334   4.697  0.00  0.00    +0.010 A 
ATOM     35  C   UNL     1      -7.668   1.042   3.729  0.00  0.00    +0.001 A 
ATOM     36  C   UNL     1      -7.194   2.280   3.319  0.00  0.00    +0.002 A 
ATOM     37  C   UNL     1      -6.055   2.817   3.879  0.00  0.00    +0.026 A 
ATOM     38  C   UNL     1      -5.372   2.114   4.865  0.00  0.00    +0.047 A 
ATOM     39  N   UNL     1      -4.240   2.374   5.604  0.00  0.00    -0.360 N 
ENDBRANCH  29  30
ENDBRANCH   8  29
TORSDOF 9
