REMARK  Name = ZINC20154437
REMARK  2 active torsions:
REMARK  status: ('A' for Active; 'I' for Inactive)
REMARK    1  A    between atoms: C_3  and  C_18
REMARK    2  A    between atoms: C_6  and  C_7
REMARK                            x       y       z     vdW  Elec       q    Type
REMARK                         _______ _______ _______ _____ _____    ______ ____
ROOT
ATOM      1  C   UNL     1       2.385   1.436  -0.013  0.00  0.00    +0.014 A 
ATOM      2  C   UNL     1       1.183   2.108   0.002  0.00  0.00    +0.015 A 
ATOM      3  C   UNL     1      -0.017   1.394   0.010  0.00  0.00    +0.055 A 
ATOM      4  C   UNL     1       0.002  -0.004   0.002  0.00  0.00    +0.054 A 
ATOM      5  C   UNL     1       1.205  -0.676  -0.013  0.00  0.00    +0.034 A 
ATOM      6  C   UNL     1       2.404   0.040  -0.021  0.00  0.00    +0.038 A 
ATOM      7 CL   UNL     1      -1.489  -0.893   0.011  0.00  0.00    -0.083 Cl
ENDROOT
BRANCH   6   8
ATOM      8  C   UNL     1       3.695  -0.681  -0.037  0.00  0.00    +0.228 A 
ATOM      9  N   UNL     1       4.872  -0.111  -0.045  0.00  0.00    -0.209 NA
ATOM     10  C   UNL     1       5.825  -1.076  -0.059  0.00  0.00    +0.111 A 
ATOM     11  C   UNL     1       7.223  -1.053  -0.071  0.00  0.00    +0.051 A 
ATOM     12  C   UNL     1       7.925  -2.238  -0.083  0.00  0.00    +0.043 A 
ATOM     13  C   UNL     1       7.254  -3.453  -0.082  0.00  0.00    +0.024 A 
ATOM     14  C   UNL     1       5.875  -3.491  -0.070  0.00  0.00    +0.050 A 
ATOM     15  C   UNL     1       5.151  -2.309  -0.058  0.00  0.00    +0.156 A 
ATOM     16  O   UNL     1       3.831  -2.021  -0.040  0.00  0.00    -0.435 OA
ATOM     17 CL   UNL     1       9.661  -2.211  -0.098  0.00  0.00    -0.083 Cl
ENDBRANCH   6   8
BRANCH   3  18
ATOM     18  C   UNL     1      -1.306   2.116   0.020  0.00  0.00    +0.243 C 
ATOM     19  O   UNL     1      -2.351   1.494   0.021  0.00  0.00    -0.270 OA
ATOM     20  N   UNL     1      -1.324   3.463   0.027  0.00  0.00    -0.325 N 
ATOM     21  H   UNL     1      -2.284   4.000   0.035  0.00  0.00    +0.145 HD
ATOM     22  H   UNL     1      -0.379   4.026   0.026  0.00  0.00    +0.145 HD
ENDBRANCH   3  18
TORSDOF 2
