REMARK  Name = ZINC21110241
REMARK  6 active torsions:
REMARK  status: ('A' for Active; 'I' for Inactive)
REMARK    1  A    between atoms: C_1  and  C_2
REMARK    2  A    between atoms: C_4  and  N_23
REMARK    3  A    between atoms: N_14  and  C_17
REMARK    4  A    between atoms: C_24  and  C_26
REMARK    5  A    between atoms: C_26  and  C_27
REMARK    6  A    between atoms: C_26  and  C_28
REMARK                            x       y       z     vdW  Elec       q    Type
REMARK                         _______ _______ _______ _____ _____    ______ ____
ROOT
ATOM      1  C   UNL     1       2.554  -5.411  -0.052  0.00  0.00    +0.067 C 
ATOM      2  C   UNL     1       1.709  -4.163  -0.037  0.00  0.00    +0.062 A 
ATOM      3  C   UNL     1       0.310  -4.124  -0.025  0.00  0.00    +0.068 A 
ATOM      4  C   UNL     1      -0.071  -2.819  -0.008  0.00  0.00    +0.132 A 
ATOM      5  N   UNL     1       1.064  -2.062  -0.020  0.00  0.00    -0.183 N 
ATOM      6  N   UNL     1       2.159  -2.936  -0.034  0.00  0.00    -0.167 NA
ATOM      7  C   UNL     1       1.124  -0.679  -0.012  0.00  0.00    +0.258 A 
ATOM      8  N   UNL     1       2.347  -0.079  -0.021  0.00  0.00    -0.171 NA
ATOM      9  C   UNL     1       2.443   1.271  -0.015  0.00  0.00    +0.286 A 
ATOM     10  O   UNL     1       3.528   1.826  -0.022  0.00  0.00    -0.265 OA
ATOM     11  C   UNL     1       1.200   2.039   0.002  0.00  0.00    +0.105 A 
ATOM     12  C   UNL     1       0.887   3.412   0.012  0.00  0.00    +0.150 A 
ATOM     13  N   UNL     1      -0.411   3.539   0.025  0.00  0.00    -0.172 NA
ATOM     14  N   UNL     1      -1.006   2.271   0.018  0.00  0.00    -0.214 N 
ATOM     15  C   UNL     1      -0.016   1.335   0.009  0.00  0.00    +0.172 A 
ATOM     16  N   UNL     1       0.002  -0.004   0.002  0.00  0.00    -0.191 NA
ENDROOT
BRANCH  14  17
ATOM     17  C   UNL     1      -2.382   2.010   0.022  0.00  0.00    +0.068 A 
ATOM     18  C   UNL     1      -2.885   0.921  -0.676  0.00  0.00    +0.028 A 
ATOM     19  C   UNL     1      -4.242   0.663  -0.667  0.00  0.00    +0.002 A 
ATOM     20  C   UNL     1      -5.100   1.495   0.028  0.00  0.00    +0.000 A 
ATOM     21  C   UNL     1      -4.603   2.584   0.721  0.00  0.00    +0.002 A 
ATOM     22  C   UNL     1      -3.246   2.844   0.719  0.00  0.00    +0.028 A 
ENDBRANCH  14  17
BRANCH   4  23
ATOM     23  N   UNL     1      -1.380  -2.342   0.014  0.00  0.00    -0.270 N 
ATOM     24  C   UNL     1      -2.412  -3.208   0.023  0.00  0.00    +0.221 C 
ATOM     25  O   UNL     1      -2.202  -4.402   0.013  0.00  0.00    -0.275 OA
ATOM     26  H   UNL     1      -1.570  -1.259   0.023  0.00  0.00    +0.156 HD
BRANCH  24  27
ATOM     27  C   UNL     1      -3.828  -2.692   0.047  0.00  0.00    +0.069 C 
ATOM     28  C   UNL     1      -4.801  -3.873   0.054  0.00  0.00    +0.017 C 
ATOM     29  C   UNL     1      -4.042  -1.847   1.304  0.00  0.00    +0.017 C 
ENDBRANCH  24  27
ENDBRANCH   4  23
TORSDOF 3
