REMARK  Name = ZINC37561622
REMARK  6 active torsions:
REMARK  status: ('A' for Active; 'I' for Inactive)
REMARK    1  A    between atoms: C_1  and  C_2
REMARK    2  A    between atoms: C_2  and  C_3
REMARK    3  A    between atoms: C_2  and  N_4
REMARK    4  A    between atoms: C_8  and  C_9
REMARK    5  A    between atoms: N_11  and  C_12
REMARK    6  A    between atoms: C_15  and  C_18
REMARK                            x       y       z     vdW  Elec       q    Type
REMARK                         _______ _______ _______ _____ _____    ______ ____
ROOT
ATOM      1  C   UNL     1       2.429  -1.936  -0.070  0.00  0.00    +0.261 C 
ATOM      2  O   UNL     1       3.462  -2.563  -0.215  0.00  0.00    -0.269 OA
ATOM      3  N   UNL     1       1.893  -1.796   1.159  0.00  0.00    -0.307 N 
ATOM      4  H   UNL     1       1.033  -1.360   1.266  0.00  0.00    +0.149 HD
ENDROOT
BRANCH   1   9
ATOM      5  N   UNL     1       2.142  -1.480  -2.548  0.00  0.00    -0.339 N 
ATOM      6  C   UNL     1       1.282  -0.777  -3.325  0.00  0.00    +0.106 A 
ATOM      7  C   UNL     1       0.363  -0.178  -2.530  0.00  0.00    +0.059 A 
ATOM      8  C   UNL     1       0.657  -0.516  -1.204  0.00  0.00    +0.052 A 
ATOM      9  C   UNL     1       1.767  -1.334  -1.232  0.00  0.00    +0.106 A 
ATOM     10 CL   UNL     1      -0.947   0.831  -3.060  0.00  0.00    -0.082 Cl
BRANCH   5  12
ATOM     11  C   UNL     1       2.768  -3.438  -3.873  0.00  0.00    +0.030 C 
ATOM     12  C   UNL     1       3.279  -2.268  -3.030  0.00  0.00    +0.081 C 
ATOM     13  C   UNL     1       4.188  -1.383  -3.885  0.00  0.00    +0.030 C 
ENDBRANCH   5  12
ENDBRANCH   1   9
BRANCH   3  14
ATOM     14  C   UNL     1       2.609  -2.300   2.333  0.00  0.00    +0.073 C 
ATOM     15  C   UNL     1       2.292  -3.785   2.524  0.00  0.00    +0.023 C 
ATOM     16  C   UNL     1       0.786  -3.962   2.731  0.00  0.00    +0.016 C 
ATOM     17  C   UNL     1       0.346  -3.181   3.971  0.00  0.00    +0.102 C 
ATOM     18  C   UNL     1       0.664  -1.697   3.780  0.00  0.00    +0.016 C 
ATOM     19  C   UNL     1       2.170  -1.520   3.573  0.00  0.00    +0.023 C 
BRANCH  17  20
ATOM     20  C   UNL     1      -1.137  -3.356   4.175  0.00  0.00    +0.359 C 
ATOM     21  O   UNL     1      -1.585  -3.502   5.299  0.00  0.00    -0.246 OA
ATOM     22  O   UNL     1      -1.888  -3.350   3.215  0.00  0.00    -0.246 OA
ENDBRANCH  17  20
ENDBRANCH   3  14
TORSDOF 4
