REMARK  Name = ZINC39710574
REMARK  13 active torsions:
REMARK  status: ('A' for Active; 'I' for Inactive)
REMARK    1  A    between atoms: C_1  and  C_2
REMARK    2  A    between atoms: C_2  and  C_3
REMARK    3  A    between atoms: C_10  and  C_15
REMARK    4  A    between atoms: C_15  and  C_17
REMARK    5  A    between atoms: C_15  and  N_27
REMARK    6  A    between atoms: N_22  and  C_23
REMARK    7  A    between atoms: C_23  and  C_24
REMARK    8  A    between atoms: C_23  and  C_25
REMARK    9  A    between atoms: C_23  and  C_26
REMARK   10  A    between atoms: N_27  and  C_28
REMARK   11  A    between atoms: N_27  and  C_36
REMARK   12  A    between atoms: C_28  and  C_29
REMARK   13  A    between atoms: C_36  and  C_37
REMARK                            x       y       z     vdW  Elec       q    Type
REMARK                         _______ _______ _______ _____ _____    ______ ____
ROOT
ATOM      1  C   UNL     1       5.603  -3.146  -3.532  0.00  0.00    -0.008 C 
ENDROOT
BRANCH   1   9
ATOM      2  C   UNL     1       3.010  -0.503  -8.042  0.00  0.00    -0.047 A 
ATOM      3  C   UNL     1       4.172   0.200  -8.361  0.00  0.00    +0.005 A 
ATOM      4  C   UNL     1       5.243   0.262  -7.527  0.00  0.00    +0.024 A 
ATOM      5  C   UNL     1       5.218  -0.394  -6.282  0.00  0.00    +0.040 A 
ATOM      6  N   UNL     1       6.274  -0.325  -5.471  0.00  0.00    -0.285 N 
ATOM      7  C   UNL     1       6.317  -0.918  -4.290  0.00  0.00    +0.223 C 
ATOM      8  O   UNL     1       7.309  -0.819  -3.593  0.00  0.00    -0.275 OA
ATOM      9  C   UNL     1       5.127  -1.718  -3.808  0.00  0.00    +0.088 C 
ATOM     10  C   UNL     1       3.924  -1.798  -4.726  0.00  0.00    -0.006 C 
ATOM     11  C   UNL     1       4.002  -1.143  -5.920  0.00  0.00    -0.007 A 
ATOM     12  C   UNL     1       2.884  -1.165  -6.863  0.00  0.00    +0.013 A 
ATOM     13  H   UNL     1       7.047   0.183  -5.762  0.00  0.00    +0.155 HD
BRANCH   2  15
ATOM     14  C   UNL     1       0.936   0.661  -8.747  0.00  0.00    +0.009 C 
ATOM     15  C   UNL     1       1.867  -0.522  -9.024  0.00  0.00    +0.032 C 
ENDBRANCH   2  15
ENDBRANCH   1   9
BRANCH   1  16
ATOM     16  C   UNL     1       6.134  -3.238  -2.100  0.00  0.00    +0.205 C 
ATOM     17  N   UNL     1       6.561  -4.611  -1.800  0.00  0.00    -0.152 NA
ATOM     18  N   UNL     1       5.883  -5.045  -0.866  0.00  0.00    -0.070 NA
ATOM     19  N   UNL     1       4.949  -4.121  -0.400  0.00  0.00    -0.179 N 
ATOM     20  N   UNL     1       5.053  -2.964  -1.130  0.00  0.00    -0.183 NA
ATOM     21  H   UNL     1       4.324  -4.273   0.327  0.00  0.00    +0.191 HD
BRANCH  20  22
ATOM     22  C   UNL     1       5.395  -1.824  -0.269  0.00  0.00    +0.035 C 
ATOM     23  C   UNL     1       5.493  -0.555  -1.118  0.00  0.00    +0.029 C 
ATOM     24  C   UNL     1       4.310  -1.644   0.794  0.00  0.00    +0.029 C 
ATOM     25  C   UNL     1       6.739  -2.086   0.413  0.00  0.00    +0.029 C 
ENDBRANCH  20  22
ENDBRANCH   1  16
BRANCH   1  26
ATOM     26  N   UNL     1       6.673  -3.496  -4.475  0.00  0.00    +0.392 N 
ATOM     27  H   UNL     1       7.479  -2.914  -4.301  0.00  0.00    -0.080 HD
BRANCH  26  28
ATOM     28  C   UNL     1       6.203  -3.284  -5.850  0.00  0.00    -0.042 C 
BRANCH  28  29
ATOM     29  C   UNL     1       7.351  -3.472  -6.808  0.00  0.00    -0.064 A 
ATOM     30  C   UNL     1       8.226  -2.429  -7.052  0.00  0.00    +0.004 A 
ATOM     31  C   UNL     1       9.279  -2.601  -7.930  0.00  0.00    +0.038 A 
ATOM     32  C   UNL     1       9.459  -3.818  -8.565  0.00  0.00    +0.123 A 
ATOM     33  C   UNL     1       8.583  -4.862  -8.320  0.00  0.00    +0.038 A 
ATOM     34  C   UNL     1       7.533  -4.689  -7.438  0.00  0.00    +0.004 A 
ATOM     35  F   UNL     1      10.488  -3.987  -9.424  0.00  0.00    -0.205 F 
ENDBRANCH  28  29
ENDBRANCH  26  28
BRANCH  26  36
ATOM     36  C   UNL     1       7.041  -4.907  -4.296  0.00  0.00    -0.002 C 
BRANCH  36  37
ATOM     37  C   UNL     1       5.796  -5.757  -4.315  0.00  0.00    +0.089 A 
ATOM     38  C   UNL     1       5.306  -6.410  -5.383  0.00  0.00    +0.042 A 
ATOM     39  C   UNL     1       4.135  -7.076  -4.955  0.00  0.00    +0.041 A 
ATOM     40  C   UNL     1       3.980  -6.790  -3.650  0.00  0.00    +0.195 A 
ATOM     41  O   UNL     1       4.992  -5.995  -3.266  0.00  0.00    -0.470 OA
ENDBRANCH  36  37
ENDBRANCH  26  36
ENDBRANCH   1  26
TORSDOF 9
