REMARK  Name = ZINC05338710
REMARK  2 active torsions:
REMARK  status: ('A' for Active; 'I' for Inactive)
REMARK    1  A    between atoms: C_6  and  N_11
REMARK    2  A    between atoms: C_12  and  C_23
REMARK                            x       y       z     vdW  Elec       q    Type
REMARK                         _______ _______ _______ _____ _____    ______ ____
ROOT
ATOM      1  N   UNL     1       3.503   1.850   0.668  0.00  0.00    -0.244 N 
ATOM      2  C   UNL     1       2.599   0.936  -0.030  0.00  0.00    +0.198 C 
ATOM      3  N   UNL     1       2.467  -0.320   0.716  0.00  0.00    -0.321 N 
ATOM      4  C   UNL     1       2.315  -0.265   2.097  0.00  0.00    +0.041 A 
ATOM      5  C   UNL     1       1.639  -1.252   2.796  0.00  0.00    +0.024 A 
ATOM      6  C   UNL     1       1.535  -1.167   4.171  0.00  0.00    +0.002 A 
ATOM      7  C   UNL     1       2.102  -0.104   4.856  0.00  0.00    +0.001 A 
ATOM      8  C   UNL     1       2.773   0.890   4.175  0.00  0.00    +0.015 A 
ATOM      9  C   UNL     1       2.882   0.819   2.788  0.00  0.00    +0.058 A 
ATOM     10  C   UNL     1       3.581   1.861   2.014  0.00  0.00    +0.254 C 
ATOM     11  O   UNL     1       4.223   2.722   2.585  0.00  0.00    -0.270 OA
ATOM     12  H   UNL     1       2.485  -1.173   0.255  0.00  0.00    +0.148 HD
ENDROOT
BRANCH   1  18
ATOM     13  C   UNL     1       7.541   4.889  -3.192  0.00  0.00    +0.001 A 
ATOM     14  C   UNL     1       7.649   3.518  -3.414  0.00  0.00    +0.001 A 
ATOM     15  C   UNL     1       6.887   2.634  -2.713  0.00  0.00    +0.008 A 
ATOM     16  C   UNL     1       5.979   3.108  -1.750  0.00  0.00    -0.016 A 
ATOM     17  C   UNL     1       5.183   2.224  -1.004  0.00  0.00    +0.032 A 
ATOM     18  C   UNL     1       4.301   2.726  -0.073  0.00  0.00    +0.039 A 
ATOM     19  C   UNL     1       4.200   4.106   0.144  0.00  0.00    +0.024 A 
ATOM     20  C   UNL     1       4.964   4.981  -0.562  0.00  0.00    +0.010 A 
ATOM     21  C   UNL     1       5.871   4.503  -1.524  0.00  0.00    -0.018 A 
ATOM     22  C   UNL     1       6.673   5.385  -2.268  0.00  0.00    +0.008 A 
ENDBRANCH   1  18
BRANCH   2  23
ATOM     23  C   UNL     1       1.244   1.582  -0.164  0.00  0.00    -0.009 A 
ATOM     24  C   UNL     1       0.105   0.798  -0.194  0.00  0.00    +0.008 A 
ATOM     25  C   UNL     1      -1.138   1.389  -0.322  0.00  0.00    +0.020 A 
ATOM     26  C   UNL     1      -1.243   2.766  -0.410  0.00  0.00    +0.041 A 
ATOM     27  C   UNL     1      -0.103   3.550  -0.380  0.00  0.00    +0.020 A 
ATOM     28  C   UNL     1       1.139   2.957  -0.257  0.00  0.00    +0.008 A 
ATOM     29 CL   UNL     1      -2.804   3.510  -0.564  0.00  0.00    -0.084 Cl
ENDBRANCH   2  23
TORSDOF 2
