REMARK  Name = ZINC09244908
REMARK  5 active torsions:
REMARK  status: ('A' for Active; 'I' for Inactive)
REMARK    1  A    between atoms: C_3  and  O_28
REMARK    2  A    between atoms: C_4  and  C_8
REMARK    3  A    between atoms: C_8  and  C_10
REMARK    4  A    between atoms: C_12  and  C_17
REMARK    5  A    between atoms: N_19  and  C_20
REMARK                            x       y       z     vdW  Elec       q    Type
REMARK                         _______ _______ _______ _____ _____    ______ ____
ROOT
ATOM      1  C   UNL     1      -0.170   1.481   0.037  0.00  0.00    +0.058 A 
ATOM      2  C   UNL     1      -0.071   0.070  -0.011  0.00  0.00    +0.033 A 
ATOM      3  C   UNL     1       1.152  -0.519   0.264  0.00  0.00    +0.097 A 
ATOM      4  C   UNL     1       2.291   0.355   0.593  0.00  0.00    +0.204 A 
ATOM      5  N   UNL     1       3.462  -0.162   0.859  0.00  0.00    -0.369 N 
ATOM      6  O   UNL     1       2.118   1.694   0.619  0.00  0.00    -0.446 OA
ATOM      7  C   UNL     1       0.932   2.246   0.351  0.00  0.00    +0.209 A 
ATOM      8  H   UNL     1       4.310   0.494   1.104  0.00  0.00    +0.159 HD
ATOM      9  H   UNL     1       3.599  -1.253   0.837  0.00  0.00    +0.159 HD
ENDROOT
BRANCH   3  10
ATOM     10  C   UNL     1       1.310  -1.980   0.228  0.00  0.00    +0.253 C 
ATOM     11  O   UNL     1       2.391  -2.482   0.472  0.00  0.00    -0.270 OA
ATOM     12  N   UNL     1       0.256  -2.764  -0.075  0.00  0.00    -0.280 N 
ATOM     13  H   UNL     1      -0.695  -2.309  -0.388  0.00  0.00    +0.155 HD
BRANCH  12  14
ATOM     14  C   UNL     1       0.373  -4.155   0.007  0.00  0.00    +0.054 A 
ATOM     15  C   UNL     1       1.383  -4.725   0.771  0.00  0.00    +0.044 A 
ATOM     16  C   UNL     1       1.496  -6.100   0.851  0.00  0.00    +0.043 A 
ATOM     17  C   UNL     1       0.603  -6.910   0.170  0.00  0.00    +0.021 A 
ATOM     18  C   UNL     1      -0.403  -6.346  -0.593  0.00  0.00    +0.023 A 
ATOM     19  C   UNL     1      -0.524  -4.971  -0.672  0.00  0.00    +0.062 A 
ATOM     20 CL   UNL     1      -1.793  -4.264  -1.623  0.00  0.00    -0.082 Cl
ATOM     21 CL   UNL     1       2.758  -6.813   1.806  0.00  0.00    -0.083 Cl
ENDBRANCH  12  14
ENDBRANCH   3  10
BRANCH   1  22
ATOM     22  C   UNL     1      -1.458   2.136  -0.258  0.00  0.00    +0.200 C 
ATOM     23  O   UNL     1      -2.216   1.646  -1.073  0.00  0.00    -0.286 OA
BRANCH  22  27
ATOM     24  C   UNL     1      -2.519   5.732   1.742  0.00  0.00    +0.023 A 
ATOM     25  C   UNL     1      -3.315   5.260   0.718  0.00  0.00    +0.047 A 
ATOM     26  C   UNL     1      -2.978   4.087   0.059  0.00  0.00    +0.128 A 
ATOM     27  C   UNL     1      -1.825   3.384   0.436  0.00  0.00    +0.065 A 
ATOM     28  C   UNL     1      -1.030   3.870   1.478  0.00  0.00    +0.035 A 
ATOM     29  C   UNL     1      -1.378   5.040   2.119  0.00  0.00    +0.042 A 
ATOM     30 CL   UNL     1      -0.386   5.647   3.408  0.00  0.00    -0.084 Cl
BRANCH  26  31
ATOM     31  O   UNL     1      -3.761   3.623  -0.948  0.00  0.00    -0.506 OA
ATOM     32  H   UNL     1      -3.491   2.693  -1.469  0.00  0.00    +0.292 HD
ENDBRANCH  26  31
ENDBRANCH  22  27
ENDBRANCH   1  22
TORSDOF 5
