REMARK  Name = ZINC33084406
REMARK  8 active torsions:
REMARK  status: ('A' for Active; 'I' for Inactive)
REMARK    1  A    between atoms: C_1  and  C_2
REMARK    2  A    between atoms: C_6  and  C_24
REMARK    3  A    between atoms: C_10  and  C_11
REMARK    4  A    between atoms: N_13  and  C_14
REMARK    5  A    between atoms: C_14  and  C_15
REMARK    6  A    between atoms: C_15  and  C_16
REMARK    7  A    between atoms: C_19  and  S_22
REMARK    8  A    between atoms: S_22  and  C_23
REMARK                            x       y       z     vdW  Elec       q    Type
REMARK                         _______ _______ _______ _____ _____    ______ ____
ROOT
ATOM      1  C   UNL     1      -1.222  -0.884   0.240  0.00  0.00    +0.046 C 
ATOM      2  C   UNL     1       0.065  -0.101   0.212  0.00  0.00    -0.019 A 
ATOM      3  C   UNL     1       0.035   1.300   0.206  0.00  0.00    +0.051 A 
ATOM      4  C   UNL     1      -1.089   2.179   0.229  0.00  0.00    +0.133 A 
ATOM      5  N   UNL     1      -0.886   3.486   0.213  0.00  0.00    -0.217 NA
ATOM      6  C   UNL     1       0.326   4.011   0.187  0.00  0.00    +0.129 A 
ATOM      7  N   UNL     1       1.405   3.252   0.170  0.00  0.00    -0.225 NA
ATOM      8  C   UNL     1       1.298   1.940   0.178  0.00  0.00    +0.114 A 
ATOM      9  S   UNL     1       2.442   0.584   0.162  0.00  0.00    -0.064 S 
ATOM     10  C   UNL     1       1.260  -0.753   0.192  0.00  0.00    +0.079 A 
ATOM     11  C   UNL     1       0.479   5.510   0.177  0.00  0.00    +0.088 C 
ATOM     12  N   UNL     1      -2.373   1.672   0.263  0.00  0.00    -0.315 N 
ATOM     13  C   UNL     1      -3.112   2.031  -0.954  0.00  0.00    +0.106 C 
ATOM     14  C   UNL     1      -4.475   1.334  -0.948  0.00  0.00    +0.019 C 
ATOM     15  C   UNL     1      -5.258   1.765   0.294  0.00  0.00    +0.003 C 
ATOM     16  C   UNL     1      -4.445   1.423   1.546  0.00  0.00    +0.019 C 
ATOM     17  C   UNL     1      -3.083   2.118   1.468  0.00  0.00    +0.106 C 
ENDROOT
BRANCH  10  18
ATOM     18  C   UNL     1       1.513  -2.199   0.193  0.00  0.00    +0.251 C 
ATOM     19  O   UNL     1       0.581  -2.980   0.215  0.00  0.00    -0.270 OA
ATOM     20  N   UNL     1       2.779  -2.661   0.171  0.00  0.00    -0.311 N 
ATOM     21  H   UNL     1       3.622  -1.955   0.151  0.00  0.00    +0.149 HD
BRANCH  20  22
ATOM     22  C   UNL     1       3.032  -4.104   0.173  0.00  0.00    +0.109 C 
BRANCH  22  23
ATOM     23  C   UNL     1       4.541  -4.358   0.144  0.00  0.00    +0.054 C 
BRANCH  23  24
ATOM     24  C   UNL     1       4.801  -5.842   0.146  0.00  0.00    -0.046 A 
ATOM     25  C   UNL     1       4.949  -6.515   1.346  0.00  0.00    +0.005 A 
ATOM     26  C   UNL     1       5.182  -7.876   1.351  0.00  0.00    +0.015 A 
ATOM     27  C   UNL     1       5.279  -8.568   0.150  0.00  0.00    +0.008 A 
ATOM     28  C   UNL     1       5.135  -7.887  -1.053  0.00  0.00    +0.015 A 
ATOM     29  C   UNL     1       4.897  -6.527  -1.051  0.00  0.00    +0.005 A 
BRANCH  27  30
ATOM     30  S   UNL     1       5.583 -10.303   0.152  0.00  0.00    -0.129 S 
ATOM     31  C   UNL     1       5.693 -10.727   1.913  0.00  0.00    +0.090 C 
ENDBRANCH  27  30
ENDBRANCH  23  24
ENDBRANCH  22  23
ENDBRANCH  20  22
ENDBRANCH  10  18
TORSDOF 5
