REMARK  Name = ZINC59880198
REMARK  12 active torsions:
REMARK  status: ('A' for Active; 'I' for Inactive)
REMARK    1  A    between atoms: C_1  and  O_2
REMARK    2  A    between atoms: O_2  and  C_3
REMARK    3  A    between atoms: C_6  and  O_9
REMARK    4  A    between atoms: O_9  and  C_10
REMARK    5  A    between atoms: C_10  and  C_11
REMARK    6  A    between atoms: C_14  and  C_16
REMARK    7  A    between atoms: N_17  and  N_18
REMARK    8  A    between atoms: C_21  and  S_24
REMARK    9  A    between atoms: S_24  and  C_25
REMARK   10  A    between atoms: C_25  and  C_26
REMARK   11  A    between atoms: N_28  and  N_29
REMARK   12  A    between atoms: C_30  and  C_32
REMARK                            x       y       z     vdW  Elec       q    Type
REMARK                         _______ _______ _______ _____ _____    ______ ____
ROOT
ATOM      1  N   UNL     1       1.839  -5.700 -10.807  0.00  0.00    -0.205 N 
ATOM      2  C   UNL     1       0.561  -5.640 -11.329  0.00  0.00    +0.232 A 
ATOM      3  N   UNL     1      -0.522  -5.261 -10.684  0.00  0.00    -0.186 NA
ATOM      4  C   UNL     1      -1.579  -5.327 -11.501  0.00  0.00    +0.211 A 
ATOM      5  N   UNL     1      -1.182  -5.750 -12.678  0.00  0.00    -0.144 NA
ATOM      6  N   UNL     1       0.204  -5.955 -12.593  0.00  0.00    -0.245 N 
ATOM      7  H   UNL     1       2.578  -5.989 -11.365  0.00  0.00    +0.177 HD
ATOM      8  H   UNL     1       0.790  -6.263 -13.302  0.00  0.00    +0.192 HD
ENDROOT
BRANCH   1  10
ATOM      9  C   UNL     1       3.271  -5.398  -8.980  0.00  0.00    +0.176 C 
ATOM     10  N   UNL     1       2.067  -5.342  -9.472  0.00  0.00    -0.184 NA
BRANCH   9  14
ATOM     11  C   UNL     1       3.159  -4.354  -5.520  0.00  0.00    +0.143 A 
ATOM     12  C   UNL     1       4.480  -4.607  -5.625  0.00  0.00    +0.049 A 
ATOM     13  C   UNL     1       4.715  -5.037  -6.944  0.00  0.00    +0.051 A 
ATOM     14  C   UNL     1       3.510  -5.024  -7.582  0.00  0.00    +0.148 A 
ATOM     15  O   UNL     1       2.575  -4.613  -6.702  0.00  0.00    -0.455 OA
BRANCH  11  16
ATOM     16  C   UNL     1       2.454  -3.868  -4.280  0.00  0.00    +0.303 C 
BRANCH  16  17
ATOM     17  O   UNL     1       2.440  -2.439  -4.269  0.00  0.00    -0.484 OA
BRANCH  17  21
ATOM     18  C   UNL     1       0.606  -0.608  -1.056  0.00  0.00    +0.120 A 
ATOM     19  C   UNL     1       1.173   0.161  -2.062  0.00  0.00    +0.049 A 
ATOM     20  C   UNL     1       1.786  -0.452  -3.137  0.00  0.00    +0.049 A 
ATOM     21  C   UNL     1       1.836  -1.836  -3.211  0.00  0.00    +0.121 A 
ATOM     22  C   UNL     1       1.270  -2.604  -2.204  0.00  0.00    +0.049 A 
ATOM     23  C   UNL     1       0.661  -1.992  -1.127  0.00  0.00    +0.049 A 
BRANCH  18  25
ATOM     24  C   UNL     1      -0.017   1.425   0.010  0.00  0.00    +0.277 C 
ATOM     25  O   UNL     1       0.002  -0.004   0.002  0.00  0.00    -0.495 OA
ENDBRANCH  18  25
ENDBRANCH  17  21
ENDBRANCH  16  17
ENDBRANCH  11  16
ENDBRANCH   9  14
ENDBRANCH   1  10
BRANCH   4  26
ATOM     26  S   UNL     1      -3.236  -4.915 -11.067  0.00  0.00    -0.075 S 
BRANCH  26  27
ATOM     27  C   UNL     1      -4.176  -5.213 -12.590  0.00  0.00    +0.174 C 
BRANCH  27  28
ATOM     28  C   UNL     1      -5.630  -4.894 -12.353  0.00  0.00    +0.239 C 
ATOM     29  O   UNL     1      -5.996  -4.505 -11.265  0.00  0.00    -0.273 OA
ATOM     30  N   UNL     1      -6.523  -5.043 -13.351  0.00  0.00    -0.234 N 
ATOM     31  H   UNL     1      -6.230  -5.355 -14.222  0.00  0.00    +0.173 HD
BRANCH  30  32
ATOM     32  N   UNL     1      -7.875  -4.747 -13.132  0.00  0.00    -0.234 N 
ATOM     33  C   UNL     1      -8.768  -4.895 -14.130  0.00  0.00    +0.232 C 
ATOM     34  O   UNL     1      -8.402  -5.285 -15.218  0.00  0.00    -0.274 OA
ATOM     35  H   UNL     1      -8.168  -4.435 -12.261  0.00  0.00    +0.173 HD
BRANCH  33  36
ATOM     36  C   UNL     1     -10.222  -4.577 -13.893  0.00  0.00    +0.076 C 
ATOM     37  C   UNL     1     -11.002  -5.721 -13.225  0.00  0.00    +0.013 C 
ATOM     38  C   UNL     1     -12.165  -5.375 -14.171  0.00  0.00    +0.001 C 
ATOM     39  C   UNL     1     -11.110  -4.798 -15.129  0.00  0.00    +0.013 C 
ENDBRANCH  33  36
ENDBRANCH  30  32
ENDBRANCH  27  28
ENDBRANCH  26  27
ENDBRANCH   4  26
TORSDOF 11
