REMARK  Name = ZINC10067583
REMARK  11 active torsions:
REMARK  status: ('A' for Active; 'I' for Inactive)
REMARK    1  A    between atoms: C_1  and  C_2
REMARK    2  A    between atoms: C_2  and  O_3
REMARK    3  A    between atoms: O_3  and  C_4
REMARK    4  A    between atoms: N_13  and  C_14
REMARK    5  A    between atoms: C_14  and  C_15
REMARK    6  A    between atoms: C_15  and  C_16
REMARK    7  A    between atoms: C_16  and  N_57
REMARK    8  A    between atoms: C_17  and  N_57
REMARK    9  A    between atoms: C_18  and  N_57
REMARK   10  A    between atoms: C_19  and  C_21
REMARK   11  A    between atoms: C_25  and  N_30
REMARK                            x       y       z     vdW  Elec       q    Type
REMARK                         _______ _______ _______ _____ _____    ______ ____
ROOT
ATOM      1  C   UNL     1       0.227  -0.356  -0.042  0.00  0.00    +0.122 A 
ATOM      2  C   UNL     1       0.131   1.028  -0.153  0.00  0.00    +0.048 A 
ATOM      3  C   UNL     1       1.248   1.821  -0.197  0.00  0.00    +0.032 A 
ATOM      4  C   UNL     1       2.541   1.253  -0.130  0.00  0.00    +0.081 A 
ATOM      5  C   UNL     1       2.602  -0.154  -0.018  0.00  0.00    +0.044 A 
ATOM      6  C   UNL     1       1.481  -0.944   0.026  0.00  0.00    +0.063 A 
ATOM      7  S   UNL     1       4.353  -0.454   0.036  0.00  0.00    -0.052 S 
ATOM      8  C   UNL     1       4.877   1.250  -0.090  0.00  0.00    +0.168 A 
ATOM      9  N   UNL     1       3.734   1.890  -0.160  0.00  0.00    -0.224 NA
ATOM     10  N   UNL     1       6.162   1.764  -0.108  0.00  0.00    -0.246 N 
ATOM     11  C   UNL     1       7.221   0.934  -0.024  0.00  0.00    +0.259 C 
ATOM     12  O   UNL     1       7.047  -0.260   0.132  0.00  0.00    -0.269 OA
ENDROOT
BRANCH  11  13
ATOM     13  C   UNL     1       8.585   1.471  -0.120  0.00  0.00    +0.076 A 
ATOM     14  C   UNL     1       9.761   0.791  -0.184  0.00  0.00    +0.029 A 
ATOM     15  C   UNL     1      10.975   1.496  -0.278  0.00  0.00    -0.008 A 
ATOM     16  C   UNL     1      12.291   0.972  -0.360  0.00  0.00    +0.041 A 
ATOM     17  C   UNL     1      13.364   1.800  -0.440  0.00  0.00    +0.127 A 
ATOM     18  C   UNL     1      13.220   3.182  -0.444  0.00  0.00    +0.034 A 
ATOM     19  C   UNL     1      11.958   3.734  -0.366  0.00  0.00    +0.018 A 
ATOM     20  C   UNL     1      10.858   2.906  -0.285  0.00  0.00    +0.020 A 
ATOM     21  S   UNL     1       9.107   3.177  -0.172  0.00  0.00    -0.084 S 
BRANCH  17  22
ATOM     22  N   UNL     1      14.722   1.215  -0.525  0.00  0.00    +0.056 N 
ATOM     23  O   UNL     1      14.865   0.005  -0.522  0.00  0.00    -0.126 OA
ATOM     24  O   UNL     1      15.695   1.944  -0.597  0.00  0.00    -0.126 OA
ENDBRANCH  17  22
ENDBRANCH  11  13
BRANCH   1  25
ATOM     25  O   UNL     1      -0.896  -1.122  -0.001  0.00  0.00    -0.492 OA
BRANCH  25  27
ATOM     26  C   UNL     1      -3.289  -1.459  -0.014  0.00  0.00    +0.048 C 
ATOM     27  C   UNL     1      -2.150  -0.440  -0.075  0.00  0.00    +0.225 C 
ENDBRANCH  25  27
ENDBRANCH   1  25
BRANCH  10  28
ATOM     28  C   UNL     1       6.372   3.209  -0.219  0.00  0.00    +0.114 C 
BRANCH  28  29
ATOM     29  C   UNL     1       6.593   3.801   1.175  0.00  0.00    +0.001 C 
BRANCH  29  30
ATOM     30  C   UNL     1       6.812   5.311   1.059  0.00  0.00    -0.078 C 
BRANCH  30  33
ATOM     31  C   UNL     1       7.470   7.276   2.311  0.00  0.00    -0.097 C 
ATOM     32  C   UNL     1       5.811   5.763   3.216  0.00  0.00    -0.097 C 
ATOM     33  N   UNL     1       7.045   5.864   2.409  0.00  0.00    +0.376 N 
ATOM     34  H   UNL     1       7.788   5.323   2.868  0.00  0.00    -0.083 HD
ENDBRANCH  30  33
ENDBRANCH  29  30
ENDBRANCH  28  29
ENDBRANCH  10  28
TORSDOF 8
