REMARK  Name = ZINC58987713
REMARK  11 active torsions:
REMARK  status: ('A' for Active; 'I' for Inactive)
REMARK    1  A    between atoms: C_1  and  O_2
REMARK    2  A    between atoms: O_2  and  C_3
REMARK    3  A    between atoms: C_6  and  C_9
REMARK    4  A    between atoms: N_10  and  N_11
REMARK    5  A    between atoms: C_12  and  C_14
REMARK    6  A    between atoms: C_14  and  C_15
REMARK    7  A    between atoms: C_15  and  C_16
REMARK    8  A    between atoms: C_16  and  S_17
REMARK    9  A    between atoms: S_17  and  C_18
REMARK   10  A    between atoms: C_21  and  C_24
REMARK   11  A    between atoms: N_22  and  N_23
REMARK                            x       y       z     vdW  Elec       q    Type
REMARK                         _______ _______ _______ _____ _____    ______ ____
ROOT
ATOM      1  C   UNL     1       4.475  -8.619  -7.790  0.00  0.00    +0.078 C 
ENDROOT
BRANCH   1   2
ATOM      2  C   UNL     1       3.796  -7.940  -6.599  0.00  0.00    +0.020 C 
BRANCH   2   3
ATOM      3  C   UNL     1       3.879  -6.421  -6.763  0.00  0.00    +0.098 C 
BRANCH   3   5
ATOM      4  N   UNL     1       3.161  -4.407  -5.518  0.00  0.00    -0.207 N 
ATOM      5  C   UNL     1       3.210  -5.753  -5.590  0.00  0.00    +0.232 C 
ATOM      6  O   UNL     1       2.714  -6.425  -4.710  0.00  0.00    -0.274 OA
ATOM      7  H   UNL     1       3.557  -3.870  -6.222  0.00  0.00    +0.177 HD
BRANCH   4   9
ATOM      8  C   UNL     1       2.492  -2.491  -4.359  0.00  0.00    +0.138 C 
ATOM      9  N   UNL     1       2.539  -3.786  -4.428  0.00  0.00    -0.188 NA
BRANCH   8  13
ATOM     10  C   UNL     1       0.606  -0.607  -1.055  0.00  0.00    +0.120 A 
ATOM     11  C   UNL     1       1.172   0.165  -2.061  0.00  0.00    +0.046 A 
ATOM     12  C   UNL     1       1.786  -0.442  -3.135  0.00  0.00    +0.013 A 
ATOM     13  C   UNL     1       1.837  -1.837  -3.212  0.00  0.00    -0.005 A 
ATOM     14  C   UNL     1       1.266  -2.609  -2.197  0.00  0.00    +0.013 A 
ATOM     15  C   UNL     1       0.659  -1.993  -1.124  0.00  0.00    +0.046 A 
BRANCH  10  17
ATOM     16  C   UNL     1      -0.017   1.425   0.010  0.00  0.00    +0.277 C 
ATOM     17  O   UNL     1       0.002  -0.004   0.002  0.00  0.00    -0.495 OA
ENDBRANCH  10  17
ENDBRANCH   8  13
ENDBRANCH   4   9
ENDBRANCH   3   5
ENDBRANCH   2   3
ENDBRANCH   1   2
BRANCH   1  18
ATOM     18  S   UNL     1       4.376 -10.420  -7.597  0.00  0.00    -0.084 S 
BRANCH  18  19
ATOM     19  C   UNL     1       5.192 -11.048  -9.027  0.00  0.00    +0.209 A 
ATOM     20  N   UNL     1       5.739 -10.337  -9.988  0.00  0.00    -0.121 NA
ATOM     21  N   UNL     1       6.246 -11.113 -10.877  0.00  0.00    -0.127 NA
ATOM     22  C   UNL     1       6.054 -12.367 -10.540  0.00  0.00    +0.182 A 
ATOM     23  N   UNL     1       5.378 -12.364  -9.342  0.00  0.00    -0.224 N 
BRANCH  22  24
ATOM     24  C   UNL     1       6.487 -13.558 -11.301  0.00  0.00    +0.021 A 
ATOM     25  C   UNL     1       5.952 -14.813 -11.004  0.00  0.00    +0.013 A 
ATOM     26  C   UNL     1       6.361 -15.920 -11.717  0.00  0.00    +0.016 A 
ATOM     27  C   UNL     1       7.300 -15.790 -12.726  0.00  0.00    +0.018 A 
ATOM     28  C   UNL     1       7.836 -14.548 -13.024  0.00  0.00    +0.016 A 
ATOM     29  C   UNL     1       7.430 -13.432 -12.322  0.00  0.00    +0.013 A 
ATOM     30 BR   UNL     1       7.856 -17.313 -13.698  0.00  0.00    -0.050 Br
ENDBRANCH  22  24
BRANCH  23  31
ATOM     31  N   UNL     1       4.974 -13.450  -8.618  0.00  0.00    -0.295 N 
ATOM     32  H   UNL     1       4.048 -13.743  -8.892  0.00  0.00    +0.163 HD
ATOM     33  H   UNL     1       5.634 -14.209  -8.707  0.00  0.00    +0.163 HD
ENDBRANCH  23  31
ENDBRANCH  18  19
ENDBRANCH   1  18
TORSDOF 10
