REMARK  Name = ZINC62011280
REMARK  10 active torsions:
REMARK  status: ('A' for Active; 'I' for Inactive)
REMARK    1  A    between atoms: C_1  and  C_2
REMARK    2  A    between atoms: C_2  and  C_3
REMARK    3  A    between atoms: C_3  and  C_4
REMARK    4  A    between atoms: C_4  and  C_6
REMARK    5  A    between atoms: C_4  and  C_10
REMARK    6  A    between atoms: N_7  and  O_8
REMARK    7  A    between atoms: N_12  and  C_13
REMARK    8  A    between atoms: N_12  and  C_14
REMARK    9  A    between atoms: C_14  and  C_16
REMARK   10  A    between atoms: C_14  and  C_17
REMARK                            x       y       z     vdW  Elec       q    Type
REMARK                         _______ _______ _______ _____ _____    ______ ____
ROOT
ATOM      1  C   UNL     1      -2.686  -2.413  -0.104  0.00  0.00    +0.226 C 
ATOM      2  O   UNL     1      -1.512  -2.110  -0.064  0.00  0.00    -0.275 OA
ATOM      3  N   UNL     1      -3.388  -2.241  -1.242  0.00  0.00    -0.297 N 
ATOM      4  C   UNL     1      -2.710  -1.788  -2.459  0.00  0.00    +0.132 C 
ENDROOT
BRANCH   3   5
ATOM      5  C   UNL     1      -4.828  -2.506  -1.262  0.00  0.00    +0.103 C 
ATOM      6  C   UNL     1      -5.148  -3.502  -2.379  0.00  0.00    +0.033 C 
BRANCH   5   7
ATOM      7  C   UNL     1      -5.573  -1.219  -1.507  0.00  0.00    -0.027 A 
ATOM      8  C   UNL     1      -6.758  -1.231  -2.219  0.00  0.00    +0.007 A 
ATOM      9  C   UNL     1      -7.441  -0.051  -2.445  0.00  0.00    +0.020 A 
ATOM     10  C   UNL     1      -6.939   1.142  -1.958  0.00  0.00    +0.041 A 
ATOM     11  C   UNL     1      -5.753   1.154  -1.245  0.00  0.00    +0.020 A 
ATOM     12  C   UNL     1      -5.074  -0.028  -1.015  0.00  0.00    +0.007 A 
ATOM     13 CL   UNL     1      -7.797   2.625  -2.241  0.00  0.00    -0.084 Cl
ENDBRANCH   5   7
ENDBRANCH   3   5
BRANCH   1  14
ATOM     14  C   UNL     1      -3.360  -2.983   1.117  0.00  0.00    +0.141 C 
BRANCH  14  15
ATOM     15  C   UNL     1      -2.584  -2.591   2.348  0.00  0.00    +0.144 C 
ATOM     16  N   UNL     1      -1.701  -3.396   2.839  0.00  0.00    -0.076 NA
ATOM     17  N   UNL     1      -2.816  -1.374   2.950  0.00  0.00    -0.343 N 
ATOM     18  H   UNL     1      -3.479  -0.769   2.581  0.00  0.00    +0.144 HD
ATOM     19  H   UNL     1      -2.316  -1.121   3.742  0.00  0.00    +0.144 HD
BRANCH  16  20
ATOM     20  O   UNL     1      -0.971  -3.027   3.995  0.00  0.00    -0.408 OA
ATOM     21  H   UNL     1      -0.334  -3.693   4.287  0.00  0.00    +0.328 HD
ENDBRANCH  16  20
ENDBRANCH  14  15
BRANCH  14  22
ATOM     22  C   UNL     1      -3.407  -4.509   1.009  0.00  0.00    +0.020 C 
BRANCH  22  24
ATOM     23  C   UNL     1      -4.227  -6.606   2.091  0.00  0.00    +0.004 C 
ATOM     24  C   UNL     1      -4.179  -5.081   2.199  0.00  0.00    -0.002 C 
ENDBRANCH  22  24
ENDBRANCH  14  22
ENDBRANCH   1  14
TORSDOF 7
