REMARK  Name = ZINC13506740
REMARK  11 active torsions:
REMARK  status: ('A' for Active; 'I' for Inactive)
REMARK    1  A    between atoms: C_1  and  C_2
REMARK    2  A    between atoms: C_2  and  O_3
REMARK    3  A    between atoms: O_3  and  C_4
REMARK    4  A    between atoms: C_7  and  N_10
REMARK    5  A    between atoms: N_10  and  C_11
REMARK    6  A    between atoms: C_11  and  C_13
REMARK    7  A    between atoms: C_11  and  C_18
REMARK    8  A    between atoms: N_20  and  C_21
REMARK    9  A    between atoms: C_26  and  C_28
REMARK   10  A    between atoms: C_28  and  N_29
REMARK   11  A    between atoms: C_30  and  C_32
REMARK                            x       y       z     vdW  Elec       q    Type
REMARK                         _______ _______ _______ _____ _____    ______ ____
ROOT
ATOM      1  N   UNL     1       2.392  -2.525  -0.960  0.00  0.00    -0.254 N 
ATOM      2  C   UNL     1       1.187  -3.128  -1.005  0.00  0.00    +0.238 C 
ATOM      3  O   UNL     1       1.010  -4.075  -1.741  0.00  0.00    -0.274 OA
ENDROOT
BRANCH   1   7
ATOM      4  C   UNL     1       5.421  -3.723  -3.563  0.00  0.00    +0.121 A 
ATOM      5  C   UNL     1       4.230  -4.433  -3.511  0.00  0.00    +0.047 A 
ATOM      6  C   UNL     1       3.227  -4.037  -2.649  0.00  0.00    +0.027 A 
ATOM      7  C   UNL     1       3.409  -2.928  -1.835  0.00  0.00    +0.038 A 
ATOM      8  C   UNL     1       4.599  -2.214  -1.892  0.00  0.00    +0.027 A 
ATOM      9  C   UNL     1       5.604  -2.615  -2.749  0.00  0.00    +0.047 A 
BRANCH   4  10
ATOM     10  O   UNL     1       6.409  -4.114  -4.412  0.00  0.00    -0.492 OA
BRANCH  10  12
ATOM     11  C   UNL     1       8.595  -3.925  -5.423  0.00  0.00    +0.048 C 
ATOM     12  C   UNL     1       7.608  -3.337  -4.413  0.00  0.00    +0.225 C 
ENDBRANCH  10  12
ENDBRANCH   4  10
ENDBRANCH   1   7
BRANCH   1  13
ATOM     13  C   UNL     1       2.637  -1.448   0.003  0.00  0.00    +0.204 C 
BRANCH  13  14
ATOM     14  C   UNL     1       3.780  -1.833   0.906  0.00  0.00    +0.019 A 
ATOM     15  C   UNL     1       4.044  -1.423   2.171  0.00  0.00    +0.013 A 
ATOM     16  C   UNL     1       5.165  -1.913   2.814  0.00  0.00    +0.008 A 
ATOM     17  C   UNL     1       5.967  -2.790   2.162  0.00  0.00    +0.045 A 
ATOM     18  S   UNL     1       5.139  -2.946   0.588  0.00  0.00    -0.099 S 
ENDBRANCH  13  14
BRANCH  13  19
ATOM     19  C   UNL     1       2.985  -0.182  -0.737  0.00  0.00    +0.239 C 
ATOM     20  O   UNL     1       2.996  -0.172  -1.950  0.00  0.00    -0.273 OA
ATOM     21  N   UNL     1       3.283   0.939  -0.051  0.00  0.00    -0.311 N 
ATOM     22  H   UNL     1       3.274   0.931   0.919  0.00  0.00    +0.149 HD
BRANCH  21  23
ATOM     23  C   UNL     1       3.621   2.170  -0.770  0.00  0.00    +0.073 C 
ATOM     24  C   UNL     1       5.134   2.209  -1.067  0.00  0.00    +0.022 C 
ATOM     25  C   UNL     1       5.517   3.700  -0.892  0.00  0.00    +0.002 C 
ATOM     26  C   UNL     1       4.650   4.136   0.315  0.00  0.00    +0.002 C 
ATOM     27  C   UNL     1       3.313   3.395   0.109  0.00  0.00    +0.022 C 
ENDBRANCH  21  23
ENDBRANCH  13  19
ENDBRANCH   1  13
BRANCH   2  28
ATOM     28  C   UNL     1       0.060  -2.625  -0.139  0.00  0.00    +0.201 C 
BRANCH  28  29
ATOM     29  N   UNL     1      -1.103  -3.503  -0.294  0.00  0.00    -0.300 N 
ATOM     30  C   UNL     1      -2.236  -3.246   0.389  0.00  0.00    +0.280 C 
ATOM     31  O   UNL     1      -2.293  -2.285   1.135  0.00  0.00    -0.267 OA
ATOM     32  H   UNL     1      -1.057  -4.268  -0.888  0.00  0.00    +0.150 HD
BRANCH  30  33
ATOM     33  C   UNL     1      -3.400  -4.124   0.235  0.00  0.00    +0.189 A 
ATOM     34  C   UNL     1      -4.603  -3.980   0.864  0.00  0.00    +0.054 A 
ATOM     35  C   UNL     1      -5.418  -5.035   0.425  0.00  0.00    +0.042 A 
ATOM     36  C   UNL     1      -4.685  -5.768  -0.443  0.00  0.00    +0.196 A 
ATOM     37  O   UNL     1      -3.472  -5.213  -0.559  0.00  0.00    -0.458 OA
ENDBRANCH  30  33
ENDBRANCH  28  29
ENDBRANCH   2  28
TORSDOF 10
