REMARK  Name = ZINC33224988
REMARK  5 active torsions:
REMARK  status: ('A' for Active; 'I' for Inactive)
REMARK    1  A    between atoms: C_1  and  C_2
REMARK    2  A    between atoms: C_2  and  C_4
REMARK    3  A    between atoms: C_2  and  O_13
REMARK    4  A    between atoms: O_13  and  C_14
REMARK    5  A    between atoms: C_17  and  C_20
REMARK                            x       y       z     vdW  Elec       q    Type
REMARK                         _______ _______ _______ _____ _____    ______ ____
ROOT
ATOM      1  C   UNL     1       1.238   6.700  -3.528  0.00  0.00    +0.122 A 
ATOM      2  C   UNL     1       2.313   5.881  -3.842  0.00  0.00    +0.046 A 
ATOM      3  C   UNL     1       3.012   6.080  -5.017  0.00  0.00    +0.008 A 
ATOM      4  C   UNL     1       2.648   7.102  -5.874  0.00  0.00    -0.041 A 
ATOM      5  C   UNL     1       1.581   7.923  -5.561  0.00  0.00    +0.008 A 
ATOM      6  C   UNL     1       0.875   7.724  -4.390  0.00  0.00    +0.046 A 
ENDROOT
BRANCH   4   7
ATOM      7  C   UNL     1       3.416   7.322  -7.152  0.00  0.00    -0.003 C 
ATOM      8  C   UNL     1       4.019   8.728  -7.149  0.00  0.00    +0.015 C 
ATOM      9  C   UNL     1       4.799   8.951  -8.447  0.00  0.00    -0.010 C 
ATOM     10  C   UNL     1       5.920   7.915  -8.552  0.00  0.00    +0.007 C 
ATOM     11  C   UNL     1       5.318   6.509  -8.554  0.00  0.00    -0.010 C 
ATOM     12  C   UNL     1       4.538   6.286  -7.256  0.00  0.00    +0.015 C 
ATOM     13  C   UNL     1       4.373   6.361  -9.748  0.00  0.00    +0.007 C 
ATOM     14  C   UNL     1       3.252   7.396  -9.643  0.00  0.00    -0.010 C 
ATOM     15  C   UNL     1       3.854   8.802  -9.642  0.00  0.00    +0.007 C 
ATOM     16  C   UNL     1       2.472   7.173  -8.346  0.00  0.00    +0.015 C 
ENDBRANCH   4   7
BRANCH   1  17
ATOM     17  O   UNL     1       0.546   6.502  -2.375  0.00  0.00    -0.480 OA
BRANCH  17  19
ATOM     18  C   UNL     1      -1.769   7.077  -2.763  0.00  0.00    +0.062 C 
ATOM     19  C   UNL     1      -0.467   7.458  -2.055  0.00  0.00    +0.256 C 
BRANCH  19  20
ATOM     20  C   UNL     1      -0.692   7.472  -0.565  0.00  0.00    +0.257 C 
ATOM     21  O   UNL     1      -0.114   6.674   0.143  0.00  0.00    -0.272 OA
ATOM     22  N   UNL     1      -1.534   8.371  -0.019  0.00  0.00    -0.288 N 
ATOM     23  C   UNL     1      -1.776   8.411   1.433  0.00  0.00    +0.127 C 
ATOM     24  C   UNL     1      -1.320   9.778   1.953  0.00  0.00    +0.123 C 
ATOM     25  N   UNL     1      -1.830  10.847   1.105  0.00  0.00    -0.313 N 
ATOM     26  C   UNL     1      -2.210  10.691  -0.164  0.00  0.00    +0.230 C 
ATOM     27  O   UNL     1      -2.540  11.673  -0.794  0.00  0.00    -0.274 OA
ATOM     28  C   UNL     1      -2.249   9.352  -0.849  0.00  0.00    +0.203 C 
ATOM     29  H   UNL     1      -1.924  11.868   1.504  0.00  0.00    +0.149 HD
ENDBRANCH  19  20
ENDBRANCH  17  19
ENDBRANCH   1  17
TORSDOF 4
