REMARK  Name = ZINC39631033
REMARK  14 active torsions:
REMARK  status: ('A' for Active; 'I' for Inactive)
REMARK    1  A    between atoms: C_1  and  C_2
REMARK    2  A    between atoms: C_2  and  C_3
REMARK    3  A    between atoms: C_2  and  C_4
REMARK    4  A    between atoms: C_2  and  C_31
REMARK    5  A    between atoms: C_4  and  N_5
REMARK    6  A    between atoms: C_6  and  C_8
REMARK    7  A    between atoms: C_19  and  C_21
REMARK    8  A    between atoms: C_21  and  C_22
REMARK    9  A    between atoms: C_22  and  C_23
REMARK   10  A    between atoms: C_26  and  O_29
REMARK   11  A    between atoms: O_29  and  C_30
REMARK   12  A    between atoms: C_31  and  N_32
REMARK   13  A    between atoms: N_32  and  C_33
REMARK   14  A    between atoms: N_32  and  C_34
REMARK                            x       y       z     vdW  Elec       q    Type
REMARK                         _______ _______ _______ _____ _____    ______ ____
ROOT
ATOM      1  C   UNL     1      -5.553   0.270   2.136  0.00  0.00    +0.100 C 
ATOM      2  C   UNL     1      -5.249  -0.192   3.579  0.00  0.00    +0.121 C 
ATOM      3  N   UNL     1      -6.580  -0.466   4.172  0.00  0.00    -0.300 N 
ATOM      4  C   UNL     1      -7.347  -1.105   3.076  0.00  0.00    +0.115 C 
ATOM      5  C   UNL     1      -6.930  -0.332   1.810  0.00  0.00    -0.004 C 
ATOM      6  C   UNL     1      -6.822  -1.283   0.622  0.00  0.00    -0.010 C 
ATOM      7  C   UNL     1      -8.213  -1.824   0.279  0.00  0.00    -0.082 C 
ATOM      8  N   UNL     1      -9.109  -0.707  -0.043  0.00  0.00    +0.379 N 
ATOM      9  C   UNL     1      -9.280   0.153   1.134  0.00  0.00    -0.082 C 
ATOM     10  C   UNL     1      -7.934   0.777   1.513  0.00  0.00    -0.010 C 
ATOM     11  C   UNL     1      -6.998  -0.195   5.424  0.00  0.00    +0.216 C 
ATOM     12  O   UNL     1      -8.126  -0.483   5.762  0.00  0.00    -0.276 OA
ATOM     13  H   UNL     1      -8.713  -0.167  -0.797  0.00  0.00    -0.086 HD
ATOM     14  H   UNL     1     -10.007  -1.069  -0.327  0.00  0.00    -0.086 HD
ENDROOT
BRANCH   1  16
ATOM     15  N   UNL     1      -4.270   0.382   0.024  0.00  0.00    -0.315 N 
ATOM     16  C   UNL     1      -4.510  -0.258   1.185  0.00  0.00    +0.218 C 
ATOM     17  O   UNL     1      -3.887  -1.260   1.465  0.00  0.00    -0.275 OA
ATOM     18  H   UNL     1      -4.768   1.184  -0.200  0.00  0.00    +0.149 HD
BRANCH  15  19
ATOM     19  C   UNL     1      -3.256  -0.132  -0.900  0.00  0.00    +0.108 C 
BRANCH  19  21
ATOM     20  C   UNL     1      -4.544   0.796  -2.829  0.00  0.00    +0.010 C 
ATOM     21  C   UNL     1      -3.183   0.773  -2.131  0.00  0.00    -0.034 C 
ATOM     22  C   UNL     1      -2.807   2.192  -1.700  0.00  0.00    +0.010 C 
BRANCH  21  23
ATOM     23  C   UNL     1      -2.124   0.236  -3.097  0.00  0.00    -0.072 C 
BRANCH  23  24
ATOM     24  N   UNL     1      -2.042   1.114  -4.272  0.00  0.00    +0.376 N 
ATOM     25  C   UNL     1      -1.122   2.224  -3.990  0.00  0.00    -0.097 C 
ATOM     26  C   UNL     1      -1.547   0.347  -5.422  0.00  0.00    -0.097 C 
ATOM     27  H   UNL     1      -2.958   1.482  -4.481  0.00  0.00    -0.083 HD
ENDBRANCH  23  24
ENDBRANCH  21  23
ENDBRANCH  19  21
ENDBRANCH  15  19
ENDBRANCH   1  16
BRANCH  11  28
ATOM     28  C   UNL     1      -6.063   0.466   6.404  0.00  0.00    +0.100 C 
BRANCH  28  29
ATOM     29  C   UNL     1      -6.780   0.660   7.742  0.00  0.00    +0.044 C 
BRANCH  29  30
ATOM     30  C   UNL     1      -5.845   1.321   8.721  0.00  0.00    -0.047 A 
ATOM     31  C   UNL     1      -5.030   0.548   9.527  0.00  0.00    +0.007 A 
ATOM     32  C   UNL     1      -4.173   1.152  10.426  0.00  0.00    +0.046 A 
ATOM     33  C   UNL     1      -4.129   2.535  10.520  0.00  0.00    +0.120 A 
ATOM     34  C   UNL     1      -4.948   3.309   9.710  0.00  0.00    +0.046 A 
ATOM     35  C   UNL     1      -5.800   2.700   8.809  0.00  0.00    +0.007 A 
BRANCH  33  36
ATOM     36  O   UNL     1      -3.287   3.131  11.405  0.00  0.00    -0.495 OA
ATOM     37  C   UNL     1      -3.296   4.560  11.447  0.00  0.00    +0.277 C 
ENDBRANCH  33  36
ENDBRANCH  29  30
ENDBRANCH  28  29
ENDBRANCH  11  28
TORSDOF 9
