REMARK  Name = ZINC39595776
REMARK  9 active torsions:
REMARK  status: ('A' for Active; 'I' for Inactive)
REMARK    1  A    between atoms: C_1  and  C_2
REMARK    2  A    between atoms: C_2  and  C_4
REMARK    3  A    between atoms: C_2  and  O_32
REMARK    4  A    between atoms: C_4  and  N_5
REMARK    5  A    between atoms: C_6  and  C_8
REMARK    6  A    between atoms: C_19  and  C_21
REMARK    7  A    between atoms: C_24  and  O_27
REMARK    8  A    between atoms: O_27  and  C_28
REMARK    9  A    between atoms: O_32  and  C_33
REMARK                            x       y       z     vdW  Elec       q    Type
REMARK                         _______ _______ _______ _____ _____    ______ ____
ROOT
ATOM      1  C   UNL     1       0.910  -3.881  -2.325  0.00  0.00    +0.100 C 
ATOM      2  C   UNL     1       1.524  -4.503  -1.050  0.00  0.00    +0.121 C 
ATOM      3  N   UNL     1       2.186  -5.743  -1.520  0.00  0.00    -0.296 N 
ATOM      4  C   UNL     1       2.792  -5.368  -2.820  0.00  0.00    +0.115 C 
ATOM      5  C   UNL     1       1.745  -4.450  -3.484  0.00  0.00    -0.004 C 
ATOM      6  C   UNL     1       0.858  -5.258  -4.427  0.00  0.00    -0.010 C 
ATOM      7  C   UNL     1       1.700  -5.766  -5.601  0.00  0.00    -0.082 C 
ATOM      8  N   UNL     1       2.292  -4.625  -6.310  0.00  0.00    +0.379 N 
ATOM      9  C   UNL     1       3.216  -3.908  -5.423  0.00  0.00    -0.082 C 
ATOM     10  C   UNL     1       2.438  -3.322  -4.241  0.00  0.00    -0.010 C 
ATOM     11  C   UNL     1       2.227  -6.942  -0.905  0.00  0.00    +0.247 C 
ATOM     12  O   UNL     1       1.587  -7.125   0.112  0.00  0.00    -0.270 OA
ATOM     13  H   UNL     1       2.796  -4.958  -7.119  0.00  0.00    -0.086 HD
ATOM     14  H   UNL     1       1.560  -3.999  -6.609  0.00  0.00    -0.086 HD
ENDROOT
BRANCH  11  15
ATOM     15  C   UNL     1       3.050  -8.031  -1.466  0.00  0.00    +0.037 A 
ATOM     16  C   UNL     1       4.150  -7.733  -2.274  0.00  0.00    +0.016 A 
ATOM     17  C   UNL     1       4.916  -8.752  -2.795  0.00  0.00    +0.047 A 
ATOM     18  C   UNL     1       4.595 -10.076  -2.518  0.00  0.00    +0.130 A 
ATOM     19  C   UNL     1       3.501 -10.377  -1.715  0.00  0.00    +0.047 A 
ATOM     20  C   UNL     1       2.734  -9.363  -1.186  0.00  0.00    +0.016 A 
BRANCH  18  21
ATOM     21  O   UNL     1       5.351 -11.078  -3.035  0.00  0.00    -0.406 OA
BRANCH  21  22
ATOM     22  C   UNL     1       4.965 -12.415  -2.711  0.00  0.00    +0.575 C 
ATOM     23  F   UNL     1       3.665 -12.650  -3.171  0.00  0.00    -0.133 F 
ATOM     24  F   UNL     1       5.846 -13.315  -3.320  0.00  0.00    -0.133 F 
ATOM     25  F   UNL     1       5.007 -12.589  -1.323  0.00  0.00    -0.133 F 
ENDBRANCH  21  22
ENDBRANCH  18  21
ENDBRANCH  11  15
BRANCH   1  27
ATOM     26  N   UNL     1       0.097  -1.615  -2.891  0.00  0.00    -0.312 N 
ATOM     27  C   UNL     1       1.026  -2.379  -2.283  0.00  0.00    +0.218 C 
ATOM     28  O   UNL     1       1.954  -1.858  -1.703  0.00  0.00    -0.275 OA
ATOM     29  H   UNL     1      -0.646  -2.032  -3.356  0.00  0.00    +0.149 HD
BRANCH  26  30
ATOM     30  C   UNL     1       0.209  -0.155  -2.851  0.00  0.00    +0.148 C 
BRANCH  30  32
ATOM     31  C   UNL     1      -0.781   1.986  -3.676  0.00  0.00    +0.053 C 
ATOM     32  C   UNL     1      -0.964   0.468  -3.611  0.00  0.00    +0.187 C 
BRANCH  32  33
ATOM     33  O   UNL     1      -2.185   0.164  -2.935  0.00  0.00    -0.488 OA
BRANCH  33  34
ATOM     34  C   UNL     1      -3.321   0.168  -3.681  0.00  0.00    +0.121 A 
ATOM     35  C   UNL     1      -3.249   0.354  -5.054  0.00  0.00    +0.048 A 
ATOM     36  C   UNL     1      -4.405   0.357  -5.811  0.00  0.00    +0.042 A 
ATOM     37  C   UNL     1      -5.634   0.176  -5.201  0.00  0.00    +0.124 A 
ATOM     38  C   UNL     1      -5.707  -0.009  -3.831  0.00  0.00    +0.042 A 
ATOM     39  C   UNL     1      -4.553  -0.020  -3.072  0.00  0.00    +0.048 A 
ATOM     40  F   UNL     1      -6.763   0.180  -5.942  0.00  0.00    -0.205 F 
ENDBRANCH  33  34
ENDBRANCH  32  33
ENDBRANCH  30  32
ENDBRANCH  26  30
ENDBRANCH   1  27
TORSDOF 8
