REMARK  Name = ZINC14545030
REMARK  5 active torsions:
REMARK  status: ('A' for Active; 'I' for Inactive)
REMARK    1  A    between atoms: C_1  and  C_2
REMARK    2  A    between atoms: C_2  and  C_4
REMARK    3  A    between atoms: C_4  and  O_5
REMARK    4  A    between atoms: O_5  and  C_6
REMARK    5  A    between atoms: C_13  and  C_22
REMARK                            x       y       z     vdW  Elec       q    Type
REMARK                         _______ _______ _______ _____ _____    ______ ____
ROOT
ATOM      1  C   UNL     1      -3.238  -1.300   0.010  0.00  0.00    +0.142 A 
ATOM      2  C   UNL     1      -4.521  -0.786   0.019  0.00  0.00    +0.047 A 
ATOM      3  C   UNL     1      -5.604  -1.646   0.019  0.00  0.00    +0.004 A 
ATOM      4  C   UNL     1      -5.403  -3.010   0.009  0.00  0.00    +0.006 A 
ATOM      5  C   UNL     1      -4.118  -3.539  -0.001  0.00  0.00    -0.016 A 
ATOM      6  C   UNL     1      -3.033  -2.683  -0.004  0.00  0.00    +0.074 A 
ATOM      7  N   UNL     1      -1.716  -3.151  -0.001  0.00  0.00    -0.334 N 
ATOM      8  C   UNL     1      -1.603  -4.480  -0.602  0.00  0.00    +0.107 C 
ATOM      9  C   UNL     1      -2.499  -5.460   0.158  0.00  0.00    +0.029 C 
ATOM     10  C   UNL     1      -3.972  -5.032  -0.017  0.00  0.00    +0.049 C 
ATOM     11  C   UNL     1      -4.361  -5.590  -1.367  0.00  0.00    -0.023 C 
ATOM     12  C   UNL     1      -3.555  -6.564  -1.710  0.00  0.00    -0.030 C 
ATOM     13  C   UNL     1      -2.516  -6.800  -0.632  0.00  0.00    +0.033 C 
ATOM     14  H   UNL     1      -1.100  -2.494  -0.457  0.00  0.00    +0.147 HD
ENDROOT
BRANCH   8  15
ATOM     15  C   UNL     1      -0.172  -4.946  -0.528  0.00  0.00    -0.002 A 
ATOM     16  C   UNL     1       0.754  -4.543   0.357  0.00  0.00    +0.089 A 
ATOM     17  N   UNL     1       1.938  -5.186   0.119  0.00  0.00    -0.360 N 
ATOM     18  H   UNL     1       2.752  -5.061   0.631  0.00  0.00    +0.165 HD
ATOM     19  C   UNL     1       1.802  -6.032  -0.959  0.00  0.00    +0.047 A 
ATOM     20  C   UNL     1       0.475  -5.919  -1.411  0.00  0.00    +0.005 A 
ATOM     21  C   UNL     1       0.046  -6.671  -2.506  0.00  0.00    +0.010 A 
ATOM     22  C   UNL     1       0.918  -7.514  -3.134  0.00  0.00    +0.001 A 
ATOM     23  C   UNL     1       2.229  -7.630  -2.692  0.00  0.00    +0.002 A 
ATOM     24  C   UNL     1       2.674  -6.897  -1.613  0.00  0.00    +0.026 A 
ENDBRANCH   8  15
BRANCH   1  25
ATOM     25  O   UNL     1      -2.170  -0.457   0.010  0.00  0.00    -0.486 OA
BRANCH  25  26
ATOM     26  C   UNL     1      -2.451   0.944   0.019  0.00  0.00    +0.259 C 
BRANCH  26  28
ATOM     27  C   UNL     1      -1.176   3.222   0.025  0.00  0.00    +0.042 C 
ATOM     28  C   UNL     1      -1.156   1.715   0.017  0.00  0.00    -0.043 C 
ATOM     29  C   UNL     1      -0.013   1.076   0.008  0.00  0.00    +0.011 C 
ENDBRANCH  26  28
ENDBRANCH  25  26
ENDBRANCH   1  25
TORSDOF 4
