REMARK  Name = ZINC20180746
REMARK  9 active torsions:
REMARK  status: ('A' for Active; 'I' for Inactive)
REMARK    1  A    between atoms: C_1  and  N_2
REMARK    2  A    between atoms: N_2  and  C_3
REMARK    3  A    between atoms: N_2  and  C_29
REMARK    4  A    between atoms: C_3  and  C_4
REMARK    5  A    between atoms: C_4  and  C_5
REMARK    6  A    between atoms: C_5  and  N_6
REMARK    7  A    between atoms: C_7  and  C_9
REMARK    8  A    between atoms: C_9  and  N_10
REMARK    9  A    between atoms: C_19  and  C_20
REMARK                            x       y       z     vdW  Elec       q    Type
REMARK                         _______ _______ _______ _____ _____    ______ ____
ROOT
ATOM      1  N   UNL     1      -0.796   0.242 -11.067  0.00  0.00    -0.253 N 
ATOM      2  C   UNL     1      -1.828  -0.595 -11.513  0.00  0.00    +0.080 A 
ATOM      3  C   UNL     1      -2.294  -1.616 -10.696  0.00  0.00    +0.027 A 
ATOM      4  C   UNL     1      -3.316  -2.437 -11.134  0.00  0.00    +0.002 A 
ATOM      5  C   UNL     1      -3.880  -2.241 -12.382  0.00  0.00    +0.004 A 
ATOM      6  C   UNL     1      -3.424  -1.224 -13.199  0.00  0.00    +0.048 A 
ATOM      7  C   UNL     1      -2.399  -0.398 -12.768  0.00  0.00    +0.150 A 
ATOM      8  O   UNL     1      -1.945   0.606 -13.569  0.00  0.00    -0.449 OA
ATOM      9  C   UNL     1      -1.381   1.676 -12.930  0.00  0.00    +0.191 C 
ATOM     10  C   UNL     1      -1.580   2.941 -13.361  0.00  0.00    +0.062 C 
ATOM     11  C   UNL     1      -0.545   1.387 -11.746  0.00  0.00    +0.287 C 
ATOM     12  O   UNL     1       0.335   2.150 -11.394  0.00  0.00    -0.266 OA
ENDROOT
BRANCH  10  13
ATOM     13  C   UNL     1      -2.287   3.184 -14.628  0.00  0.00    +0.014 A 
ATOM     14  C   UNL     1      -2.430   2.152 -15.562  0.00  0.00    +0.011 A 
ATOM     15  C   UNL     1      -3.098   2.386 -16.745  0.00  0.00    +0.001 A 
ATOM     16  C   UNL     1      -3.617   3.640 -17.017  0.00  0.00    +0.003 A 
ATOM     17  C   UNL     1      -3.476   4.668 -16.103  0.00  0.00    +0.039 A 
ATOM     18  C   UNL     1      -2.814   4.450 -14.909  0.00  0.00    +0.131 A 
ATOM     19  F   UNL     1      -2.676   5.455 -14.017  0.00  0.00    -0.205 F 
ENDBRANCH  10  13
BRANCH   1  20
ATOM     20  C   UNL     1       0.001  -0.118  -9.892  0.00  0.00    +0.209 C 
BRANCH  20  22
ATOM     21  N   UNL     1      -0.081   0.249  -7.447  0.00  0.00    -0.314 N 
ATOM     22  C   UNL     1      -0.642   0.454  -8.655  0.00  0.00    +0.231 C 
ATOM     23  O   UNL     1      -1.666   1.098  -8.746  0.00  0.00    -0.274 OA
ATOM     24  H   UNL     1       0.848  -0.336  -7.364  0.00  0.00    +0.149 HD
BRANCH  21  25
ATOM     25  C   UNL     1      -0.706   0.804  -6.244  0.00  0.00    +0.102 C 
BRANCH  25  26
ATOM     26  C   UNL     1       0.126   0.428  -5.016  0.00  0.00    +0.000 C 
BRANCH  26  27
ATOM     27  C   UNL     1      -0.527   1.009  -3.760  0.00  0.00    -0.077 C 
BRANCH  27  29
ATOM     28  C   UNL     1       1.591   1.295  -2.621  0.00  0.00    -0.096 C 
ATOM     29  N   UNL     1       0.273   0.648  -2.582  0.00  0.00    +0.380 N 
ATOM     30  H   UNL     1       0.430  -0.441  -2.600  0.00  0.00    -0.082 HD
BRANCH  29  31
ATOM     31  C   UNL     1      -0.440   0.980  -1.341  0.00  0.00    -0.069 C 
ATOM     32  C   UNL     1       0.365   0.478  -0.141  0.00  0.00    -0.015 C 
ATOM     33  C   UNL     1      -0.377   0.824   1.152  0.00  0.00    -0.002 C 
ATOM     34  C   UNL     1      -0.549   2.341   1.251  0.00  0.00    -0.000 C 
ATOM     35  C   UNL     1      -1.354   2.843   0.051  0.00  0.00    -0.002 C 
ATOM     36  C   UNL     1      -0.612   2.497  -1.242  0.00  0.00    -0.015 C 
ENDBRANCH  29  31
ENDBRANCH  27  29
ENDBRANCH  26  27
ENDBRANCH  25  26
ENDBRANCH  21  25
ENDBRANCH  20  22
ENDBRANCH   1  20
TORSDOF 8
