REMARK  Name = ZINC64857614
REMARK  23 active torsions:
REMARK  status: ('A' for Active; 'I' for Inactive)
REMARK    1  A    between atoms: C_1  and  C_2
REMARK    2  A    between atoms: C_2  and  C_3
REMARK    3  A    between atoms: C_3  and  C_4
REMARK    4  A    between atoms: C_4  and  C_5
REMARK    5  A    between atoms: C_5  and  C_6
REMARK    6  A    between atoms: C_7  and  C_8
REMARK    7  A    between atoms: C_10  and  C_16
REMARK    8  A    between atoms: C_16  and  C_17
REMARK    9  A    between atoms: C_18  and  C_19
REMARK   10  A    between atoms: C_19  and  C_20
REMARK   11  A    between atoms: C_20  and  C_21
REMARK   12  A    between atoms: C_21  and  C_22
REMARK   13  A    between atoms: N_24  and  C_25
REMARK   14  A    between atoms: C_25  and  C_26
REMARK   15  A    between atoms: C_26  and  C_27
REMARK   16  A    between atoms: C_27  and  C_28
REMARK   17  A    between atoms: C_28  and  C_29
REMARK   18  A    between atoms: C_29  and  N_30
REMARK   19  A    between atoms: C_31  and  C_33
REMARK   20  A    between atoms: C_33  and  C_34
REMARK   21  A    between atoms: C_34  and  C_35
REMARK   22  A    between atoms: C_35  and  C_36
REMARK   23  A    between atoms: C_36  and  C_37
REMARK                            x       y       z     vdW  Elec       q    Type
REMARK                         _______ _______ _______ _____ _____    ______ ____
ROOT
ATOM      1  C   UNL     1       2.114  -8.500   0.424  0.00  0.00    +0.213 C 
ATOM      2  O   UNL     1       2.476  -9.357   1.202  0.00  0.00    -0.276 OA
ATOM      3  N   UNL     1       2.971  -8.024  -0.501  0.00  0.00    -0.315 N 
ATOM      4  H   UNL     1       2.681  -7.338  -1.123  0.00  0.00    +0.149 HD
ENDROOT
BRANCH   3   5
ATOM      5  C   UNL     1       4.340  -8.540  -0.566  0.00  0.00    +0.104 C 
BRANCH   5   6
ATOM      6  C   UNL     1       5.097  -7.837  -1.694  0.00  0.00    +0.019 C 
BRANCH   6   7
ATOM      7  C   UNL     1       6.527  -8.377  -1.762  0.00  0.00    +0.003 C 
BRANCH   7   8
ATOM      8  C   UNL     1       7.285  -7.674  -2.890  0.00  0.00    +0.019 C 
BRANCH   8   9
ATOM      9  C   UNL     1       8.715  -8.213  -2.958  0.00  0.00    +0.104 C 
BRANCH   9  10
ATOM     10  N   UNL     1       9.440  -7.540  -4.039  0.00  0.00    -0.315 N 
ATOM     11  C   UNL     1      10.726  -7.857  -4.286  0.00  0.00    +0.213 C 
ATOM     12  O   UNL     1      11.284  -8.699  -3.615  0.00  0.00    -0.276 OA
ATOM     13  H   UNL     1       8.994  -6.867  -4.576  0.00  0.00    +0.149 HD
BRANCH  11  14
ATOM     14  C   UNL     1      11.472  -7.164  -5.398  0.00  0.00    +0.096 C 
BRANCH  14  15
ATOM     15  C   UNL     1      12.902  -7.704  -5.466  0.00  0.00    +0.009 C 
BRANCH  15  16
ATOM     16  C   UNL     1      13.660  -7.001  -6.594  0.00  0.00    +0.002 C 
BRANCH  16  17
ATOM     17  C   UNL     1      15.090  -7.540  -6.662  0.00  0.00    +0.016 C 
BRANCH  17  18
ATOM     18  C   UNL     1      15.847  -6.837  -7.790  0.00  0.00    +0.069 C 
ATOM     19  C   UNL     1      17.274  -7.318  -7.871  0.00  0.00    +0.108 C 
ATOM     20  C   UNL     1      17.303  -8.656  -8.671  0.00  0.00    +0.105 C 
ATOM     21  C   UNL     1      16.711  -8.323 -10.039  0.00  0.00    +0.093 C 
ATOM     22  S   UNL     1      15.214  -7.363  -9.451  0.00  0.00    -0.154 S 
ATOM     23  N   UNL     1      18.701  -8.991  -8.515  0.00  0.00    -0.294 N 
ATOM     24  C   UNL     1      19.054  -8.513  -7.284  0.00  0.00    +0.300 C 
ATOM     25  O   UNL     1      20.079  -8.825  -6.709  0.00  0.00    -0.253 OA
ATOM     26  N   UNL     1      18.124  -7.663  -6.770  0.00  0.00    -0.294 N 
ATOM     27  H   UNL     1      19.267  -9.457  -9.149  0.00  0.00    +0.151 HD
ATOM     28  H   UNL     1      18.057  -7.354  -5.853  0.00  0.00    +0.151 HD
ENDBRANCH  17  18
ENDBRANCH  16  17
ENDBRANCH  15  16
ENDBRANCH  14  15
ENDBRANCH  11  14
ENDBRANCH   9  10
ENDBRANCH   8   9
ENDBRANCH   7   8
ENDBRANCH   6   7
ENDBRANCH   5   6
ENDBRANCH   3   5
BRANCH   1  29
ATOM     29  C   UNL     1       0.705  -7.969   0.491  0.00  0.00    +0.096 C 
BRANCH  29  30
ATOM     30  C   UNL     1      -0.052  -8.672   1.619  0.00  0.00    +0.013 C 
BRANCH  30  31
ATOM     31  C   UNL     1      -1.482  -8.132   1.687  0.00  0.00    +0.027 C 
BRANCH  31  33
ATOM     32  C   UNL     1      -2.820  -8.118   3.729  0.00  0.00    -0.030 C 
ATOM     33  C   UNL     1      -2.228  -8.825   2.798  0.00  0.00    -0.031 C 
BRANCH  32  34
ATOM     34  C   UNL     1      -2.903  -6.619   3.599  0.00  0.00    +0.039 C 
BRANCH  34  37
ATOM     35  C   UNL     1      -4.187  -4.013   2.383  0.00  0.00    +0.007 C 
ATOM     36  C   UNL     1      -4.477  -4.684   3.523  0.00  0.00    +0.006 C 
ATOM     37  C   UNL     1      -4.356  -6.172   3.772  0.00  0.00    +0.049 C 
ATOM     38  C   UNL     1      -4.803  -6.390   5.196  0.00  0.00    -0.015 C 
ATOM     39  C   UNL     1      -5.144  -5.230   5.736  0.00  0.00    +0.047 C 
ATOM     40  C   UNL     1      -4.971  -4.125   4.785  0.00  0.00    +0.182 C 
ATOM     41  O   UNL     1      -5.200  -2.949   5.006  0.00  0.00    -0.288 OA
BRANCH  35  43
ATOM     42  C   UNL     1      -3.329  -4.070   0.117  0.00  0.00    -0.027 C 
ATOM     43  C   UNL     1      -3.701  -4.739   1.211  0.00  0.00    -0.004 C 
BRANCH  42  44
ATOM     44  C   UNL     1      -3.257  -2.565   0.143  0.00  0.00    +0.027 C 
BRANCH  44  45
ATOM     45  C   UNL     1      -1.873  -2.111  -0.325  0.00  0.00    +0.004 C 
BRANCH  45  46
ATOM     46  C   UNL     1      -1.801  -0.583  -0.299  0.00  0.00    +0.000 C 
BRANCH  46  48
ATOM     47  C   UNL     1      -0.344   1.398  -0.741  0.00  0.00    +0.004 C 
ATOM     48  C   UNL     1      -0.417  -0.130  -0.767  0.00  0.00    -0.003 C 
ENDBRANCH  46  48
ENDBRANCH  45  46
ENDBRANCH  44  45
ENDBRANCH  42  44
ENDBRANCH  35  43
ENDBRANCH  34  37
ENDBRANCH  32  34
ENDBRANCH  31  33
ENDBRANCH  30  31
ENDBRANCH  29  30
ENDBRANCH   1  29
TORSDOF 22
