REMARK  Name = ZINC16947778
REMARK  18 active torsions:
REMARK  status: ('A' for Active; 'I' for Inactive)
REMARK    1  A    between atoms: C_1  and  C_2
REMARK    2  A    between atoms: C_5  and  O_34
REMARK    3  A    between atoms: C_6  and  N_8
REMARK    4  A    between atoms: C_9  and  C_11
REMARK    5  A    between atoms: C_11  and  C_13
REMARK    6  A    between atoms: C_11  and  O_14
REMARK    7  A    between atoms: O_14  and  C_15
REMARK    8  A    between atoms: C_15  and  C_17
REMARK    9  A    between atoms: C_17  and  C_18
REMARK   10  A    between atoms: C_18  and  N_19
REMARK   11  A    between atoms: N_19  and  S_20
REMARK   12  A    between atoms: S_20  and  C_23
REMARK   13  A    between atoms: C_24  and  C_33
REMARK   14  A    between atoms: C_25  and  C_32
REMARK   15  A    between atoms: C_26  and  C_31
REMARK   16  A    between atoms: C_27  and  C_30
REMARK   17  A    between atoms: C_28  and  C_29
REMARK   18  A    between atoms: O_34  and  C_35
REMARK                            x       y       z     vdW  Elec       q    Type
REMARK                         _______ _______ _______ _____ _____    ______ ____
ROOT
ATOM      1  C   UNL     1      -7.848  -2.085  -0.588  0.00  0.00    +0.309 C 
ATOM      2  O   UNL     1      -7.494  -1.026  -1.049  0.00  0.00    -0.251 OA
ENDROOT
BRANCH   1   3
ATOM      3  O   UNL     1      -6.998  -2.810   0.156  0.00  0.00    -0.452 OA
BRANCH   3   4
ATOM      4  C   UNL     1      -5.670  -2.261   0.364  0.00  0.00    +0.259 C 
ATOM      5  C   UNL     1      -5.668  -1.395   1.625  0.00  0.00    +0.062 C 
BRANCH   4   7
ATOM      6  N   UNL     1      -3.377  -3.113   0.732  0.00  0.00    -0.280 N 
ATOM      7  C   UNL     1      -4.681  -3.386   0.526  0.00  0.00    +0.258 C 
ATOM      8  O   UNL     1      -5.058  -4.538   0.472  0.00  0.00    -0.271 OA
ATOM      9  H   UNL     1      -3.087  -2.195   0.854  0.00  0.00    +0.155 HD
BRANCH   6  15
ATOM     10  C   UNL     1      -2.136  -7.732  -0.408  0.00  0.00    +0.044 C 
ATOM     11  C   UNL     1      -1.812  -6.403   0.225  0.00  0.00    -0.048 A 
ATOM     12  C   UNL     1      -0.591  -6.215   0.846  0.00  0.00    +0.007 A 
ATOM     13  C   UNL     1      -0.288  -4.998   1.428  0.00  0.00    +0.048 A 
ATOM     14  C   UNL     1      -1.208  -3.963   1.390  0.00  0.00    +0.141 A 
ATOM     15  C   UNL     1      -2.440  -4.154   0.769  0.00  0.00    +0.076 A 
ATOM     16  C   UNL     1      -2.735  -5.376   0.182  0.00  0.00    +0.030 A 
BRANCH  14  17
ATOM     17  O   UNL     1      -0.912  -2.766   1.962  0.00  0.00    -0.493 OA
ATOM     18  C   UNL     1       0.368  -2.644   2.587  0.00  0.00    +0.277 C 
ENDBRANCH  14  17
ENDBRANCH   6  15
ENDBRANCH   4   7
ENDBRANCH   3   4
ENDBRANCH   1   3
BRANCH   1  19
ATOM     19  C   UNL     1      -9.244  -2.591  -0.846  0.00  0.00    +0.137 C 
BRANCH  19  20
ATOM     20  C   UNL     1      -9.999  -1.583  -1.714  0.00  0.00    +0.117 C 
BRANCH  20  21
ATOM     21  N   UNL     1     -11.356  -2.075  -1.965  0.00  0.00    -0.189 NA
ATOM     22  H   UNL     1     -11.576  -3.003  -1.789  0.00  0.00    +0.148 HD
BRANCH  21  23
ATOM     23  S   UNL     1     -12.515  -1.047  -2.551  0.00  0.00    +0.059 S 
ATOM     24  O   UNL     1     -13.698  -1.818  -2.712  0.00  0.00    -0.153 OA
ATOM     25  O   UNL     1     -12.470   0.119  -1.740  0.00  0.00    -0.153 OA
BRANCH  23  26
ATOM     26  C   UNL     1     -12.009  -0.558  -4.166  0.00  0.00    +0.112 A 
ATOM     27  C   UNL     1     -11.360   0.649  -4.351  0.00  0.00    -0.021 A 
ATOM     28  C   UNL     1     -10.960   1.031  -5.618  0.00  0.00    -0.043 A 
ATOM     29  C   UNL     1     -11.216   0.211  -6.701  0.00  0.00    -0.044 A 
ATOM     30  C   UNL     1     -11.868  -0.994  -6.516  0.00  0.00    -0.043 A 
ATOM     31  C   UNL     1     -12.265  -1.378  -5.249  0.00  0.00    -0.021 A 
ATOM     32  C   UNL     1     -12.977  -2.691  -5.048  0.00  0.00    +0.046 C 
ATOM     33  C   UNL     1     -12.148  -1.888  -7.697  0.00  0.00    +0.044 C 
ATOM     34  C   UNL     1     -10.783   0.629  -8.082  0.00  0.00    +0.044 C 
ATOM     35  C   UNL     1     -10.247   2.344  -5.819  0.00  0.00    +0.044 C 
ATOM     36  C   UNL     1     -11.086   1.546  -3.172  0.00  0.00    +0.046 C 
ENDBRANCH  23  26
ENDBRANCH  21  23
ENDBRANCH  20  21
ENDBRANCH  19  20
ENDBRANCH   1  19
TORSDOF 10
