REMARK  Name = ZINC13424097
REMARK  6 active torsions:
REMARK  status: ('A' for Active; 'I' for Inactive)
REMARK    1  A    between atoms: C_1  and  C_2
REMARK    2  A    between atoms: C_2  and  N_3
REMARK    3  A    between atoms: C_7  and  C_19
REMARK    4  A    between atoms: N_11  and  C_12
REMARK    5  A    between atoms: N_21  and  C_22
REMARK    6  A    between atoms: C_25  and  C_28
REMARK                            x       y       z     vdW  Elec       q    Type
REMARK                         _______ _______ _______ _____ _____    ______ ____
ROOT
ATOM      1  N   UNL     1      -0.453  12.280  -0.061  0.00  0.00    -0.251 N 
ATOM      2  C   UNL     1      -0.951  11.448  -0.967  0.00  0.00    +0.223 C 
ATOM      3  O   UNL     1      -1.534  11.955  -1.902  0.00  0.00    -0.275 OA
ATOM      4  C   UNL     1      -0.873   9.958  -0.963  0.00  0.00    +0.120 C 
ATOM      5  C   UNL     1       0.328   9.447  -0.167  0.00  0.00    +0.149 C 
ATOM      6  S   UNL     1       0.271  10.180   1.494  0.00  0.00    -0.077 S 
ATOM      7  C   UNL     1       0.312  11.883   1.017  0.00  0.00    +0.164 C 
ATOM      8  N   UNL     1       1.050  12.747   1.673  0.00  0.00    -0.226 NA
ENDROOT
BRANCH   8   9
ATOM      9  C   UNL     1       1.803  12.335   2.741  0.00  0.00    +0.067 A 
ATOM     10  C   UNL     1       1.247  11.492   3.706  0.00  0.00    +0.029 A 
ATOM     11  C   UNL     1       2.011  11.077   4.776  0.00  0.00    +0.022 A 
ATOM     12  C   UNL     1       3.324  11.501   4.900  0.00  0.00    +0.041 A 
ATOM     13  C   UNL     1       3.878  12.341   3.949  0.00  0.00    +0.022 A 
ATOM     14  C   UNL     1       3.126  12.759   2.871  0.00  0.00    +0.029 A 
ATOM     15 CL   UNL     1       4.276  10.980   6.254  0.00  0.00    -0.084 Cl
ENDBRANCH   8   9
BRANCH   5  16
ATOM     16  C   UNL     1       0.263   7.946  -0.060  0.00  0.00    +0.231 C 
ATOM     17  O   UNL     1      -0.812   7.384  -0.053  0.00  0.00    -0.274 OA
ATOM     18  N   UNL     1       1.400   7.226   0.026  0.00  0.00    -0.285 N 
ATOM     19  H   UNL     1       2.255   7.678   0.098  0.00  0.00    +0.155 HD
BRANCH  18  20
ATOM     20  C   UNL     1       1.346   5.833   0.014  0.00  0.00    +0.033 A 
ATOM     21  C   UNL     1       0.372   5.183  -0.736  0.00  0.00    +0.024 A 
ATOM     22  C   UNL     1       0.316   3.808  -0.751  0.00  0.00    +0.017 A 
ATOM     23  C   UNL     1       1.239   3.064  -0.010  0.00  0.00    +0.063 A 
ATOM     24  C   UNL     1       2.214   3.721   0.748  0.00  0.00    +0.017 A 
ATOM     25  C   UNL     1       2.267   5.097   0.753  0.00  0.00    +0.024 A 
BRANCH  23  26
ATOM     26  C   UNL     1       1.182   1.591  -0.023  0.00  0.00    +0.387 C 
ATOM     27  O   UNL     1       0.332   1.022  -0.677  0.00  0.00    -0.241 OA
ATOM     28  O   UNL     1       2.073   0.876   0.692  0.00  0.00    -0.241 OA
ENDBRANCH  23  26
ENDBRANCH  18  20
ENDBRANCH   5  16
BRANCH   1  30
ATOM     29  C   UNL     1      -2.025  14.059   0.525  0.00  0.00    +0.025 C 
ATOM     30  C   UNL     1      -0.732  13.710  -0.215  0.00  0.00    +0.112 C 
ENDBRANCH   1  30
TORSDOF 5
