REMARK  Name = ZINC06247645
REMARK  5 active torsions:
REMARK  status: ('A' for Active; 'I' for Inactive)
REMARK    1  A    between atoms: C_1  and  O_2
REMARK    2  A    between atoms: O_2  and  C_3
REMARK    3  A    between atoms: C_3  and  C_5
REMARK    4  A    between atoms: C_6  and  N_24
REMARK    5  A    between atoms: C_10  and  C_14
REMARK                            x       y       z     vdW  Elec       q    Type
REMARK                         _______ _______ _______ _____ _____    ______ ____
ROOT
ATOM      1  C   UNL     1       1.225  -0.641  -0.013  0.00  0.00    +0.119 A 
ATOM      2  C   UNL     1       0.002  -0.004   0.002  0.00  0.00    +0.055 A 
ATOM      3  C   UNL     1      -0.018   1.450   0.010  0.00  0.00    +0.029 A 
ATOM      4  C   UNL     1      -1.137   2.320   0.031  0.00  0.00    +0.014 A 
ATOM      5  C   UNL     1      -0.925   3.679   0.030  0.00  0.00    +0.024 A 
ATOM      6  C   UNL     1       0.365   4.188   0.020  0.00  0.00    +0.049 A 
ATOM      7  N   UNL     1       1.404   3.376   0.006  0.00  0.00    -0.244 NA
ATOM      8  C   UNL     1       1.253   2.068   0.001  0.00  0.00    +0.111 A 
ATOM      9  S   UNL     1       2.392   0.706  -0.017  0.00  0.00    -0.060 S 
ENDROOT
BRANCH   6  10
ATOM     10  C   UNL     1       0.581   5.679   0.025  0.00  0.00    +0.014 C 
ATOM     11  C   UNL     1      -0.345   6.325   1.057  0.00  0.00    +0.016 C 
ATOM     12  C   UNL     1      -0.126   7.840   1.062  0.00  0.00    -0.010 C 
ATOM     13  C   UNL     1       1.330   8.143   1.423  0.00  0.00    +0.007 C 
ATOM     14  C   UNL     1       2.256   7.497   0.391  0.00  0.00    -0.010 C 
ATOM     15  C   UNL     1       2.037   5.982   0.386  0.00  0.00    +0.016 C 
ATOM     16  C   UNL     1       1.946   8.062  -0.997  0.00  0.00    +0.007 C 
ATOM     17  C   UNL     1       0.491   7.758  -1.357  0.00  0.00    -0.010 C 
ATOM     18  C   UNL     1      -0.436   8.404  -0.325  0.00  0.00    +0.007 C 
ATOM     19  C   UNL     1       0.272   6.244  -1.362  0.00  0.00    +0.016 C 
ENDBRANCH   6  10
BRANCH   2  20
ATOM     20  N   UNL     1      -1.179  -0.731   0.010  0.00  0.00    -0.356 N 
ATOM     21  H   UNL     1      -2.032  -0.271   0.021  0.00  0.00    +0.142 HD
ATOM     22  H   UNL     1      -1.151  -1.701   0.004  0.00  0.00    +0.142 HD
ENDBRANCH   2  20
BRANCH   1  23
ATOM     23  C   UNL     1       1.489  -2.031  -0.024  0.00  0.00    +0.348 C 
ATOM     24  O   UNL     1       0.568  -2.826  -0.019  0.00  0.00    -0.244 OA
BRANCH  23  26
ATOM     25  C   UNL     1       2.957  -3.891  -0.048  0.00  0.00    +0.280 C 
ATOM     26  O   UNL     1       2.764  -2.475  -0.038  0.00  0.00    -0.464 OA
ENDBRANCH  23  26
ENDBRANCH   1  23
TORSDOF 4
