REMARK  Name = ZINC07438443
REMARK  13 active torsions:
REMARK  status: ('A' for Active; 'I' for Inactive)
REMARK    1  A    between atoms: C_1  and  C_2
REMARK    2  A    between atoms: C_4  and  C_27
REMARK    3  A    between atoms: C_5  and  C_9
REMARK    4  A    between atoms: C_7  and  C_8
REMARK    5  A    between atoms: C_9  and  C_11
REMARK    6  A    between atoms: C_11  and  O_12
REMARK    7  A    between atoms: O_12  and  C_13
REMARK    8  A    between atoms: C_13  and  C_15
REMARK    9  A    between atoms: C_15  and  C_16
REMARK   10  A    between atoms: C_18  and  C_24
REMARK   11  A    between atoms: C_21  and  O_22
REMARK   12  A    between atoms: O_22  and  C_23
REMARK   13  A    between atoms: C_24  and  C_26
REMARK                            x       y       z     vdW  Elec       q    Type
REMARK                         _______ _______ _______ _____ _____    ______ ____
ROOT
ATOM      1  C   UNL     1       3.704   3.153  -1.319  0.00  0.00    +0.312 C 
ATOM      2  O   UNL     1       3.053   2.673  -2.216  0.00  0.00    -0.250 OA
ENDROOT
BRANCH   1   3
ATOM      3  O   UNL     1       4.715   3.991  -1.597  0.00  0.00    -0.456 OA
BRANCH   3   4
ATOM      4  C   UNL     1       4.968   4.276  -2.999  0.00  0.00    +0.311 C 
BRANCH   4   5
ATOM      5  C   UNL     1       6.130   5.228  -3.116  0.00  0.00    +0.201 C 
ATOM      6  O   UNL     1       6.689   5.628  -2.117  0.00  0.00    -0.288 OA
BRANCH   5  11
ATOM      7  C   UNL     1       7.909   6.968  -8.299  0.00  0.00    +0.044 C 
ATOM      8  C   UNL     1       7.443   6.511  -6.940  0.00  0.00    -0.047 A 
ATOM      9  C   UNL     1       8.000   7.064  -5.800  0.00  0.00    +0.007 A 
ATOM     10  C   UNL     1       7.575   6.656  -4.553  0.00  0.00    -0.040 A 
ATOM     11  C   UNL     1       6.586   5.673  -4.443  0.00  0.00    +0.024 A 
ATOM     12  C   UNL     1       6.028   5.120  -5.599  0.00  0.00    +0.015 A 
ATOM     13  C   UNL     1       6.460   5.543  -6.839  0.00  0.00    -0.047 A 
ATOM     14  C   UNL     1       5.860   4.948  -8.087  0.00  0.00    +0.044 C 
ATOM     15  C   UNL     1       8.179   7.263  -3.313  0.00  0.00    +0.044 C 
ENDBRANCH   5  11
ENDBRANCH   4   5
ENDBRANCH   3   4
ENDBRANCH   1   3
BRANCH   1  16
ATOM     16  C   UNL     1       3.382   2.811   0.113  0.00  0.00    +0.159 C 
BRANCH  16  17
ATOM     17  C   UNL     1       2.215   1.858   0.152  0.00  0.00    +0.006 A 
ATOM     18  C   UNL     1       0.938   2.341   0.325  0.00  0.00    +0.019 A 
ATOM     19  C   UNL     1      -0.143   1.452   0.360  0.00  0.00    +0.018 A 
ATOM     20  C   UNL     1       0.083   0.077   0.214  0.00  0.00    +0.015 A 
ATOM     21  C   UNL     1       1.355  -0.392   0.048  0.00  0.00    +0.046 A 
ATOM     22  C   UNL     1       2.428   0.491   0.013  0.00  0.00    +0.124 A 
BRANCH  19  23
ATOM     23  C   UNL     1      -1.509   1.958   0.544  0.00  0.00    +0.160 C 
ATOM     24  O   UNL     1      -1.703   3.150   0.665  0.00  0.00    -0.292 OA
ATOM     25  C   UNL     1      -2.670   0.998   0.582  0.00  0.00    +0.091 C 
ENDBRANCH  19  23
BRANCH  22  26
ATOM     26  O   UNL     1       3.688   0.018  -0.158  0.00  0.00    -0.495 OA
ATOM     27  C   UNL     1       3.836  -1.397  -0.294  0.00  0.00    +0.277 C 
ENDBRANCH  22  26
ENDBRANCH  16  17
ENDBRANCH   1  16
TORSDOF 8
