REMARK  Name = ZINC09463456
REMARK  9 active torsions:
REMARK  status: ('A' for Active; 'I' for Inactive)
REMARK    1  A    between atoms: C_3  and  C_6
REMARK    2  A    between atoms: C_6  and  N_7
REMARK    3  A    between atoms: N_7  and  S_8
REMARK    4  A    between atoms: S_8  and  C_11
REMARK    5  A    between atoms: C_14  and  C_17
REMARK    6  A    between atoms: N_19  and  C_20
REMARK    7  A    between atoms: C_20  and  C_21
REMARK    8  A    between atoms: C_21  and  C_23
REMARK    9  A    between atoms: C_21  and  N_59
REMARK                            x       y       z     vdW  Elec       q    Type
REMARK                         _______ _______ _______ _____ _____    ______ ____
ROOT
ATOM      1  C   UNL     1       1.009   3.894   0.884  0.00  0.00    +0.244 C 
ATOM      2  O   UNL     1       0.063   4.614   1.137  0.00  0.00    -0.270 OA
ATOM      3  N   UNL     1       2.189   4.434   0.520  0.00  0.00    -0.312 N 
ATOM      4  H   UNL     1       2.944   3.859   0.318  0.00  0.00    +0.149 HD
ENDROOT
BRANCH   1   8
ATOM      5  C   UNL     1       0.595  -0.326   1.145  0.00  0.00    +0.105 A 
ATOM      6  C   UNL     1      -0.483   0.491   1.433  0.00  0.00    +0.029 A 
ATOM      7  C   UNL     1      -0.356   1.863   1.351  0.00  0.00    +0.015 A 
ATOM      8  C   UNL     1       0.865   2.425   0.974  0.00  0.00    +0.037 A 
ATOM      9  C   UNL     1       1.949   1.595   0.685  0.00  0.00    +0.015 A 
ATOM     10  C   UNL     1       1.808   0.226   0.771  0.00  0.00    +0.029 A 
BRANCH   5  11
ATOM     11  S   UNL     1       0.424  -2.076   1.254  0.00  0.00    +0.059 S 
ATOM     12  O   UNL     1       1.728  -2.600   1.463  0.00  0.00    -0.153 OA
ATOM     13  O   UNL     1      -0.650  -2.324   2.151  0.00  0.00    -0.153 OA
BRANCH  11  14
ATOM     14  N   UNL     1      -0.069  -2.613  -0.233  0.00  0.00    -0.183 NA
ATOM     15  H   UNL     1      -0.944  -3.020  -0.337  0.00  0.00    +0.148 HD
BRANCH  14  16
ATOM     16  C   UNL     1       0.816  -2.474  -1.392  0.00  0.00    +0.180 C 
BRANCH  16  19
ATOM     17  C   UNL     1      -0.746  -4.097  -4.309  0.00  0.00    +0.041 A 
ATOM     18  C   UNL     1      -0.558  -2.976  -3.468  0.00  0.00    +0.046 A 
ATOM     19  C   UNL     1       0.315  -3.346  -2.514  0.00  0.00    +0.120 A 
ATOM     20  O   UNL     1       0.668  -4.623  -2.735  0.00  0.00    -0.466 OA
ATOM     21  C   UNL     1       0.023  -5.085  -3.819  0.00  0.00    +0.195 A 
ENDBRANCH  16  19
ENDBRANCH  14  16
ENDBRANCH  11  14
ENDBRANCH   5  11
ENDBRANCH   1   8
BRANCH   3  22
ATOM     22  C   UNL     1       2.332   5.889   0.430  0.00  0.00    +0.097 C 
BRANCH  22  23
ATOM     23  C   UNL     1       3.759   6.236   0.001  0.00  0.00    +0.016 C 
BRANCH  23  29
ATOM     24  C   UNL     1       4.458   6.025   2.309  0.00  0.00    -0.078 C 
ATOM     25  C   UNL     1       5.373   5.245   3.255  0.00  0.00    -0.019 C 
ATOM     26  C   UNL     1       6.834   5.516   2.883  0.00  0.00    -0.004 C 
ATOM     27  C   UNL     1       7.062   5.119   1.422  0.00  0.00    -0.019 C 
ATOM     28  C   UNL     1       6.098   5.903   0.529  0.00  0.00    -0.078 C 
ATOM     29  N   UNL     1       4.710   5.580   0.922  0.00  0.00    +0.387 N 
ATOM     30  H   UNL     1       4.577   4.563   0.869  0.00  0.00    -0.081 HD
ENDBRANCH  23  29
BRANCH  23  31
ATOM     31  C   UNL     1       3.942   7.731   0.027  0.00  0.00    +0.093 A 
ATOM     32  C   UNL     1       4.042   8.531  -1.050  0.00  0.00    +0.043 A 
ATOM     33  C   UNL     1       4.200   9.850  -0.568  0.00  0.00    +0.041 A 
ATOM     34  C   UNL     1       4.195   9.778   0.775  0.00  0.00    +0.195 A 
ATOM     35  O   UNL     1       4.038   8.492   1.130  0.00  0.00    -0.469 OA
ENDBRANCH  23  31
ENDBRANCH  22  23
ENDBRANCH   3  22
TORSDOF 9
