REMARK  Name = ZINC46347179
REMARK  11 active torsions:
REMARK  status: ('A' for Active; 'I' for Inactive)
REMARK    1  A    between atoms: C_1  and  C_2
REMARK    2  A    between atoms: C_5  and  S_8
REMARK    3  A    between atoms: S_8  and  C_9
REMARK    4  A    between atoms: C_9  and  C_10
REMARK    5  A    between atoms: N_12  and  N_13
REMARK    6  A    between atoms: N_16  and  C_17
REMARK    7  A    between atoms: C_17  and  C_18
REMARK    8  A    between atoms: C_18  and  C_20
REMARK    9  A    between atoms: C_18  and  N_25
REMARK   10  A    between atoms: N_25  and  C_26
REMARK   11  A    between atoms: N_25  and  C_27
REMARK                            x       y       z     vdW  Elec       q    Type
REMARK                         _______ _______ _______ _____ _____    ______ ____
ROOT
ATOM      1  N   UNL     1      -0.527  -7.431   3.347  0.00  0.00    -0.218 N 
ATOM      2  C   UNL     1      -0.274  -8.187   4.434  0.00  0.00    +0.316 C 
ATOM      3  O   UNL     1      -0.073  -9.379   4.311  0.00  0.00    -0.251 OA
ATOM      4  N   UNL     1      -0.245  -7.620   5.656  0.00  0.00    -0.299 N 
ATOM      5  H   UNL     1      -0.548  -7.838   2.467  0.00  0.00    +0.174 HD
ATOM      6  H   UNL     1      -0.406  -6.669   5.754  0.00  0.00    +0.150 HD
ENDROOT
BRANCH   1   9
ATOM      7  C   UNL     1      -1.011  -5.301   2.401  0.00  0.00    +0.239 C 
ATOM      8  O   UNL     1      -1.038  -5.810   1.300  0.00  0.00    -0.273 OA
ATOM      9  N   UNL     1      -0.759  -6.056   3.488  0.00  0.00    -0.233 N 
ATOM     10  H   UNL     1      -0.738  -5.649   4.367  0.00  0.00    +0.173 HD
BRANCH   7  11
ATOM     11  C   UNL     1      -1.261  -3.822   2.552  0.00  0.00    +0.171 C 
BRANCH  11  12
ATOM     12  S   UNL     1      -1.567  -3.090   0.921  0.00  0.00    -0.116 S 
BRANCH  12  17
ATOM     13  C   UNL     1      -2.495   2.757   2.095  0.00  0.00    +0.044 C 
ATOM     14  C   UNL     1      -2.263   1.298   1.802  0.00  0.00    -0.050 A 
ATOM     15  C   UNL     1      -2.320   0.838   0.499  0.00  0.00    +0.004 A 
ATOM     16  C   UNL     1      -2.108  -0.499   0.227  0.00  0.00    +0.015 A 
ATOM     17  C   UNL     1      -1.838  -1.383   1.264  0.00  0.00    +0.008 A 
ATOM     18  C   UNL     1      -1.781  -0.918   2.572  0.00  0.00    +0.015 A 
ATOM     19  C   UNL     1      -1.989   0.421   2.837  0.00  0.00    +0.004 A 
ENDBRANCH  12  17
ENDBRANCH  11  12
ENDBRANCH   7  11
ENDBRANCH   1   9
BRANCH   4  20
ATOM     20  C   UNL     1       0.030  -8.442   6.838  0.00  0.00    +0.095 C 
BRANCH  20  21
ATOM     21  C   UNL     1       0.134  -7.542   8.071  0.00  0.00    -0.020 C 
BRANCH  21  22
ATOM     22  C   UNL     1       1.331  -6.638   7.933  0.00  0.00    -0.052 A 
ATOM     23  C   UNL     1       1.175  -5.325   7.528  0.00  0.00    +0.009 A 
ATOM     24  C   UNL     1       2.273  -4.538   7.414  0.00  0.00    +0.045 A 
ATOM     25  S   UNL     1       3.581  -5.657   7.887  0.00  0.00    -0.105 S 
ATOM     26  C   UNL     1       2.576  -7.097   8.211  0.00  0.00    +0.047 A 
ENDBRANCH  21  22
BRANCH  21  27
ATOM     27  N   UNL     1       0.285  -8.374   9.272  0.00  0.00    +0.382 N 
ATOM     28  C   UNL     1       0.431  -7.510  10.451  0.00  0.00    -0.096 C 
ATOM     29  C   UNL     1      -0.903  -9.224   9.432  0.00  0.00    -0.096 C 
ATOM     30  H   UNL     1       1.104  -8.956   9.178  0.00  0.00    -0.082 HD
ENDBRANCH  21  27
ENDBRANCH  20  21
ENDBRANCH   4  20
TORSDOF 8
