REMARK  Name = ZINC21535706
REMARK  10 active torsions:
REMARK  status: ('A' for Active; 'I' for Inactive)
REMARK    1  A    between atoms: C_1  and  C_2
REMARK    2  A    between atoms: C_6  and  N_9
REMARK    3  A    between atoms: C_7  and  C_8
REMARK    4  A    between atoms: C_10  and  C_12
REMARK    5  A    between atoms: C_12  and  C_14
REMARK    6  A    between atoms: C_12  and  N_17
REMARK    7  A    between atoms: C_14  and  C_15
REMARK    8  A    between atoms: C_14  and  C_16
REMARK    9  A    between atoms: N_17  and  S_18
REMARK   10  A    between atoms: S_18  and  C_21
REMARK                            x       y       z     vdW  Elec       q    Type
REMARK                         _______ _______ _______ _____ _____    ______ ____
ROOT
ATOM      1  N   UNL     1       4.604  -0.751  -1.294  0.00  0.00    -0.178 NA
ATOM      2  H   UNL     1       3.860  -1.495  -0.973  0.00  0.00    +0.149 HD
ENDROOT
BRANCH   1   3
ATOM      3  S   UNL     1       5.725  -0.205  -0.204  0.00  0.00    +0.059 S 
ATOM      4  O   UNL     1       6.948  -0.066  -0.914  0.00  0.00    -0.153 OA
ATOM      5  O   UNL     1       5.602  -1.024   0.950  0.00  0.00    -0.153 OA
BRANCH   3   6
ATOM      6  C   UNL     1       5.235   1.418   0.277  0.00  0.00    +0.106 A 
ATOM      7  C   UNL     1       5.768   2.525  -0.359  0.00  0.00    +0.030 A 
ATOM      8  C   UNL     1       5.380   3.783   0.031  0.00  0.00    +0.025 A 
ATOM      9  C   UNL     1       4.451   3.976   1.068  0.00  0.00    +0.037 A 
ATOM     10  C   UNL     1       3.916   2.869   1.692  0.00  0.00    -0.024 A 
ATOM     11  C   UNL     1       4.321   1.596   1.289  0.00  0.00    +0.034 A 
ATOM     12  C   UNL     1       2.903   2.906   2.789  0.00  0.00    +0.037 C 
ATOM     13  C   UNL     1       1.882   3.997   2.697  0.00  0.00    +0.014 C 
ATOM     14  C   UNL     1       2.405   5.347   3.125  0.00  0.00    +0.096 C 
ATOM     15  C   UNL     1       3.327   5.931   2.115  0.00  0.00    +0.217 C 
ATOM     16  O   UNL     1       3.281   7.134   1.974  0.00  0.00    -0.275 OA
ATOM     17  N   UNL     1       4.180   5.291   1.365  0.00  0.00    -0.285 N 
ATOM     18  H   UNL     1       4.777   6.093   0.906  0.00  0.00    +0.155 HD
ENDBRANCH   3   6
ENDBRANCH   1   3
BRANCH   1  19
ATOM     19  C   UNL     1       4.468  -0.094  -2.596  0.00  0.00    +0.165 C 
BRANCH  19  21
ATOM     20  N   UNL     1       5.607  -0.255  -4.786  0.00  0.00    -0.284 N 
ATOM     21  C   UNL     1       5.265  -0.851  -3.627  0.00  0.00    +0.236 C 
ATOM     22  O   UNL     1       5.600  -1.997  -3.412  0.00  0.00    -0.274 OA
ATOM     23  H   UNL     1       5.358   0.803  -4.955  0.00  0.00    +0.155 HD
BRANCH  20  29
ATOM     24  C   UNL     1       6.650  -0.972  -9.537  0.00  0.00    +0.044 C 
ATOM     25  C   UNL     1       6.801  -1.351  -8.086  0.00  0.00    -0.046 A 
ATOM     26  C   UNL     1       7.605  -2.419  -7.732  0.00  0.00    +0.004 A 
ATOM     27  C   UNL     1       7.746  -2.771  -6.402  0.00  0.00    +0.002 A 
ATOM     28  C   UNL     1       7.085  -2.055  -5.423  0.00  0.00    +0.023 A 
ATOM     29  C   UNL     1       6.278  -0.982  -5.776  0.00  0.00    +0.037 A 
ATOM     30  C   UNL     1       6.133  -0.635  -7.113  0.00  0.00    -0.026 A 
ATOM     31  C   UNL     1       5.253   0.525  -7.500  0.00  0.00    +0.046 C 
ENDBRANCH  20  29
ENDBRANCH  19  21
BRANCH  19  32
ATOM     32  C   UNL     1       2.994  -0.074  -3.006  0.00  0.00    +0.010 C 
ATOM     33  C   UNL     1       2.472  -1.509  -3.102  0.00  0.00    +0.009 C 
ATOM     34  C   UNL     1       2.184   0.694  -1.959  0.00  0.00    +0.009 C 
ENDBRANCH  19  32
ENDBRANCH   1  19
TORSDOF 6
