REMARK  Name = ZINC38660825
REMARK  9 active torsions:
REMARK  status: ('A' for Active; 'I' for Inactive)
REMARK    1  A    between atoms: C_4  and  O_7
REMARK    2  A    between atoms: O_7  and  C_8
REMARK    3  A    between atoms: C_12  and  C_14
REMARK    4  A    between atoms: C_19  and  O_28
REMARK    5  A    between atoms: C_23  and  N_27
REMARK    6  A    between atoms: C_24  and  C_25
REMARK    7  A    between atoms: O_28  and  C_29
REMARK    8  A    between atoms: C_29  and  C_31
REMARK    9  A    between atoms: C_34  and  N_37
REMARK                            x       y       z     vdW  Elec       q    Type
REMARK                         _______ _______ _______ _____ _____    ______ ____
ROOT
ATOM      1  C   UNL     1       6.302  -4.678   0.142  0.00  0.00    +0.098 C 
ATOM      2  C   UNL     1       6.478  -5.553  -1.071  0.00  0.00    +0.008 A 
ATOM      3  C   UNL     1       6.761  -4.971  -2.294  0.00  0.00    +0.012 A 
ATOM      4  C   UNL     1       6.926  -5.758  -3.417  0.00  0.00    +0.047 A 
ATOM      5  C   UNL     1       6.808  -7.138  -3.320  0.00  0.00    +0.135 A 
ATOM      6  C   UNL     1       6.525  -7.723  -2.097  0.00  0.00    +0.093 A 
ATOM      7  C   UNL     1       6.359  -6.930  -0.969  0.00  0.00    +0.138 A 
ATOM      8  O   UNL     1       6.082  -7.518   0.222  0.00  0.00    -0.441 OA
ATOM      9  C   UNL     1       6.297  -6.848   1.366  0.00  0.00    +0.199 C 
ATOM     10  C   UNL     1       6.410  -5.502   1.394  0.00  0.00    +0.098 C 
ENDROOT
BRANCH   1  15
ATOM     11  C   UNL     1       3.598  -2.041   0.015  0.00  0.00    +0.129 A 
ATOM     12  C   UNL     1       2.452  -2.824  -0.000  0.00  0.00    +0.046 A 
ATOM     13  C   UNL     1       2.557  -4.200   0.030  0.00  0.00    +0.004 A 
ATOM     14  C   UNL     1       3.803  -4.799   0.075  0.00  0.00    +0.005 A 
ATOM     15  C   UNL     1       4.946  -4.022   0.091  0.00  0.00    -0.031 A 
ATOM     16  C   UNL     1       4.847  -2.644   0.055  0.00  0.00    +0.050 A 
BRANCH  11  17
ATOM     17  O   UNL     1       3.497  -0.686  -0.015  0.00  0.00    -0.456 OA
BRANCH  17  21
ATOM     18  C   UNL     1       2.579   1.266   3.502  0.00  0.00    +0.000 A 
ATOM     19  C   UNL     1       2.619  -0.116   3.469  0.00  0.00    +0.004 A 
ATOM     20  C   UNL     1       2.926  -0.772   2.293  0.00  0.00    +0.046 A 
ATOM     21  C   UNL     1       3.195  -0.043   1.143  0.00  0.00    +0.128 A 
ATOM     22  C   UNL     1       3.154   1.343   1.179  0.00  0.00    +0.046 A 
ATOM     23  C   UNL     1       2.846   1.994   2.357  0.00  0.00    +0.004 A 
ENDBRANCH  17  21
ENDBRANCH  11  17
ENDBRANCH   1  15
BRANCH   9  24
ATOM     24  N   UNL     1       6.404  -7.551   2.540  0.00  0.00    -0.328 N 
ATOM     25  H   UNL     1       6.324  -8.518   2.535  0.00  0.00    +0.145 HD
ATOM     26  H   UNL     1       6.559  -7.082   3.374  0.00  0.00    +0.145 HD
ENDBRANCH   9  24
BRANCH  10  27
ATOM     27  C   UNL     1       6.638  -4.847   2.647  0.00  0.00    +0.101 C 
ATOM     28  N   UNL     1       6.819  -4.328   3.641  0.00  0.00    -0.191 NA
ENDBRANCH  10  27
BRANCH   5  29
ATOM     29  O   UNL     1       6.970  -7.914  -4.424  0.00  0.00    -0.422 OA
BRANCH  29  30
ATOM     30  C   UNL     1       8.223  -8.128  -4.869  0.00  0.00    +0.344 C 
ATOM     31  O   UNL     1       9.160  -7.562  -4.342  0.00  0.00    -0.245 OA
BRANCH  30  32
ATOM     32  C   UNL     1       8.459  -9.051  -5.998  0.00  0.00    +0.060 A 
ATOM     33  C   UNL     1       7.384  -9.699  -6.610  0.00  0.00    +0.017 A 
ATOM     34  C   UNL     1       7.611 -10.559  -7.664  0.00  0.00    +0.033 A 
ATOM     35  C   UNL     1       8.901 -10.782  -8.114  0.00  0.00    +0.126 A 
ATOM     36  C   UNL     1       9.970 -10.143  -7.512  0.00  0.00    +0.033 A 
ATOM     37  C   UNL     1       9.757  -9.275  -6.462  0.00  0.00    +0.017 A 
BRANCH  35  38
ATOM     38  N   UNL     1       9.137 -11.707  -9.245  0.00  0.00    +0.056 N 
ATOM     39  O   UNL     1       8.204 -12.267  -9.773  0.00  0.00    -0.126 OA
ATOM     40  O   UNL     1      10.262 -11.904  -9.640  0.00  0.00    -0.126 OA
ENDBRANCH  35  38
ENDBRANCH  30  32
ENDBRANCH  29  30
ENDBRANCH   5  29
TORSDOF 9
