REMARK  Name = ZINC39559739
REMARK  14 active torsions:
REMARK  status: ('A' for Active; 'I' for Inactive)
REMARK    1  A    between atoms: C_1  and  C_2
REMARK    2  A    between atoms: C_2  and  C_3
REMARK    3  A    between atoms: C_3  and  C_5
REMARK    4  A    between atoms: C_3  and  C_6
REMARK    5  A    between atoms: C_6  and  C_8
REMARK    6  A    between atoms: C_6  and  O_29
REMARK    7  A    between atoms: C_8  and  C_9
REMARK    8  A    between atoms: C_8  and  C_10
REMARK    9  A    between atoms: C_8  and  O_28
REMARK   10  A    between atoms: C_11  and  C_12
REMARK   11  A    between atoms: C_15  and  O_27
REMARK   12  A    between atoms: C_18  and  C_25
REMARK   13  A    between atoms: C_18  and  O_26
REMARK   14  A    between atoms: C_19  and  O_24
REMARK                            x       y       z     vdW  Elec       q    Type
REMARK                         _______ _______ _______ _____ _____    ______ ____
ROOT
ATOM      1  C   UNL     1       1.095  -6.147  -3.398  0.00  0.00    +0.128 C 
ATOM      2  C   UNL     1       0.602  -6.808  -4.488  0.00  0.00    +0.058 C 
ATOM      3  C   UNL     1       0.584  -8.218  -4.462  0.00  0.00    +0.032 C 
ATOM      4  C   UNL     1       0.120  -8.981  -5.540  0.00  0.00    +0.170 C 
ATOM      5  C   UNL     1       0.398 -10.332  -5.595  0.00  0.00    +0.231 C 
ATOM      6  O   UNL     1      -0.053 -10.998  -6.512  0.00  0.00    -0.286 OA
ATOM      7  C   UNL     1       1.247 -11.000  -4.550  0.00  0.00    +0.158 C 
ATOM      8  C   UNL     1       0.990 -10.396  -3.170  0.00  0.00    +0.187 C 
ATOM      9  C   UNL     1       1.054  -8.896  -3.250  0.00  0.00    +0.030 C 
ATOM     10  C   UNL     1       1.525  -8.154  -2.235  0.00  0.00    +0.202 C 
ATOM     11  O   UNL     1       1.567  -6.814  -2.331  0.00  0.00    -0.463 OA
ATOM     12  C   UNL     1       0.917 -12.493  -4.514  0.00  0.00    +0.053 C 
ENDROOT
BRANCH   1  14
ATOM     13  C   UNL     1       1.599  -4.021  -2.343  0.00  0.00    +0.013 C 
ATOM     14  C   UNL     1       1.116  -4.678  -3.396  0.00  0.00    +0.045 C 
BRANCH  13  15
ATOM     15  C   UNL     1       1.620  -2.514  -2.341  0.00  0.00    +0.108 C 
ATOM     16  C   UNL     1       3.062  -2.025  -2.195  0.00  0.00    +0.048 C 
BRANCH  15  17
ATOM     17  O   UNL     1       1.074  -2.028  -3.568  0.00  0.00    -0.382 OA
ATOM     18  H   UNL     1       0.160  -2.300  -3.727  0.00  0.00    +0.211 HD
ENDBRANCH  15  17
BRANCH  15  19
ATOM     19  C   UNL     1       0.784  -1.994  -1.169  0.00  0.00    +0.152 C 
BRANCH  19  20
ATOM     20  C   UNL     1       0.920  -0.473  -1.081  0.00  0.00    +0.017 C 
ATOM     21  C   UNL     1       0.293   0.168  -2.321  0.00  0.00    +0.010 C 
BRANCH  20  23
ATOM     22  C   UNL     1       0.444   1.535   0.328  0.00  0.00    +0.004 C 
ATOM     23  C   UNL     1       0.203   0.032   0.172  0.00  0.00    +0.002 C 
ENDBRANCH  20  23
ENDBRANCH  19  20
BRANCH  19  24
ATOM     24  O   UNL     1      -0.588  -2.338  -1.373  0.00  0.00    -0.388 OA
ATOM     25  H   UNL     1      -0.970  -1.970  -2.182  0.00  0.00    +0.210 HD
ENDBRANCH  19  24
ENDBRANCH  15  19
ENDBRANCH  13  15
ENDBRANCH   1  14
BRANCH   8  26
ATOM     26  O   UNL     1      -0.304 -10.791  -2.712  0.00  0.00    -0.384 OA
ATOM     27  H   UNL     1      -0.536 -10.444  -1.839  0.00  0.00    +0.210 HD
ENDBRANCH   8  26
BRANCH   7  28
ATOM     28  O   UNL     1       2.625 -10.832  -4.886  0.00  0.00    -0.378 OA
ATOM     29  H   UNL     1       2.870 -11.212  -5.741  0.00  0.00    +0.211 HD
ENDBRANCH   7  28
BRANCH   4  30
ATOM     30  O   UNL     1      -0.605  -8.392  -6.533  0.00  0.00    -0.503 OA
ATOM     31  H   UNL     1      -0.881  -8.999  -7.232  0.00  0.00    +0.292 HD
ENDBRANCH   4  30
TORSDOF 10
