REMARK  Name = ZINC39772695
REMARK  13 active torsions:
REMARK  status: ('A' for Active; 'I' for Inactive)
REMARK    1  A    between atoms: C_1  and  C_2
REMARK    2  A    between atoms: C_8  and  C_10
REMARK    3  A    between atoms: C_10  and  C_12
REMARK    4  A    between atoms: C_10  and  S_13
REMARK    5  A    between atoms: S_13  and  C_14
REMARK    6  A    between atoms: C_17  and  C_23
REMARK    7  A    between atoms: N_18  and  C_19
REMARK    8  A    between atoms: C_19  and  C_20
REMARK    9  A    between atoms: C_20  and  C_21
REMARK   10  A    between atoms: C_20  and  C_22
REMARK   11  A    between atoms: C_23  and  C_25
REMARK   12  A    between atoms: C_23  and  N_26
REMARK   13  A    between atoms: C_27  and  C_29
REMARK                            x       y       z     vdW  Elec       q    Type
REMARK                         _______ _______ _______ _____ _____    ______ ____
ROOT
ATOM      1  C   UNL     1       1.162  -7.442   4.204  0.00  0.00    +0.192 A 
ATOM      2  N   UNL     1       0.723  -6.941   5.335  0.00  0.00    -0.122 NA
ATOM      3  N   UNL     1       0.605  -7.875   6.210  0.00  0.00    -0.132 NA
ATOM      4  C   UNL     1       0.958  -9.018   5.695  0.00  0.00    +0.154 A 
ATOM      5  N   UNL     1       1.320  -8.785   4.397  0.00  0.00    -0.304 N 
ENDROOT
BRANCH   4   6
ATOM      6  C   UNL     1       0.961 -10.351   6.397  0.00  0.00    +0.138 C 
ATOM      7  C   UNL     1       2.159 -10.426   7.345  0.00  0.00    +0.036 C 
BRANCH   6   8
ATOM      8  N   UNL     1      -0.279 -10.503   7.163  0.00  0.00    -0.302 N 
ATOM      9  C   UNL     1      -0.747 -11.733   7.451  0.00  0.00    +0.245 C 
ATOM     10  O   UNL     1      -0.141 -12.718   7.074  0.00  0.00    -0.270 OA
ATOM     11  H   UNL     1      -0.762  -9.717   7.463  0.00  0.00    +0.150 HD
BRANCH   9  12
ATOM     12  C   UNL     1      -1.997 -11.886   8.224  0.00  0.00    +0.037 A 
ATOM     13  C   UNL     1      -2.698 -10.757   8.653  0.00  0.00    +0.014 A 
ATOM     14  C   UNL     1      -3.865 -10.906   9.373  0.00  0.00    +0.021 A 
ATOM     15  C   UNL     1      -4.341 -12.171   9.672  0.00  0.00    +0.041 A 
ATOM     16  C   UNL     1      -3.650 -13.295   9.250  0.00  0.00    +0.021 A 
ATOM     17  C   UNL     1      -2.485 -13.159   8.524  0.00  0.00    +0.014 A 
ATOM     18 CL   UNL     1      -5.809 -12.351  10.581  0.00  0.00    -0.084 Cl
ENDBRANCH   9  12
ENDBRANCH   6   8
ENDBRANCH   4   6
BRANCH   1  19
ATOM     19  S   UNL     1       1.479  -6.552   2.717  0.00  0.00    -0.074 S 
BRANCH  19  20
ATOM     20  C   UNL     1       1.070  -4.836   3.137  0.00  0.00    +0.137 C 
ATOM     21  C   UNL     1      -0.426  -4.727   3.437  0.00  0.00    +0.029 C 
BRANCH  20  29
ATOM     22  C   UNL     1       2.910   1.595   0.032  0.00  0.00    +0.066 C 
ATOM     23  C   UNL     1       2.578   0.126   0.022  0.00  0.00    +0.047 A 
ATOM     24  C   UNL     1       2.558  -0.588  -1.130  0.00  0.00    +0.071 A 
ATOM     25  S   UNL     1       2.115  -2.204  -0.513  0.00  0.00    -0.060 S 
ATOM     26  C   UNL     1       2.005  -1.808   1.119  0.00  0.00    +0.165 A 
ATOM     27  N   UNL     1       2.299  -0.525   1.137  0.00  0.00    -0.230 NA
ATOM     28  N   UNL     1       1.686  -2.635   2.189  0.00  0.00    -0.264 N 
ATOM     29  C   UNL     1       1.417  -3.938   1.977  0.00  0.00    +0.232 C 
ATOM     30  O   UNL     1       1.453  -4.389   0.851  0.00  0.00    -0.274 OA
ATOM     31  H   UNL     1       1.657  -2.275   3.090  0.00  0.00    +0.157 HD
ENDBRANCH  20  29
ENDBRANCH  19  20
ENDBRANCH   1  19
BRANCH   5  32
ATOM     32  C   UNL     1       1.784  -9.770   3.417  0.00  0.00    +0.128 C 
BRANCH  32  33
ATOM     33  C   UNL     1       0.578 -10.438   2.754  0.00  0.00    +0.003 C 
ATOM     34  C   UNL     1      -0.202  -9.397   1.947  0.00  0.00    +0.009 C 
ATOM     35  C   UNL     1       1.059 -11.551   1.821  0.00  0.00    +0.009 C 
ENDBRANCH  32  33
ENDBRANCH   5  32
TORSDOF 8
