REMARK  Name = ZINC40325323
REMARK  12 active torsions:
REMARK  status: ('A' for Active; 'I' for Inactive)
REMARK    1  A    between atoms: C_1  and  C_2
REMARK    2  A    between atoms: C_2  and  C_3
REMARK    3  A    between atoms: C_3  and  S_4
REMARK    4  A    between atoms: S_4  and  C_7
REMARK    5  A    between atoms: C_10  and  C_13
REMARK    6  A    between atoms: C_15  and  C_18
REMARK    7  A    between atoms: N_20  and  C_21
REMARK    8  A    between atoms: C_21  and  C_22
REMARK    9  A    between atoms: C_22  and  C_24
REMARK   10  A    between atoms: C_22  and  N_29
REMARK   11  A    between atoms: N_29  and  C_30
REMARK   12  A    between atoms: N_29  and  C_31
REMARK                            x       y       z     vdW  Elec       q    Type
REMARK                         _______ _______ _______ _____ _____    ______ ____
ROOT
ATOM      1  C   UNL     1      -7.901  -3.216   1.383  0.00  0.00    +0.168 A 
ATOM      2  C   UNL     1      -8.397  -3.634   0.189  0.00  0.00    +0.086 A 
ATOM      3  C   UNL     1      -9.731  -4.048   0.394  0.00  0.00    +0.168 A 
ATOM      4  N   UNL     1     -10.016  -3.882   1.664  0.00  0.00    -0.073 NA
ATOM      5  O   UNL     1      -8.868  -3.361   2.308  0.00  0.00    -0.354 OA
ENDROOT
BRANCH   1   9
ATOM      6  C   UNL     1      -3.982  -1.734   2.079  0.00  0.00    +0.088 A 
ATOM      7  C   UNL     1      -4.879  -1.828   3.128  0.00  0.00    +0.027 A 
ATOM      8  C   UNL     1      -6.153  -2.309   2.909  0.00  0.00    +0.013 A 
ATOM      9  C   UNL     1      -6.537  -2.700   1.625  0.00  0.00    +0.020 A 
ATOM     10  C   UNL     1      -5.627  -2.602   0.571  0.00  0.00    +0.013 A 
ATOM     11  C   UNL     1      -4.357  -2.115   0.803  0.00  0.00    +0.027 A 
BRANCH   6  12
ATOM     12  S   UNL     1      -2.356  -1.119   2.368  0.00  0.00    -0.003 S 
ATOM     13  O   UNL     1      -1.562  -1.698   1.341  0.00  0.00    -0.169 OA
ATOM     14  O   UNL     1      -2.096  -1.408   3.735  0.00  0.00    -0.169 OA
BRANCH  12  15
ATOM     15  C   UNL     1      -2.485   0.674   2.122  0.00  0.00    +0.171 C 
BRANCH  15  17
ATOM     16  C   UNL     1      -1.225   2.831   2.142  0.00  0.00    +0.005 C 
ATOM     17  C   UNL     1      -1.116   1.319   2.349  0.00  0.00    +0.020 C 
ENDBRANCH  15  17
ENDBRANCH  12  15
ENDBRANCH   6  12
ENDBRANCH   1   9
BRANCH   3  18
ATOM     18  C   UNL     1     -10.650  -4.578  -0.644  0.00  0.00    +0.266 C 
ATOM     19  O   UNL     1     -10.270  -4.686  -1.793  0.00  0.00    -0.268 OA
ATOM     20  N   UNL     1     -11.905  -4.939  -0.312  0.00  0.00    -0.311 N 
ATOM     21  H   UNL     1     -12.208  -4.852   0.605  0.00  0.00    +0.149 HD
BRANCH  20  22
ATOM     22  C   UNL     1     -12.812  -5.462  -1.337  0.00  0.00    +0.094 C 
BRANCH  22  23
ATOM     23  C   UNL     1     -14.118  -5.913  -0.680  0.00  0.00    -0.014 C 
BRANCH  23  24
ATOM     24  C   UNL     1     -13.843  -7.078   0.235  0.00  0.00    -0.022 A 
ATOM     25  C   UNL     1     -13.703  -7.089   1.583  0.00  0.00    +0.009 A 
ATOM     26  C   UNL     1     -13.452  -8.290   2.221  0.00  0.00    +0.008 A 
ATOM     27  C   UNL     1     -13.355  -9.420   1.479  0.00  0.00    +0.045 A 
ATOM     28  S   UNL     1     -13.627  -8.802  -0.173  0.00  0.00    -0.103 S 
ENDBRANCH  23  24
BRANCH  23  29
ATOM     29  N   UNL     1     -15.073  -6.321  -1.719  0.00  0.00    +0.382 N 
ATOM     30  C   UNL     1     -16.301  -6.821  -1.086  0.00  0.00    -0.096 C 
ATOM     31  C   UNL     1     -15.395  -5.167  -2.568  0.00  0.00    -0.096 C 
ATOM     32  H   UNL     1     -14.664  -7.050  -2.284  0.00  0.00    -0.082 HD
ENDBRANCH  23  29
ENDBRANCH  22  23
ENDBRANCH  20  22
ENDBRANCH   3  18
TORSDOF 9
