REMARK  Name = ZINC42458641
REMARK  10 active torsions:
REMARK  status: ('A' for Active; 'I' for Inactive)
REMARK    1  A    between atoms: C_1  and  C_2
REMARK    2  A    between atoms: C_4  and  C_21
REMARK    3  A    between atoms: C_5  and  C_9
REMARK    4  A    between atoms: C_6  and  C_8
REMARK    5  A    between atoms: N_11  and  C_12
REMARK    6  A    between atoms: N_11  and  C_13
REMARK    7  A    between atoms: C_13  and  C_14
REMARK    8  A    between atoms: C_14  and  C_16
REMARK    9  A    between atoms: C_14  and  C_17
REMARK   10  A    between atoms: N_18  and  O_19
REMARK                            x       y       z     vdW  Elec       q    Type
REMARK                         _______ _______ _______ _____ _____    ______ ____
ROOT
ATOM      1  C   UNL     1       0.059  -4.251  -0.021  0.00  0.00    +0.247 C 
ATOM      2  O   UNL     1       1.120  -4.845  -0.030  0.00  0.00    -0.270 OA
ATOM      3  N   UNL     1      -1.099  -4.941  -0.019  0.00  0.00    -0.300 N 
ATOM      4  C   UNL     1      -2.377  -4.225  -0.009  0.00  0.00    +0.132 C 
ENDROOT
BRANCH   1   9
ATOM      5  C   UNL     1      -0.018   1.503   0.010  0.00  0.00    +0.044 C 
ATOM      6  C   UNL     1       0.002  -0.004   0.002  0.00  0.00    -0.050 A 
ATOM      7  C   UNL     1       0.006  -0.686  -1.202  0.00  0.00    +0.007 A 
ATOM      8  C   UNL     1       0.024  -2.066  -1.216  0.00  0.00    -0.038 A 
ATOM      9  C   UNL     1       0.040  -2.773  -0.013  0.00  0.00    +0.043 A 
ATOM     10  C   UNL     1       0.036  -2.079   1.198  0.00  0.00    -0.038 A 
ATOM     11  C   UNL     1       0.023  -0.699   1.198  0.00  0.00    +0.007 A 
ATOM     12  C   UNL     1       0.052  -2.834   2.501  0.00  0.00    +0.044 C 
ATOM     13  C   UNL     1       0.028  -2.807  -2.528  0.00  0.00    +0.044 C 
ENDBRANCH   1   9
BRANCH   3  14
ATOM     14  C   UNL     1      -1.080  -6.405  -0.027  0.00  0.00    +0.118 C 
BRANCH  14  15
ATOM     15  C   UNL     1      -1.066  -6.923   1.412  0.00  0.00    +0.070 C 
ATOM     16  C   UNL     1       0.240  -6.505   2.092  0.00  0.00    +0.017 C 
BRANCH  15  17
ATOM     17  C   UNL     1      -1.170  -8.427   1.406  0.00  0.00    +0.136 C 
ATOM     18  N   UNL     1      -0.100  -9.148   1.463  0.00  0.00    -0.076 NA
ATOM     19  N   UNL     1      -2.405  -9.031   1.341  0.00  0.00    -0.344 N 
ATOM     20  H   UNL     1      -3.209  -8.489   1.298  0.00  0.00    +0.144 HD
ATOM     21  H   UNL     1      -2.472  -9.999   1.337  0.00  0.00    +0.144 HD
BRANCH  18  22
ATOM     22  O   UNL     1      -0.197 -10.561   1.458  0.00  0.00    -0.408 OA
ATOM     23  H   UNL     1       0.656 -11.014   1.503  0.00  0.00    +0.328 HD
ENDBRANCH  18  22
ENDBRANCH  15  17
ENDBRANCH  14  15
ENDBRANCH   3  14
TORSDOF 5
