REMARK  Name = ZINC61855546
REMARK  11 active torsions:
REMARK  status: ('A' for Active; 'I' for Inactive)
REMARK    1  A    between atoms: C_1  and  C_2
REMARK    2  A    between atoms: C_2  and  C_3
REMARK    3  A    between atoms: C_2  and  C_4
REMARK    4  A    between atoms: C_4  and  C_5
REMARK    5  A    between atoms: C_4  and  N_15
REMARK    6  A    between atoms: C_8  and  C_11
REMARK    7  A    between atoms: C_11  and  C_12
REMARK    8  A    between atoms: C_11  and  C_13
REMARK    9  A    between atoms: C_11  and  C_14
REMARK   10  A    between atoms: N_18  and  N_19
REMARK   11  A    between atoms: C_20  and  C_22
REMARK                            x       y       z     vdW  Elec       q    Type
REMARK                         _______ _______ _______ _____ _____    ______ ____
ROOT
ATOM      1  N   UNL     1      -1.413  -1.998   0.005  0.00  0.00    -0.291 N 
ATOM      2  C   UNL     1      -1.292  -2.677   1.163  0.00  0.00    +0.316 C 
ATOM      3  O   UNL     1      -1.198  -2.074   2.214  0.00  0.00    -0.251 OA
ATOM      4  N   UNL     1      -1.273  -4.025   1.155  0.00  0.00    -0.218 N 
ATOM      5  H   UNL     1      -1.488  -2.480  -0.834  0.00  0.00    +0.151 HD
ATOM      6  H   UNL     1      -1.185  -4.513   1.989  0.00  0.00    +0.174 HD
ENDROOT
BRANCH   4   7
ATOM      7  N   UNL     1      -1.381  -4.720  -0.056  0.00  0.00    -0.229 N 
ATOM      8  C   UNL     1      -1.363  -6.068  -0.063  0.00  0.00    +0.263 C 
ATOM      9  O   UNL     1      -1.253  -6.680   0.982  0.00  0.00    -0.269 OA
ATOM     10  H   UNL     1      -1.469  -4.232  -0.889  0.00  0.00    +0.173 HD
BRANCH   8  11
ATOM     11  C   UNL     1      -1.476  -6.799  -1.338  0.00  0.00    +0.076 A 
ATOM     12  C   UNL     1      -1.480  -8.257  -1.528  0.00  0.00    +0.054 A 
ATOM     13  C   UNL     1      -1.603  -8.456  -2.850  0.00  0.00    +0.195 A 
ATOM     14  O   UNL     1      -1.673  -7.267  -3.469  0.00  0.00    -0.470 OA
ATOM     15  C   UNL     1      -1.605  -6.265  -2.587  0.00  0.00    +0.208 A 
ENDBRANCH   8  11
ENDBRANCH   4   7
BRANCH   1  16
ATOM     16  C   UNL     1      -1.433  -0.534   0.013  0.00  0.00    +0.107 C 
BRANCH  16  17
ATOM     17  C   UNL     1      -2.162  -0.034  -1.208  0.00  0.00    -0.027 A 
ATOM     18  C   UNL     1      -1.982  -0.663  -2.426  0.00  0.00    +0.006 A 
ATOM     19  C   UNL     1      -2.650  -0.205  -3.546  0.00  0.00    +0.004 A 
ATOM     20  C   UNL     1      -3.500   0.881  -3.448  0.00  0.00    -0.042 A 
ATOM     21  C   UNL     1      -3.681   1.509  -2.230  0.00  0.00    +0.004 A 
ATOM     22  C   UNL     1      -3.015   1.049  -1.109  0.00  0.00    +0.006 A 
BRANCH  20  23
ATOM     23  C   UNL     1      -4.228   1.381  -4.669  0.00  0.00    -0.013 C 
ATOM     24  C   UNL     1      -5.116   0.266  -5.225  0.00  0.00    +0.015 C 
ATOM     25  C   UNL     1      -5.095   2.583  -4.289  0.00  0.00    +0.015 C 
ATOM     26  C   UNL     1      -3.211   1.801  -5.732  0.00  0.00    +0.015 C 
ENDBRANCH  20  23
ENDBRANCH  16  17
BRANCH  16  28
ATOM     27  C   UNL     1      -0.019   1.526   0.010  0.00  0.00    +0.009 C 
ATOM     28  C   UNL     1       0.002  -0.004   0.002  0.00  0.00    +0.008 C 
ATOM     29  C   UNL     1       0.742  -0.511   1.242  0.00  0.00    +0.009 C 
ENDBRANCH  16  28
ENDBRANCH   1  16
TORSDOF 6
