REMARK  Name = ZINC16478521
REMARK  4 active torsions:
REMARK  status: ('A' for Active; 'I' for Inactive)
REMARK    1  A    between atoms: C_4  and  C_7
REMARK    2  A    between atoms: N_18  and  N_19
REMARK    3  A    between atoms: N_19  and  S_20
REMARK    4  A    between atoms: S_20  and  C_23
REMARK                            x       y       z     vdW  Elec       q    Type
REMARK                         _______ _______ _______ _____ _____    ______ ____
ROOT
ATOM      1  C   UNL     1      -1.026  -2.833  -2.862  0.00  0.00    +0.144 C 
ATOM      2  C   UNL     1      -2.464  -3.272  -2.857  0.00  0.00    +0.000 A 
ATOM      3  C   UNL     1      -2.992  -3.930  -3.951  0.00  0.00    +0.008 A 
ATOM      4  C   UNL     1      -4.312  -4.342  -3.942  0.00  0.00    +0.000 A 
ATOM      5  C   UNL     1      -5.111  -4.098  -2.839  0.00  0.00    +0.002 A 
ATOM      6  C   UNL     1      -4.590  -3.438  -1.742  0.00  0.00    +0.023 A 
ATOM      7  C   UNL     1      -3.267  -3.023  -1.751  0.00  0.00    +0.039 A 
ATOM      8  N   UNL     1      -2.724  -2.350  -0.651  0.00  0.00    -0.288 N 
ATOM      9  C   UNL     1      -1.546  -1.657  -0.805  0.00  0.00    +0.174 C 
ATOM     10  N   UNL     1      -0.764  -1.855  -1.816  0.00  0.00    -0.349 N 
ATOM     11  N   UNL     1      -1.193  -0.722   0.139  0.00  0.00    -0.235 N 
ATOM     12  H   UNL     1      -3.239  -2.380   0.320  0.00  0.00    +0.155 HD
ATOM     13  H   UNL     1      -1.850  -0.537   1.003  0.00  0.00    +0.170 HD
ATOM     14  H   UNL     1       0.160  -1.268  -1.920  0.00  0.00    +0.163 HD
ENDROOT
BRANCH   1  18
ATOM     15  C   UNL     1      -0.114  -1.083  -6.650  0.00  0.00    +0.000 A 
ATOM     16  C   UNL     1       0.255  -2.389  -6.385  0.00  0.00    +0.000 A 
ATOM     17  C   UNL     1      -0.041  -2.955  -5.159  0.00  0.00    +0.006 A 
ATOM     18  C   UNL     1      -0.704  -2.216  -4.198  0.00  0.00    -0.021 A 
ATOM     19  C   UNL     1      -1.077  -0.912  -4.465  0.00  0.00    +0.006 A 
ATOM     20  C   UNL     1      -0.778  -0.344  -5.689  0.00  0.00    +0.000 A 
ENDBRANCH   1  18
BRANCH  11  21
ATOM     21  N   UNL     1       0.002  -0.004   0.002  0.00  0.00    -0.108 NA
ATOM     22  H   UNL     1       0.869  -0.492  -0.102  0.00  0.00    +0.172 HD
BRANCH  21  23
ATOM     23  S   UNL     1      -0.020   1.652   0.011  0.00  0.00    +0.074 S 
ATOM     24  O   UNL     1       1.336   2.076   0.001  0.00  0.00    -0.152 OA
ATOM     25  O   UNL     1      -0.952   2.051  -0.985  0.00  0.00    -0.152 OA
BRANCH  23  26
ATOM     26  C   UNL     1      -0.694   2.155   1.560  0.00  0.00    +0.107 A 
ATOM     27  C   UNL     1      -2.056   2.346   1.692  0.00  0.00    +0.029 A 
ATOM     28  C   UNL     1      -2.585   2.736   2.907  0.00  0.00    +0.017 A 
ATOM     29  C   UNL     1      -1.750   2.946   3.990  0.00  0.00    +0.018 A 
ATOM     30  C   UNL     1      -0.386   2.760   3.856  0.00  0.00    +0.017 A 
ATOM     31  C   UNL     1       0.142   2.365   2.641  0.00  0.00    +0.029 A 
ATOM     32 BR   UNL     1      -2.472   3.486   5.652  0.00  0.00    -0.050 Br
ENDBRANCH  23  26
ENDBRANCH  21  23
ENDBRANCH  11  21
TORSDOF 4
