REMARK  Name = ZINC04312881
REMARK  13 active torsions:
REMARK  status: ('A' for Active; 'I' for Inactive)
REMARK    1  A    between atoms: C_1  and  N_2
REMARK    2  A    between atoms: N_2  and  C_3
REMARK    3  A    between atoms: N_2  and  C_4
REMARK    4  A    between atoms: C_7  and  P_10
REMARK    5  A    between atoms: P_10  and  C_12
REMARK    6  A    between atoms: P_10  and  O_25
REMARK    7  A    between atoms: C_12  and  C_14
REMARK    8  A    between atoms: C_12  and  O_24
REMARK    9  A    between atoms: C_17  and  O_22
REMARK   10  A    between atoms: C_18  and  O_20
REMARK   11  A    between atoms: O_20  and  C_21
REMARK   12  A    between atoms: O_22  and  C_23
REMARK   13  A    between atoms: O_25  and  C_26
REMARK                            x       y       z     vdW  Elec       q    Type
REMARK                         _______ _______ _______ _____ _____    ______ ____
ROOT
ATOM      1  P   UNL     1      -5.134  -3.063   0.035  0.00  0.00    +0.266 P 
ATOM      2  O   UNL     1      -4.944  -4.353  -0.666  0.00  0.00    -0.283 OA
ENDROOT
BRANCH   1   6
ATOM      3  C   UNL     1      -1.198  -0.719   0.010  0.00  0.00    +0.029 A 
ATOM      4  C   UNL     1      -1.181  -2.108   0.008  0.00  0.00    +0.024 A 
ATOM      5  C   UNL     1      -2.369  -2.812   0.016  0.00  0.00    +0.015 A 
ATOM      6  C   UNL     1      -3.575  -2.135   0.025  0.00  0.00    +0.040 A 
ATOM      7  C   UNL     1      -3.596  -0.752   0.027  0.00  0.00    +0.015 A 
ATOM      8  C   UNL     1      -2.411  -0.042   0.025  0.00  0.00    +0.024 A 
BRANCH   3  10
ATOM      9  C   UNL     1      -0.018   1.461   0.010  0.00  0.00    +0.129 C 
ATOM     10  N   UNL     1       0.002  -0.004   0.002  0.00  0.00    -0.336 N 
ATOM     11  C   UNL     1       1.281  -0.719  -0.014  0.00  0.00    +0.129 C 
ENDBRANCH   3  10
ENDBRANCH   1   6
BRANCH   1  12
ATOM     12  C   UNL     1      -5.644  -3.377   1.756  0.00  0.00    +0.235 C 
BRANCH  12  13
ATOM     13  C   UNL     1      -6.939  -4.148   1.764  0.00  0.00    -0.006 A 
ATOM     14  C   UNL     1      -8.144  -3.471   1.768  0.00  0.00    +0.010 A 
ATOM     15  C   UNL     1      -9.335  -4.174   1.775  0.00  0.00    +0.050 A 
ATOM     16  C   UNL     1      -9.321  -5.560   1.778  0.00  0.00    +0.162 A 
ATOM     17  C   UNL     1      -8.107  -6.241   1.774  0.00  0.00    +0.162 A 
ATOM     18  C   UNL     1      -6.918  -5.530   1.762  0.00  0.00    +0.056 A 
BRANCH  17  19
ATOM     19  O   UNL     1      -8.089  -7.601   1.777  0.00  0.00    -0.491 OA
ATOM     20  C   UNL     1      -6.807  -8.232   1.772  0.00  0.00    +0.277 C 
ENDBRANCH  17  19
BRANCH  16  21
ATOM     21  O   UNL     1     -10.491  -6.253   1.785  0.00  0.00    -0.491 OA
ATOM     22  C   UNL     1     -11.698  -5.488   1.790  0.00  0.00    +0.277 C 
ENDBRANCH  16  21
ENDBRANCH  12  13
BRANCH  12  23
ATOM     23  O   UNL     1      -5.827  -2.132   2.433  0.00  0.00    -0.377 OA
ATOM     24  H   UNL     1      -6.500  -1.563   2.035  0.00  0.00    +0.211 HD
ENDBRANCH  12  23
ENDBRANCH   1  12
BRANCH   1  25
ATOM     25  O   UNL     1      -6.272  -2.207  -0.715  0.00  0.00    -0.319 OA
BRANCH  25  26
ATOM     26  C   UNL     1      -6.217  -1.888  -2.107  0.00  0.00    +0.126 C 
ATOM     27  C   UNL     1      -6.207  -0.368  -2.282  0.00  0.00    +0.032 C 
ATOM     28  C   UNL     1      -6.147  -0.027  -3.772  0.00  0.00    +0.003 C 
ATOM     29  C   UNL     1      -7.371  -0.614  -4.479  0.00  0.00    +0.000 C 
ATOM     30  C   UNL     1      -7.381  -2.134  -4.304  0.00  0.00    +0.003 C 
ATOM     31  C   UNL     1      -7.440  -2.475  -2.814  0.00  0.00    +0.032 C 
ENDBRANCH  25  26
ENDBRANCH   1  25
TORSDOF 9
