REMARK  Name = ZINC13109169
REMARK  5 active torsions:
REMARK  status: ('A' for Active; 'I' for Inactive)
REMARK    1  A    between atoms: C_7  and  S_16
REMARK    2  A    between atoms: C_9  and  C_11
REMARK    3  A    between atoms: S_16  and  C_17
REMARK    4  A    between atoms: C_17  and  C_18
REMARK    5  A    between atoms: N_20  and  N_21
REMARK                            x       y       z     vdW  Elec       q    Type
REMARK                         _______ _______ _______ _____ _____    ______ ____
ROOT
ATOM      1  C   UNL     1      -2.482   0.853   0.018  0.00  0.00    +0.173 C 
ENDROOT
BRANCH   1   2
ATOM      2  C   UNL     1      -1.187   1.624   0.017  0.00  0.00    +0.240 C 
ATOM      3  O   UNL     1      -1.204   2.837   0.023  0.00  0.00    -0.273 OA
ATOM      4  N   UNL     1      -0.011   0.966   0.007  0.00  0.00    -0.223 N 
ATOM      5  H   UNL     1       0.002  -0.004   0.002  0.00  0.00    +0.174 HD
BRANCH   4   6
ATOM      6  N   UNL     1       1.193   1.683  -0.000  0.00  0.00    -0.137 N 
ATOM      7  C   UNL     1       2.002   1.817   1.071  0.00  0.00    +0.263 C 
ATOM      8  O   UNL     1       1.834   1.358   2.180  0.00  0.00    -0.271 OA
ATOM      9  C   UNL     1       3.163   2.660   0.596  0.00  0.00    +0.114 C 
ATOM     10  C   UNL     1       4.469   1.881   0.716  0.00  0.00    +0.035 C 
ATOM     11  C   UNL     1       5.628   2.741   0.204  0.00  0.00    +0.003 C 
ATOM     12  C   UNL     1       5.706   4.030   1.025  0.00  0.00    +0.000 C 
ATOM     13  C   UNL     1       4.399   4.811   0.874  0.00  0.00    +0.003 C 
ATOM     14  C   UNL     1       3.235   3.960   1.389  0.00  0.00    +0.035 C 
ATOM     15  N   UNL     1       2.854   2.932  -0.814  0.00  0.00    -0.284 N 
ATOM     16  C   UNL     1       1.685   2.315  -1.073  0.00  0.00    +0.326 C 
ATOM     17  O   UNL     1       1.137   2.333  -2.157  0.00  0.00    -0.251 OA
ATOM     18  H   UNL     1       3.388   3.450  -1.436  0.00  0.00    +0.151 HD
ENDBRANCH   4   6
ENDBRANCH   1   2
BRANCH   1  19
ATOM     19  S   UNL     1      -3.874   2.010   0.031  0.00  0.00    -0.096 S 
BRANCH  19  26
ATOM     20  C   UNL     1      -8.246   3.068   0.076  0.00  0.00    +0.001 A 
ATOM     21  C   UNL     1      -9.260   2.114   0.075  0.00  0.00    +0.002 A 
ATOM     22  C   UNL     1      -8.972   0.782   0.048  0.00  0.00    +0.028 A 
ATOM     23  C   UNL     1      -7.633   0.363   0.040  0.00  0.00    +0.076 A 
ATOM     24  C   UNL     1      -6.604   1.338   0.047  0.00  0.00    +0.032 A 
ATOM     25  C   UNL     1      -6.933   2.695   0.062  0.00  0.00    +0.012 A 
ATOM     26  C   UNL     1      -5.218   0.872   0.032  0.00  0.00    +0.109 A 
ATOM     27  N   UNL     1      -5.009  -0.438   0.023  0.00  0.00    -0.220 NA
ATOM     28  C   UNL     1      -6.024  -1.302   0.024  0.00  0.00    +0.168 A 
ATOM     29  N   UNL     1      -7.293  -0.932   0.031  0.00  0.00    -0.227 NA
BRANCH  28  30
ATOM     30  C   UNL     1      -5.716  -2.744   0.014  0.00  0.00    +0.056 A 
ATOM     31  C   UNL     1      -4.495  -3.366   0.005  0.00  0.00    +0.019 A 
ATOM     32  C   UNL     1      -4.453  -4.741  -0.002  0.00  0.00    +0.008 A 
ATOM     33  C   UNL     1      -5.620  -5.439   0.000  0.00  0.00    +0.046 A 
ATOM     34  S   UNL     1      -6.837  -4.134   0.020  0.00  0.00    -0.094 S 
ENDBRANCH  28  30
ENDBRANCH  19  26
ENDBRANCH   1  19
TORSDOF 5
