REMARK  Name = ZINC67010970
REMARK  4 active torsions:
REMARK  status: ('A' for Active; 'I' for Inactive)
REMARK    1  A    between atoms: C_3  and  C_12
REMARK    2  A    between atoms: C_12  and  N_13
REMARK    3  A    between atoms: N_13  and  C_14
REMARK    4  A    between atoms: C_23  and  C_26
REMARK                            x       y       z     vdW  Elec       q    Type
REMARK                         _______ _______ _______ _____ _____    ______ ____
ROOT
ATOM      1  N   UNL     1       4.122   2.442  -1.749  0.00  0.00    +0.384 N 
ATOM      2  H   UNL     1       4.255   1.566  -2.232  0.00  0.00    -0.085 HD
ATOM      3  H   UNL     1       3.511   3.035  -2.290  0.00  0.00    -0.085 HD
ENDROOT
BRANCH   1   4
ATOM      4  C   UNL     1       5.421   3.106  -1.575  0.00  0.00    -0.068 C 
ATOM      5  C   UNL     1       6.388   2.157  -0.862  0.00  0.00    +0.003 C 
ATOM      6  C   UNL     1       7.730   2.865  -0.651  0.00  0.00    +0.105 C 
ATOM      7  N   UNL     1       8.214   3.357  -1.949  0.00  0.00    -0.315 N 
ATOM      8  C   UNL     1       7.327   4.204  -2.758  0.00  0.00    +0.105 C 
ATOM      9  C   UNL     1       5.990   3.481  -2.945  0.00  0.00    +0.003 C 
ATOM     10  C   UNL     1       9.482   3.028  -2.400  0.00  0.00    +0.121 A 
ATOM     11  C   UNL     1      10.385   2.422  -1.528  0.00  0.00    +0.045 A 
ATOM     12  C   UNL     1      11.638   2.099  -1.977  0.00  0.00    +0.024 A 
ATOM     13  C   UNL     1      11.968   2.392  -3.309  0.00  0.00    +0.070 A 
ATOM     14  C   UNL     1      11.013   3.001  -4.126  0.00  0.00    +0.131 A 
ATOM     15  N   UNL     1       9.818   3.290  -3.655  0.00  0.00    -0.239 NA
BRANCH  13  16
ATOM     16  C   UNL     1      13.266   2.073  -3.823  0.00  0.00    +0.101 C 
ATOM     17  N   UNL     1      14.296   1.820  -4.231  0.00  0.00    -0.191 NA
ENDBRANCH  13  16
ENDBRANCH   1   4
BRANCH   1  18
ATOM     18  C   UNL     1       3.521   2.189  -0.433  0.00  0.00    -0.043 C 
BRANCH  18  21
ATOM     19  C   UNL     1      -0.205   1.616  -0.693  0.00  0.00    +0.004 A 
ATOM     20  C   UNL     1       1.018   2.239  -0.529  0.00  0.00    +0.005 A 
ATOM     21  C   UNL     1       2.189   1.508  -0.612  0.00  0.00    -0.019 A 
ATOM     22  C   UNL     1       2.132   0.147  -0.860  0.00  0.00    +0.163 A 
ATOM     23  C   UNL     1       0.904  -0.479  -1.025  0.00  0.00    +0.162 A 
ATOM     24  C   UNL     1      -0.266   0.256  -0.942  0.00  0.00    +0.049 A 
ATOM     25  O   UNL     1       0.859  -1.821  -1.268  0.00  0.00    -0.488 OA
ATOM     26  C   UNL     1       1.363  -2.244  -2.537  0.00  0.00    +0.232 C 
ATOM     27  C   UNL     1       2.873  -2.417  -2.486  0.00  0.00    +0.082 C 
ATOM     28  C   UNL     1       3.599  -1.104  -2.236  0.00  0.00    +0.232 C 
ATOM     29  O   UNL     1       3.279  -0.587  -0.943  0.00  0.00    -0.488 OA
ENDBRANCH  18  21
ENDBRANCH   1  18
TORSDOF 4
