REMARK  Name = ZINC39971218
REMARK  7 active torsions:
REMARK  status: ('A' for Active; 'I' for Inactive)
REMARK    1  A    between atoms: C_1  and  C_2
REMARK    2  A    between atoms: N_8  and  C_9
REMARK    3  A    between atoms: C_9  and  N_11
REMARK    4  A    between atoms: N_11  and  C_12
REMARK    5  A    between atoms: C_15  and  S_18
REMARK    6  A    between atoms: S_18  and  N_21
REMARK    7  A    between atoms: C_30  and  C_32
REMARK                            x       y       z     vdW  Elec       q    Type
REMARK                         _______ _______ _______ _____ _____    ______ ____
ROOT
ATOM      1  C   UNL     1      -0.038  -2.621   5.940  0.00  0.00    +0.033 A 
ATOM      2  C   UNL     1      -0.070  -1.232   5.928  0.00  0.00    +0.025 A 
ATOM      3  C   UNL     1      -0.030  -0.532   7.118  0.00  0.00    +0.030 A 
ATOM      4  C   UNL     1       0.043  -1.211   8.320  0.00  0.00    +0.109 A 
ATOM      5  C   UNL     1       0.075  -2.594   8.335  0.00  0.00    +0.030 A 
ATOM      6  C   UNL     1       0.029  -3.300   7.150  0.00  0.00    +0.025 A 
ENDROOT
BRANCH   4   7
ATOM      7  S   UNL     1       0.095  -0.314   9.835  0.00  0.00    +0.075 S 
ATOM      8  O   UNL     1       0.711  -1.166  10.791  0.00  0.00    -0.150 OA
ATOM      9  O   UNL     1       0.602   0.977   9.526  0.00  0.00    -0.150 OA
BRANCH   7  10
ATOM     10  N   UNL     1      -1.471  -0.100  10.332  0.00  0.00    -0.200 N 
ATOM     11  C   UNL     1      -2.085  -1.038  11.172  0.00  0.00    +0.055 A 
ATOM     12  C   UNL     1      -1.484  -2.277  11.357  0.00  0.00    +0.028 A 
ATOM     13  C   UNL     1      -2.070  -3.215  12.183  0.00  0.00    +0.040 A 
ATOM     14  C   UNL     1      -3.259  -2.918  12.828  0.00  0.00    +0.124 A 
ATOM     15  C   UNL     1      -3.860  -1.686  12.644  0.00  0.00    +0.043 A 
ATOM     16  C   UNL     1      -3.277  -0.742  11.814  0.00  0.00    -0.022 A 
ATOM     17  C   UNL     1      -3.963   0.586  11.628  0.00  0.00    +0.039 C 
ATOM     18  C   UNL     1      -2.971   1.635  11.126  0.00  0.00    +0.029 C 
ATOM     19  C   UNL     1      -2.236   1.079   9.904  0.00  0.00    +0.095 C 
ATOM     20  C   UNL     1      -1.284   2.139   9.346  0.00  0.00    +0.030 C 
ATOM     21  F   UNL     1      -3.833  -3.833  13.639  0.00  0.00    -0.205 F 
ENDBRANCH   7  10
ENDBRANCH   4   7
BRANCH   1  22
ATOM     22  N   UNL     1      -0.078  -3.333   4.737  0.00  0.00    -0.297 N 
ATOM     23  H   UNL     1      -0.616  -4.138   4.668  0.00  0.00    +0.154 HD
BRANCH  22  24
ATOM     24  C   UNL     1       0.630  -2.902   3.675  0.00  0.00    +0.140 C 
ATOM     25  S   UNL     1       1.683  -1.562   3.834  0.00  0.00    -0.018 S 
BRANCH  24  33
ATOM     26  C   UNL     1       2.065  -4.249  -2.126  0.00  0.00    +0.044 C 
ATOM     27  C   UNL     1       2.080  -3.488  -0.825  0.00  0.00    -0.046 A 
ATOM     28  C   UNL     1       2.904  -2.382  -0.659  0.00  0.00    +0.023 A 
ATOM     29  C   UNL     1       2.894  -1.707   0.545  0.00  0.00    +0.113 A 
ATOM     30  N   UNL     1       2.115  -2.099   1.535  0.00  0.00    -0.240 NA
ATOM     31  C   UNL     1       1.315  -3.147   1.415  0.00  0.00    +0.124 A 
ATOM     32  C   UNL     1       1.270  -3.871   0.228  0.00  0.00    +0.047 A 
ATOM     33  N   UNL     1       0.509  -3.526   2.486  0.00  0.00    -0.282 N 
ATOM     34  H   UNL     1      -0.140  -4.239   2.376  0.00  0.00    +0.155 HD
ENDBRANCH  24  33
ENDBRANCH  22  24
ENDBRANCH   1  22
TORSDOF 5
