REMARK  Name = ZINC13031108
REMARK  10 active torsions:
REMARK  status: ('A' for Active; 'I' for Inactive)
REMARK    1  A    between atoms: C_1  and  C_2
REMARK    2  A    between atoms: C_2  and  C_4
REMARK    3  A    between atoms: C_2  and  S_17
REMARK    4  A    between atoms: N_6  and  C_7
REMARK    5  A    between atoms: C_10  and  S_13
REMARK    6  A    between atoms: S_13  and  N_16
REMARK    7  A    between atoms: S_17  and  C_18
REMARK    8  A    between atoms: C_21  and  C_29
REMARK    9  A    between atoms: N_22  and  C_23
REMARK   10  A    between atoms: C_23  and  C_24
REMARK                            x       y       z     vdW  Elec       q    Type
REMARK                         _______ _______ _______ _____ _____    ______ ____
ROOT
ATOM      1  C   UNL     1      -0.356  -0.194   0.024  0.00  0.00    +0.029 C 
ATOM      2  C   UNL     1      -0.130  -0.198   1.537  0.00  0.00    +0.137 C 
ENDROOT
BRANCH   2   3
ATOM      3  C   UNL     1      -0.217   1.212   2.062  0.00  0.00    +0.230 C 
ATOM      4  O   UNL     1       0.792   1.869   2.205  0.00  0.00    -0.274 OA
ATOM      5  N   UNL     1      -1.417   1.744   2.367  0.00  0.00    -0.285 N 
ATOM      6  H   UNL     1      -2.229   1.246   2.185  0.00  0.00    +0.155 HD
BRANCH   5   7
ATOM      7  C   UNL     1      -1.491   3.015   2.947  0.00  0.00    +0.034 A 
ATOM      8  C   UNL     1      -2.477   3.296   3.884  0.00  0.00    +0.025 A 
ATOM      9  C   UNL     1      -2.543   4.550   4.460  0.00  0.00    +0.030 A 
ATOM     10  C   UNL     1      -1.637   5.529   4.095  0.00  0.00    +0.105 A 
ATOM     11  C   UNL     1      -0.658   5.254   3.158  0.00  0.00    +0.030 A 
ATOM     12  C   UNL     1      -0.582   4.000   2.583  0.00  0.00    +0.025 A 
BRANCH  10  13
ATOM     13  S   UNL     1      -1.730   7.129   4.825  0.00  0.00    +0.056 S 
ATOM     14  O   UNL     1      -2.393   6.968   6.072  0.00  0.00    -0.153 OA
ATOM     15  O   UNL     1      -0.433   7.700   4.720  0.00  0.00    -0.153 OA
BRANCH  13  16
ATOM     16  N   UNL     1      -2.729   8.045   3.874  0.00  0.00    -0.204 NA
ATOM     17  H   UNL     1      -3.132   7.658   3.081  0.00  0.00    +0.144 HD
ATOM     18  H   UNL     1      -2.912   8.968   4.109  0.00  0.00    +0.144 HD
ENDBRANCH  13  16
ENDBRANCH  10  13
ENDBRANCH   5   7
ENDBRANCH   2   3
BRANCH   2  19
ATOM     19  S   UNL     1       1.508  -0.877   1.900  0.00  0.00    -0.073 S 
BRANCH  19  20
ATOM     20  C   UNL     1       1.287  -2.531   1.333  0.00  0.00    +0.193 A 
ATOM     21  N   UNL     1       0.194  -3.034   0.805  0.00  0.00    -0.122 NA
ATOM     22  N   UNL     1       0.379  -4.269   0.502  0.00  0.00    -0.128 NA
ATOM     23  C   UNL     1       1.601  -4.630   0.817  0.00  0.00    +0.165 A 
ATOM     24  N   UNL     1       2.222  -3.526   1.353  0.00  0.00    -0.295 N 
BRANCH  23  25
ATOM     25  C   UNL     1       2.198  -5.969   0.626  0.00  0.00    +0.019 A 
ATOM     26  C   UNL     1       3.370  -6.316   1.300  0.00  0.00    +0.011 A 
ATOM     27  C   UNL     1       3.921  -7.568   1.120  0.00  0.00    +0.001 A 
ATOM     28  C   UNL     1       3.319  -8.476   0.267  0.00  0.00    +0.000 A 
ATOM     29  C   UNL     1       2.159  -8.136  -0.408  0.00  0.00    +0.001 A 
ATOM     30  C   UNL     1       1.596  -6.889  -0.234  0.00  0.00    +0.011 A 
ENDBRANCH  23  25
BRANCH  24  31
ATOM     31  C   UNL     1       3.599  -3.438   1.847  0.00  0.00    +0.200 C 
BRANCH  31  32
ATOM     32  C   UNL     1       3.609  -3.623   3.342  0.00  0.00    +0.125 A 
ATOM     33  C   UNL     1       3.628  -4.803   3.988  0.00  0.00    +0.046 A 
ATOM     34  C   UNL     1       3.634  -4.512   5.372  0.00  0.00    +0.041 A 
ATOM     35  C   UNL     1       3.611  -3.172   5.489  0.00  0.00    +0.195 A 
ATOM     36  O   UNL     1       3.596  -2.639   4.256  0.00  0.00    -0.466 OA
ENDBRANCH  31  32
ENDBRANCH  24  31
ENDBRANCH  19  20
ENDBRANCH   2  19
TORSDOF 9
