REMARK  Name = ZINC17918799
REMARK  7 active torsions:
REMARK  status: ('A' for Active; 'I' for Inactive)
REMARK    1  A    between atoms: C_1  and  C_2
REMARK    2  A    between atoms: C_7  and  N_8
REMARK    3  A    between atoms: C_13  and  C_27
REMARK    4  A    between atoms: N_15  and  C_21
REMARK    5  A    between atoms: C_31  and  O_34
REMARK    6  A    between atoms: C_32  and  O_33
REMARK    7  A    between atoms: O_34  and  C_35
REMARK                            x       y       z     vdW  Elec       q    Type
REMARK                         _______ _______ _______ _____ _____    ______ ____
ROOT
ATOM      1  N   UNL     1      -0.259  -0.078   2.425  0.00  0.00    -0.208 N 
ATOM      2  C   UNL     1      -1.413   0.123   3.071  0.00  0.00    +0.235 C 
ATOM      3  O   UNL     1      -2.502  -0.253   2.693  0.00  0.00    -0.274 OA
ATOM      4  C   UNL     1      -1.148   0.892   4.344  0.00  0.00    +0.146 C 
ATOM      5  C   UNL     1      -1.760   2.306   4.226  0.00  0.00    +0.161 C 
ATOM      6  N   UNL     1      -0.649   3.181   4.675  0.00  0.00    -0.244 N 
ATOM      7  O   UNL     1       0.525   2.577   4.131  0.00  0.00    -0.257 OA
ATOM      8  C   UNL     1       0.385   1.137   4.305  0.00  0.00    +0.249 C 
ATOM      9  C   UNL     1       0.816   0.436   3.034  0.00  0.00    +0.259 C 
ATOM     10  O   UNL     1       1.956   0.356   2.631  0.00  0.00    -0.272 OA
ENDROOT
BRANCH   1  17
ATOM     11  C   UNL     1      -0.065  -2.916   2.514  0.00  0.00    +0.045 C 
ATOM     12  C   UNL     1      -0.084  -2.160   1.210  0.00  0.00    -0.029 A 
ATOM     13  C   UNL     1      -0.013  -2.845   0.012  0.00  0.00    +0.005 A 
ATOM     14  C   UNL     1      -0.032  -2.153  -1.184  0.00  0.00    +0.000 A 
ATOM     15  C   UNL     1      -0.122  -0.773  -1.186  0.00  0.00    +0.002 A 
ATOM     16  C   UNL     1      -0.193  -0.083   0.008  0.00  0.00    +0.024 A 
ATOM     17  C   UNL     1      -0.180  -0.776   1.211  0.00  0.00    +0.047 A 
ENDBRANCH   1  17
BRANCH   6  18
ATOM     18  C   UNL     1      -0.734   4.337   5.454  0.00  0.00    +0.065 A 
ATOM     19  C   UNL     1      -1.969   4.783   5.906  0.00  0.00    +0.028 A 
ATOM     20  C   UNL     1      -2.049   5.926   6.677  0.00  0.00    +0.002 A 
ATOM     21  C   UNL     1      -0.901   6.627   6.998  0.00  0.00    +0.000 A 
ATOM     22  C   UNL     1       0.330   6.186   6.550  0.00  0.00    +0.002 A 
ATOM     23  C   UNL     1       0.418   5.040   5.784  0.00  0.00    +0.028 A 
ENDBRANCH   6  18
BRANCH   5  24
ATOM     24  C   UNL     1      -2.138   2.607   2.798  0.00  0.00    +0.023 A 
ATOM     25  C   UNL     1      -1.231   3.225   1.958  0.00  0.00    +0.009 A 
ATOM     26  C   UNL     1      -1.574   3.502   0.648  0.00  0.00    +0.004 A 
ATOM     27  C   UNL     1      -2.828   3.163   0.172  0.00  0.00    +0.049 A 
ATOM     28  C   UNL     1      -3.741   2.542   1.009  0.00  0.00    +0.162 A 
ATOM     29  C   UNL     1      -3.393   2.258   2.326  0.00  0.00    +0.164 A 
BRANCH  29  30
ATOM     30  O   UNL     1      -4.285   1.644   3.149  0.00  0.00    -0.503 OA
ATOM     31  H   UNL     1      -4.855   2.255   3.636  0.00  0.00    +0.292 HD
ENDBRANCH  29  30
BRANCH  28  32
ATOM     32  O   UNL     1      -4.974   2.208   0.542  0.00  0.00    -0.491 OA
ATOM     33  C   UNL     1      -5.260   2.525  -0.821  0.00  0.00    +0.277 C 
ENDBRANCH  28  32
ENDBRANCH   5  24
TORSDOF 5
