REMARK  Name = ZINC03375238
REMARK  8 active torsions:
REMARK  status: ('A' for Active; 'I' for Inactive)
REMARK    1  A    between atoms: C_1  and  C_2
REMARK    2  A    between atoms: C_2  and  C_3
REMARK    3  A    between atoms: C_3  and  C_4
REMARK    4  A    between atoms: C_4  and  N_5
REMARK    5  A    between atoms: C_14  and  C_16
REMARK    6  A    between atoms: N_18  and  N_19
REMARK    7  A    between atoms: N_19  and  C_20
REMARK    8  A    between atoms: N_25  and  C_28
REMARK                            x       y       z     vdW  Elec       q    Type
REMARK                         _______ _______ _______ _____ _____    ______ ____
ROOT
ATOM      1  C   UNL     1      -4.378  -3.219   2.518  0.00  0.00    +0.278 C 
ATOM      2  O   UNL     1      -5.553  -3.514   2.422  0.00  0.00    -0.267 OA
ATOM      3  N   UNL     1      -3.819  -3.062   3.734  0.00  0.00    -0.245 N 
ATOM      4  H   UNL     1      -2.881  -2.826   3.810  0.00  0.00    +0.169 HD
ENDROOT
BRANCH   1  14
ATOM      5  N   UNL     1      -1.520  -2.537   0.392  0.00  0.00    -0.228 N 
ATOM      6  C   UNL     1      -1.923  -2.656  -0.890  0.00  0.00    +0.275 A 
ATOM      7  O   UNL     1      -1.143  -2.475  -1.807  0.00  0.00    -0.266 OA
ATOM      8  C   UNL     1      -3.325  -3.010  -1.153  0.00  0.00    +0.050 A 
ATOM      9  C   UNL     1      -3.839  -3.156  -2.438  0.00  0.00    +0.014 A 
ATOM     10  C   UNL     1      -5.167  -3.490  -2.600  0.00  0.00    +0.001 A 
ATOM     11  C   UNL     1      -5.991  -3.679  -1.499  0.00  0.00    +0.001 A 
ATOM     12  C   UNL     1      -5.500  -3.538  -0.218  0.00  0.00    +0.011 A 
ATOM     13  C   UNL     1      -4.164  -3.203  -0.031  0.00  0.00    +0.020 A 
ATOM     14  C   UNL     1      -3.562  -3.033   1.301  0.00  0.00    +0.155 A 
ATOM     15  N   UNL     1      -2.293  -2.720   1.395  0.00  0.00    -0.163 NA
BRANCH   5  16
ATOM     16  C   UNL     1      -0.122  -2.184   0.649  0.00  0.00    +0.147 C 
BRANCH  16  17
ATOM     17  C   UNL     1       0.015  -0.662   0.725  0.00  0.00    +0.023 C 
BRANCH  17  19
ATOM     18  C   UNL     1       1.613   1.228   1.069  0.00  0.00    +0.004 C 
ATOM     19  C   UNL     1       1.476  -0.294   0.993  0.00  0.00    -0.002 C 
ENDBRANCH  17  19
ENDBRANCH  16  17
ENDBRANCH   5  16
ENDBRANCH   1  14
BRANCH   3  20
ATOM     20  N   UNL     1      -4.573  -3.233   4.860  0.00  0.00    -0.228 NA
ATOM     21  H   UNL     1      -5.003  -4.146   4.871  0.00  0.00    +0.145 HD
BRANCH  20  22
ATOM     22  C   UNL     1      -3.770  -3.015   6.070  0.00  0.00    +0.168 C 
ATOM     23  C   UNL     1      -4.333  -3.834   7.250  0.00  0.00    +0.126 C 
ATOM     24  C   UNL     1      -4.716  -2.777   8.263  0.00  0.00    +0.228 C 
ATOM     25  O   UNL     1      -5.205  -2.993   9.352  0.00  0.00    -0.275 OA
ATOM     26  N   UNL     1      -4.431  -1.567   7.768  0.00  0.00    -0.209 N 
ATOM     27  C   UNL     1      -3.891  -1.582   6.539  0.00  0.00    +0.245 C 
ATOM     28  O   UNL     1      -3.556  -0.605   5.904  0.00  0.00    -0.273 OA
BRANCH  26  29
ATOM     29  C   UNL     1      -4.673  -0.381   8.475  0.00  0.00    +0.044 A 
ATOM     30  C   UNL     1      -3.945  -0.094   9.622  0.00  0.00    +0.025 A 
ATOM     31  C   UNL     1      -4.185   1.075  10.317  0.00  0.00    +0.022 A 
ATOM     32  C   UNL     1      -5.151   1.960   9.871  0.00  0.00    +0.041 A 
ATOM     33  C   UNL     1      -5.878   1.676   8.729  0.00  0.00    +0.022 A 
ATOM     34  C   UNL     1      -5.637   0.511   8.027  0.00  0.00    +0.025 A 
ATOM     35 CL   UNL     1      -5.451   3.429  10.747  0.00  0.00    -0.084 Cl
ENDBRANCH  26  29
ENDBRANCH  20  22
ENDBRANCH   3  20
TORSDOF 7
