REMARK  Name = ZINC04308745
REMARK  4 active torsions:
REMARK  status: ('A' for Active; 'I' for Inactive)
REMARK    1  A    between atoms: C_1  and  C_2
REMARK    2  A    between atoms: N_11  and  C_15
REMARK    3  A    between atoms: C_15  and  C_16
REMARK    4  A    between atoms: C_19  and  C_21
REMARK                            x       y       z     vdW  Elec       q    Type
REMARK                         _______ _______ _______ _____ _____    ______ ____
ROOT
ATOM      1  C   UNL     1      -1.433  -0.534   0.044  0.00  0.00    +0.010 C 
ATOM      2  C   UNL     1       0.002  -0.004   0.002  0.00  0.00    +0.018 C 
ATOM      3  C   UNL     1       0.769  -0.512   1.226  0.00  0.00    +0.006 C 
ATOM      4  C   UNL     1       2.198   0.035   1.193  0.00  0.00    +0.000 C 
ATOM      5  C   UNL     1       2.162   1.564   1.223  0.00  0.00    +0.003 C 
ATOM      6  C   UNL     1       1.400   2.079  -0.000  0.00  0.00    +0.035 C 
ATOM      7  C   UNL     1      -0.019   1.520   0.010  0.00  0.00    +0.115 C 
ATOM      8  C   UNL     1      -0.801   2.044  -1.172  0.00  0.00    +0.247 C 
ATOM      9  O   UNL     1      -0.554   1.878  -2.347  0.00  0.00    -0.273 OA
ATOM     10  N   UNL     1      -1.832   2.736  -0.643  0.00  0.00    -0.218 N 
ATOM     11  C   UNL     1      -1.803   2.718   0.695  0.00  0.00    +0.310 C 
ATOM     12  O   UNL     1      -2.627   3.272   1.396  0.00  0.00    -0.252 OA
ATOM     13  N   UNL     1      -0.759   2.018   1.177  0.00  0.00    -0.285 N 
ATOM     14  H   UNL     1      -0.538   1.872   2.110  0.00  0.00    +0.151 HD
ENDROOT
BRANCH  10  15
ATOM     15  C   UNL     1      -2.856   3.422  -1.436  0.00  0.00    +0.173 C 
BRANCH  15  16
ATOM     16  C   UNL     1      -2.415   4.837  -1.709  0.00  0.00    +0.067 A 
ATOM     17  C   UNL     1      -1.772   5.138  -2.869  0.00  0.00    +0.072 A 
ATOM     18  S   UNL     1      -1.505   6.893  -2.652  0.00  0.00    -0.075 S 
ATOM     19  C   UNL     1      -2.269   7.032  -1.042  0.00  0.00    +0.109 A 
ATOM     20  N   UNL     1      -2.646   5.780  -0.826  0.00  0.00    -0.242 NA
BRANCH  19  21
ATOM     21  C   UNL     1      -2.434   8.223  -0.181  0.00  0.00    +0.007 A 
ATOM     22  C   UNL     1      -3.073   8.112   1.055  0.00  0.00    +0.010 A 
ATOM     23  C   UNL     1      -3.220   9.226   1.855  0.00  0.00    +0.001 A 
ATOM     24  C   UNL     1      -2.745  10.454   1.430  0.00  0.00    +0.000 A 
ATOM     25  C   UNL     1      -2.116  10.573   0.203  0.00  0.00    +0.001 A 
ATOM     26  C   UNL     1      -1.958   9.465  -0.604  0.00  0.00    +0.010 A 
ENDBRANCH  19  21
ENDBRANCH  15  16
ENDBRANCH  10  15
TORSDOF 3
