REMARK  Name = ZINC64370080
REMARK  8 active torsions:
REMARK  status: ('A' for Active; 'I' for Inactive)
REMARK    1  A    between atoms: C_1  and  C_2
REMARK    2  A    between atoms: C_7  and  N_8
REMARK    3  A    between atoms: C_9  and  C_11
REMARK    4  A    between atoms: C_11  and  S_12
REMARK    5  A    between atoms: S_12  and  C_13
REMARK    6  A    between atoms: C_16  and  C_21
REMARK    7  A    between atoms: N_17  and  C_18
REMARK    8  A    between atoms: C_22  and  N_30
REMARK                            x       y       z     vdW  Elec       q    Type
REMARK                         _______ _______ _______ _____ _____    ______ ____
ROOT
ATOM      1  C   UNL     1      -0.445  -0.116   7.684  0.00  0.00    +0.193 A 
ATOM      2  N   UNL     1      -0.446   1.197   7.710  0.00  0.00    -0.122 NA
ATOM      3  N   UNL     1      -0.474   1.616   8.925  0.00  0.00    -0.128 NA
ATOM      4  C   UNL     1      -0.493   0.593   9.752  0.00  0.00    +0.174 A 
ATOM      5  N   UNL     1      -0.481  -0.549   8.981  0.00  0.00    -0.299 N 
ENDROOT
BRANCH   4   6
ATOM      6  C   UNL     1      -0.526   0.657  11.220  0.00  0.00    +0.080 A 
ATOM      7  C   UNL     1      -0.550   1.762  12.016  0.00  0.00    +0.052 A 
ATOM      8  C   UNL     1      -0.582   1.583  13.459  0.00  0.00    +0.029 A 
ATOM      9  C   UNL     1      -0.609   2.571  14.475  0.00  0.00    +0.014 A 
ATOM     10  C   UNL     1      -0.636   2.171  15.791  0.00  0.00    +0.020 A 
ATOM     11  C   UNL     1      -0.635   0.823  16.115  0.00  0.00    +0.112 A 
ATOM     12  N   UNL     1      -0.609  -0.093  15.166  0.00  0.00    -0.248 NA
ATOM     13  C   UNL     1      -0.584   0.238  13.895  0.00  0.00    +0.111 A 
ATOM     14  S   UNL     1      -0.553  -0.693  12.383  0.00  0.00    -0.064 S 
BRANCH   7  15
ATOM     15  N   UNL     1      -0.544   3.046  11.455  0.00  0.00    -0.356 N 
ATOM     16  H   UNL     1      -0.523   3.154  10.491  0.00  0.00    +0.142 HD
ATOM     17  H   UNL     1      -0.561   3.826  12.030  0.00  0.00    +0.142 HD
ENDBRANCH   7  15
ENDBRANCH   4   6
BRANCH   5  18
ATOM     18  C   UNL     1      -0.499  -1.936   9.453  0.00  0.00    +0.091 C 
ATOM     19  C   UNL     1      -0.087  -3.025   8.460  0.00  0.00    +0.027 C 
ATOM     20  C   UNL     1      -1.556  -2.869   8.859  0.00  0.00    +0.027 C 
ENDBRANCH   5  18
BRANCH   1  21
ATOM     21  S   UNL     1      -0.411  -1.132   6.245  0.00  0.00    -0.077 S 
BRANCH  21  22
ATOM     22  C   UNL     1      -0.370   0.053   4.872  0.00  0.00    +0.173 C 
BRANCH  22  24
ATOM     23  N   UNL     1      -0.305  -0.015   2.400  0.00  0.00    -0.285 N 
ATOM     24  C   UNL     1      -0.339  -0.694   3.564  0.00  0.00    +0.227 C 
ATOM     25  O   UNL     1      -0.344  -1.907   3.558  0.00  0.00    -0.275 OA
ATOM     26  H   UNL     1      -0.232   0.952   2.405  0.00  0.00    +0.155 HD
BRANCH  23  33
ATOM     27  C   UNL     1      -1.670   1.220   0.231  0.00  0.00    +0.046 C 
ATOM     28  C   UNL     1      -1.033  -0.139   0.100  0.00  0.00    -0.028 A 
ATOM     29  C   UNL     1      -1.097  -0.820  -1.100  0.00  0.00    +0.025 A 
ATOM     30  C   UNL     1      -0.512  -2.068  -1.220  0.00  0.00    +0.041 A 
ATOM     31  C   UNL     1       0.139  -2.638  -0.139  0.00  0.00    +0.022 A 
ATOM     32  C   UNL     1       0.205  -1.961   1.062  0.00  0.00    +0.025 A 
ATOM     33  C   UNL     1      -0.376  -0.706   1.184  0.00  0.00    +0.036 A 
ATOM     34 CL   UNL     1      -0.595  -2.922  -2.729  0.00  0.00    -0.084 Cl
ENDBRANCH  23  33
ENDBRANCH  22  24
ENDBRANCH  21  22
ENDBRANCH   1  21
TORSDOF 7
