REMARK  Name = ZINC14540093
REMARK  7 active torsions:
REMARK  status: ('A' for Active; 'I' for Inactive)
REMARK    1  A    between atoms: C_1  and  C_2
REMARK    2  A    between atoms: C_2  and  N_3
REMARK    3  A    between atoms: C_6  and  C_8
REMARK    4  A    between atoms: C_18  and  N_62
REMARK    5  A    between atoms: C_22  and  C_23
REMARK    6  A    between atoms: C_22  and  N_62
REMARK    7  A    between atoms: C_23  and  C_24
REMARK                            x       y       z     vdW  Elec       q    Type
REMARK                         _______ _______ _______ _____ _____    ______ ____
ROOT
ATOM      1  N   UNL     1       0.382  10.347  -6.018  0.00  0.00    -0.268 N 
ATOM      2  C   UNL     1       0.298   9.402  -5.068  0.00  0.00    +0.043 A 
ATOM      3  C   UNL     1      -0.675   9.784  -4.205  0.00  0.00    +0.004 A 
ATOM      4  C   UNL     1      -1.163  11.009  -4.693  0.00  0.00    +0.151 A 
ATOM      5  N   UNL     1      -0.476  11.281  -5.789  0.00  0.00    -0.166 NA
ATOM      6  C   UNL     1      -1.096   9.004  -2.991  0.00  0.00    +0.023 C 
ATOM      7  C   UNL     1      -0.557   7.574  -3.127  0.00  0.00    -0.067 C 
ATOM      8  C   UNL     1       0.931   7.620  -3.485  0.00  0.00    -0.009 C 
ATOM      9  C   UNL     1       1.100   8.134  -4.921  0.00  0.00    +0.054 C 
ENDROOT
BRANCH   4  10
ATOM     10  C   UNL     1      -2.235  11.832  -4.096  0.00  0.00    +0.267 C 
ATOM     11  O   UNL     1      -2.717  11.518  -3.025  0.00  0.00    -0.268 OA
ATOM     12  N   UNL     1      -2.678  12.930  -4.739  0.00  0.00    -0.296 N 
ATOM     13  C   UNL     1      -2.169  13.210  -6.063  0.00  0.00    +0.108 C 
ATOM     14  C   UNL     1      -0.892  14.070  -5.964  0.00  0.00    +0.019 C 
ATOM     15  C   UNL     1      -1.229  15.437  -5.538  0.00  0.00    +0.002 C 
ATOM     16  C   UNL     1      -1.856  15.527  -4.150  0.00  0.00    +0.002 C 
ATOM     17  C   UNL     1      -3.342  15.293  -4.256  0.00  0.00    +0.019 C 
ATOM     18  C   UNL     1      -3.659  13.800  -4.061  0.00  0.00    +0.108 C 
ENDBRANCH   4  10
BRANCH   7  19
ATOM     19  N   UNL     1      -0.733   6.866  -1.845  0.00  0.00    +0.381 N 
ATOM     20  H   UNL     1      -1.602   7.182  -1.400  0.00  0.00    -0.086 HD
ATOM     21  H   UNL     1       0.062   7.076  -1.230  0.00  0.00    -0.086 HD
BRANCH  19  22
ATOM     22  C   UNL     1      -0.802   5.410  -2.069  0.00  0.00    -0.078 C 
BRANCH  22  23
ATOM     23  C   UNL     1      -0.984   4.703  -0.724  0.00  0.00    +0.016 C 
BRANCH  23  24
ATOM     24  C   UNL     1      -1.056   3.214  -0.944  0.00  0.00    -0.048 A 
ATOM     25  C   UNL     1      -2.278   2.607  -1.166  0.00  0.00    +0.003 A 
ATOM     26  C   UNL     1      -2.345   1.242  -1.373  0.00  0.00    +0.002 A 
ATOM     27  C   UNL     1      -1.190   0.482  -1.347  0.00  0.00    +0.020 A 
ATOM     28  C   UNL     1       0.033   1.089  -1.125  0.00  0.00    +0.041 A 
ATOM     29  C   UNL     1       0.099   2.456  -0.924  0.00  0.00    +0.023 A 
ATOM     30 CL   UNL     1       1.483   0.136  -1.099  0.00  0.00    -0.084 Cl
ENDBRANCH  23  24
ENDBRANCH  22  23
ENDBRANCH  19  22
ENDBRANCH   7  19
BRANCH   1  32
ATOM     31  C   UNL     1       0.656   9.604  -8.333  0.00  0.00    +0.029 C 
ATOM     32  C   UNL     1       1.312  10.320  -7.150  0.00  0.00    +0.140 C 
ENDBRANCH   1  32
TORSDOF 6
