REMARK  Name = ZINC58917244
REMARK  5 active torsions:
REMARK  status: ('A' for Active; 'I' for Inactive)
REMARK    1  A    between atoms: C_1  and  C_2
REMARK    2  A    between atoms: C_15  and  C_17
REMARK    3  A    between atoms: C_17  and  N_18
REMARK    4  A    between atoms: C_19  and  C_21
REMARK    5  A    between atoms: C_22  and  C_23
REMARK                            x       y       z     vdW  Elec       q    Type
REMARK                         _______ _______ _______ _____ _____    ______ ____
ROOT
ATOM      1  C   UNL     1      -0.116   1.523  -0.045  0.00  0.00    +0.008 C 
ATOM      2  C   UNL     1      -0.045  -0.005  -0.025  0.00  0.00    -0.008 C 
ATOM      3  C   UNL     1      -1.462  -0.583  -0.050  0.00  0.00    +0.022 C 
ATOM      4  C   UNL     1      -1.391  -2.113  -0.065  0.00  0.00    +0.108 C 
ATOM      5  N   UNL     1      -0.570  -2.562   1.069  0.00  0.00    -0.297 N 
ATOM      6  C   UNL     1       0.774  -1.995   1.229  0.00  0.00    +0.079 C 
ATOM      7  C   UNL     1       0.667  -0.468   1.252  0.00  0.00    +0.012 C 
ATOM      8  C   UNL     1      -0.161  -0.032   2.463  0.00  0.00    +0.005 C 
ATOM      9  C   UNL     1       0.499  -0.531   3.749  0.00  0.00    +0.000 C 
ATOM     10  C   UNL     1       0.570  -2.060   3.720  0.00  0.00    +0.002 C 
ATOM     11  C   UNL     1       1.402  -2.492   2.527  0.00  0.00    +0.023 C 
ATOM     12  C   UNL     1      -1.042  -3.475   1.942  0.00  0.00    +0.233 C 
ATOM     13  O   UNL     1      -0.307  -3.943   2.786  0.00  0.00    -0.274 OA
ENDROOT
BRANCH  12  14
ATOM     14  C   UNL     1      -2.481  -3.913   1.869  0.00  0.00    +0.200 C 
BRANCH  14  15
ATOM     15  N   UNL     1      -2.744  -4.903   2.917  0.00  0.00    -0.303 N 
ATOM     16  C   UNL     1      -3.974  -5.440   3.044  0.00  0.00    +0.237 C 
ATOM     17  O   UNL     1      -4.867  -5.103   2.288  0.00  0.00    -0.271 OA
ATOM     18  H   UNL     1      -2.033  -5.172   3.519  0.00  0.00    +0.149 HD
BRANCH  16  19
ATOM     19  C   UNL     1      -4.227  -6.396   4.056  0.00  0.00    +0.071 C 
ATOM     20  C   UNL     1      -5.465  -6.936   4.184  0.00  0.00    +0.051 C 
BRANCH  20  21
ATOM     21  C   UNL     1      -5.718  -7.893   5.197  0.00  0.00    +0.128 A 
ATOM     22  C   UNL     1      -6.921  -8.524   5.436  0.00  0.00    +0.049 A 
ATOM     23  C   UNL     1      -6.712  -9.383   6.526  0.00  0.00    +0.042 A 
ATOM     24  C   UNL     1      -5.421  -9.246   6.901  0.00  0.00    +0.195 A 
ATOM     25  O   UNL     1      -4.825  -8.354   6.097  0.00  0.00    -0.464 OA
ENDBRANCH  20  21
ENDBRANCH  16  19
ENDBRANCH  14  15
ENDBRANCH  12  14
TORSDOF 4
