REMARK  Name = ZINC35933506
REMARK  8 active torsions:
REMARK  status: ('A' for Active; 'I' for Inactive)
REMARK    1  A    between atoms: C_1  and  C_2
REMARK    2  A    between atoms: C_2  and  C_3
REMARK    3  A    between atoms: C_2  and  N_4
REMARK    4  A    between atoms: C_5  and  C_7
REMARK    5  A    between atoms: C_17  and  C_19
REMARK    6  A    between atoms: C_19  and  C_20
REMARK    7  A    between atoms: C_19  and  C_21
REMARK    8  A    between atoms: C_19  and  C_22
REMARK                            x       y       z     vdW  Elec       q    Type
REMARK                         _______ _______ _______ _____ _____    ______ ____
ROOT
ATOM      1  C   UNL     1      -3.151  -2.251  -0.316  0.00  0.00    +0.152 A 
ATOM      2  C   UNL     1      -3.555  -3.494  -0.830  0.00  0.00    +0.023 A 
ATOM      3  C   UNL     1      -4.897  -3.556  -0.650  0.00  0.00    +0.043 A 
ATOM      4  N   UNL     1      -5.271  -2.406  -0.064  0.00  0.00    -0.280 N 
ATOM      5  H   UNL     1      -6.181  -2.176   0.180  0.00  0.00    +0.189 HD
ATOM      6  N   UNL     1      -4.242  -1.655   0.133  0.00  0.00    -0.169 NA
ATOM      7  C   UNL     1      -5.753  -4.730  -1.051  0.00  0.00    +0.074 C 
ATOM      8  C   UNL     1      -4.976  -5.585  -2.059  0.00  0.00    +0.114 C 
ATOM      9  N   UNL     1      -3.598  -5.770  -1.582  0.00  0.00    -0.296 N 
ATOM     10  C   UNL     1      -2.732  -4.582  -1.466  0.00  0.00    +0.147 C 
ATOM     11  C   UNL     1      -3.138  -6.995  -1.257  0.00  0.00    +0.221 C 
ATOM     12  O   UNL     1      -1.972  -7.144  -0.958  0.00  0.00    -0.275 OA
ENDROOT
BRANCH   1  14
ATOM     13  N   UNL     1      -1.538  -0.501   0.253  0.00  0.00    -0.308 N 
ATOM     14  C   UNL     1      -1.774  -1.716  -0.279  0.00  0.00    +0.265 C 
ATOM     15  O   UNL     1      -0.855  -2.372  -0.729  0.00  0.00    -0.268 OA
ATOM     16  H   UNL     1      -2.271   0.022   0.612  0.00  0.00    +0.149 HD
BRANCH  13  18
ATOM     17  C   UNL     1      -0.220   1.558   0.334  0.00  0.00    +0.027 C 
ATOM     18  C   UNL     1      -0.172   0.029   0.290  0.00  0.00    +0.067 C 
ATOM     19  C   UNL     1       0.545  -0.494   1.536  0.00  0.00    +0.027 C 
ENDBRANCH  13  18
ENDBRANCH   1  14
BRANCH  11  20
ATOM     20  C   UNL     1      -4.072  -8.177  -1.266  0.00  0.00    +0.039 C 
ATOM     21  C   UNL     1      -3.347  -9.404  -0.708  0.00  0.00    +0.020 C 
ATOM     22  C   UNL     1      -5.294  -7.869  -0.398  0.00  0.00    +0.020 C 
ATOM     23  C   UNL     1      -4.523  -8.460  -2.700  0.00  0.00    +0.020 C 
ENDBRANCH  11  20
TORSDOF 3
