REMARK  Name = ZINC09590810
REMARK  9 active torsions:
REMARK  status: ('A' for Active; 'I' for Inactive)
REMARK    1  A    between atoms: C_3  and  N_12
REMARK    2  A    between atoms: C_4  and  C_10
REMARK    3  A    between atoms: C_6  and  N_7
REMARK    4  A    between atoms: C_13  and  C_15
REMARK    5  A    between atoms: C_15  and  O_16
REMARK    6  A    between atoms: O_16  and  C_17
REMARK    7  A    between atoms: C_17  and  C_19
REMARK    8  A    between atoms: N_22  and  C_25
REMARK    9  A    between atoms: C_28  and  C_30
REMARK                            x       y       z     vdW  Elec       q    Type
REMARK                         _______ _______ _______ _____ _____    ______ ____
ROOT
ATOM      1  C   UNL     1      -5.392   3.718   7.881  0.00  0.00    +0.311 C 
ATOM      2  O   UNL     1      -5.965   4.774   7.761  0.00  0.00    -0.251 OA
ENDROOT
BRANCH   1   3
ATOM      3  C   UNL     1      -4.741   3.073   6.685  0.00  0.00    +0.101 C 
ATOM      4  C   UNL     1      -4.950   3.954   5.451  0.00  0.00    +0.033 C 
ATOM      5  C   UNL     1      -4.237   3.324   4.252  0.00  0.00    +0.107 C 
ATOM      6  N   UNL     1      -2.804   3.196   4.546  0.00  0.00    -0.317 N 
ATOM      7  C   UNL     1      -2.575   2.315   5.699  0.00  0.00    +0.107 C 
ATOM      8  C   UNL     1      -3.239   2.915   6.941  0.00  0.00    +0.033 C 
BRANCH   6   9
ATOM      9  C   UNL     1      -2.105   2.748   3.431  0.00  0.00    +0.099 A 
ATOM     10  C   UNL     1      -0.728   2.562   3.510  0.00  0.00    +0.042 A 
ATOM     11  C   UNL     1      -0.045   2.117   2.393  0.00  0.00    +0.017 A 
ATOM     12  C   UNL     1      -0.764   1.871   1.230  0.00  0.00    +0.071 A 
ATOM     13  C   UNL     1      -2.128   2.083   1.222  0.00  0.00    +0.096 A 
ATOM     14  N   UNL     1      -2.833   2.514   2.302  0.00  0.00    -0.349 N 
ATOM     15  H   UNL     1      -3.849   2.655   2.269  0.00  0.00    +0.167 HD
BRANCH  12  16
ATOM     16  C   UNL     1      -0.062   1.385  -0.011  0.00  0.00    +0.419 C 
ATOM     17  F   UNL     1      -0.035  -0.014  -0.014  0.00  0.00    -0.166 F 
ATOM     18  F   UNL     1       1.248   1.876  -0.029  0.00  0.00    -0.166 F 
ATOM     19  F   UNL     1      -0.746   1.840  -1.143  0.00  0.00    -0.166 F 
ENDBRANCH  12  16
ENDBRANCH   6   9
ENDBRANCH   1   3
BRANCH   1  20
ATOM     20  O   UNL     1      -5.335   3.118   9.081  0.00  0.00    -0.455 OA
BRANCH  20  21
ATOM     21  C   UNL     1      -5.984   3.797  10.188  0.00  0.00    +0.328 C 
BRANCH  21  23
ATOM     22  N   UNL     1      -6.341   3.418  12.606  0.00  0.00    -0.282 N 
ATOM     23  C   UNL     1      -5.817   2.981  11.444  0.00  0.00    +0.255 C 
ATOM     24  O   UNL     1      -5.211   1.931  11.410  0.00  0.00    -0.272 OA
ATOM     25  H   UNL     1      -6.756   4.294  12.652  0.00  0.00    +0.155 HD
BRANCH  22  28
ATOM     26  C   UNL     1      -6.139   0.436  14.742  0.00  0.00    +0.034 A 
ATOM     27  C   UNL     1      -6.192   1.233  13.615  0.00  0.00    +0.027 A 
ATOM     28  C   UNL     1      -6.288   2.612  13.742  0.00  0.00    +0.051 A 
ATOM     29  C   UNL     1      -6.325   3.190  15.020  0.00  0.00    +0.075 A 
ATOM     30  C   UNL     1      -6.275   2.371  16.150  0.00  0.00    +0.053 A 
ATOM     31  C   UNL     1      -6.180   1.003  16.004  0.00  0.00    +0.128 A 
BRANCH  31  32
ATOM     32  N   UNL     1      -6.122   0.137  17.203  0.00  0.00    +0.056 N 
ATOM     33  O   UNL     1      -6.038  -1.071  17.078  0.00  0.00    -0.126 OA
ATOM     34  O   UNL     1      -6.158   0.633  18.315  0.00  0.00    -0.126 OA
ENDBRANCH  31  32
BRANCH  29  35
ATOM     35  C   UNL     1      -6.418   4.612  15.165  0.00  0.00    +0.101 C 
ATOM     36  N   UNL     1      -6.492   5.740  15.279  0.00  0.00    -0.191 NA
ENDBRANCH  29  35
ENDBRANCH  22  28
ENDBRANCH  21  23
ENDBRANCH  20  21
ENDBRANCH   1  20
TORSDOF 9
