REMARK  Name = ZINC00931010
REMARK  9 active torsions:
REMARK  status: ('A' for Active; 'I' for Inactive)
REMARK    1  A    between atoms: C_1  and  O_2
REMARK    2  A    between atoms: O_2  and  C_3
REMARK    3  A    between atoms: C_3  and  C_5
REMARK    4  A    between atoms: C_9  and  N_11
REMARK    5  A    between atoms: N_11  and  C_12
REMARK    6  A    between atoms: C_12  and  C_14
REMARK    7  A    between atoms: C_12  and  C_19
REMARK    8  A    between atoms: N_21  and  C_22
REMARK    9  A    between atoms: C_28  and  C_30
REMARK                            x       y       z     vdW  Elec       q    Type
REMARK                         _______ _______ _______ _____ _____    ______ ____
ROOT
ATOM      1  N   UNL     1       0.310   5.135  -0.106  0.00  0.00    -0.252 N 
ATOM      2  C   UNL     1      -1.002   5.439  -0.154  0.00  0.00    +0.265 C 
ATOM      3  O   UNL     1      -1.831   4.556  -0.099  0.00  0.00    -0.271 OA
ENDROOT
BRANCH   2   4
ATOM      4  C   UNL     1      -1.438   6.877  -0.276  0.00  0.00    +0.296 C 
ATOM      5  C   UNL     1      -1.283   7.582   1.078  0.00  0.00    +0.283 C 
ATOM      6  O   UNL     1      -1.718   8.938   0.930  0.00  0.00    -0.484 OA
ATOM      7  C   UNL     1      -2.894   9.134   0.275  0.00  0.00    +0.162 A 
ATOM      8  C   UNL     1      -3.549  10.350   0.401  0.00  0.00    +0.049 A 
ATOM      9  C   UNL     1      -4.742  10.567  -0.263  0.00  0.00    +0.004 A 
ATOM     10  C   UNL     1      -5.285   9.573  -1.055  0.00  0.00    +0.004 A 
ATOM     11  C   UNL     1      -4.638   8.358  -1.185  0.00  0.00    +0.049 A 
ATOM     12  C   UNL     1      -3.442   8.134  -0.520  0.00  0.00    +0.163 A 
ATOM     13  O   UNL     1      -2.818   6.932  -0.655  0.00  0.00    -0.472 OA
ENDBRANCH   2   4
BRANCH   1  18
ATOM     14  C   UNL     1       2.468   2.146  -0.160  0.00  0.00    +0.061 A 
ATOM     15  C   UNL     1       1.510   1.135  -0.063  0.00  0.00    +0.015 A 
ATOM     16  C   UNL     1       0.171   1.459   0.022  0.00  0.00    +0.003 A 
ATOM     17  C   UNL     1      -0.227   2.783   0.008  0.00  0.00    +0.023 A 
ATOM     18  C   UNL     1       0.719   3.797  -0.093  0.00  0.00    +0.038 A 
ATOM     19  C   UNL     1       2.066   3.482  -0.179  0.00  0.00    +0.038 A 
BRANCH  14  20
ATOM     20  C   UNL     1       3.902   1.803  -0.246  0.00  0.00    +0.339 C 
ATOM     21  O   UNL     1       4.734   2.684  -0.330  0.00  0.00    -0.245 OA
BRANCH  20  23
ATOM     22  C   UNL     1       5.713   0.248  -0.319  0.00  0.00    +0.280 C 
ATOM     23  O   UNL     1       4.288   0.512  -0.231  0.00  0.00    -0.464 OA
ENDBRANCH  20  23
ENDBRANCH  14  20
ENDBRANCH   1  18
BRANCH   1  24
ATOM     24  C   UNL     1       1.310   6.206  -0.068  0.00  0.00    +0.204 C 
BRANCH  24  25
ATOM     25  C   UNL     1       2.116   6.186  -1.341  0.00  0.00    +0.019 A 
ATOM     26  C   UNL     1       2.824   7.188  -1.919  0.00  0.00    +0.013 A 
ATOM     27  C   UNL     1       3.498   6.938  -3.099  0.00  0.00    +0.008 A 
ATOM     28  C   UNL     1       3.423   5.701  -3.649  0.00  0.00    +0.045 A 
ATOM     29  S   UNL     1       2.381   4.840  -2.483  0.00  0.00    -0.099 S 
ENDBRANCH  24  25
BRANCH  24  30
ATOM     30  C   UNL     1       2.225   5.997   1.111  0.00  0.00    +0.239 C 
ATOM     31  O   UNL     1       2.060   5.047   1.846  0.00  0.00    -0.273 OA
ATOM     32  N   UNL     1       3.228   6.866   1.347  0.00  0.00    -0.311 N 
ATOM     33  H   UNL     1       3.361   7.625   0.759  0.00  0.00    +0.149 HD
BRANCH  32  34
ATOM     34  C   UNL     1       4.119   6.662   2.493  0.00  0.00    +0.073 C 
ATOM     35  C   UNL     1       3.488   7.276   3.744  0.00  0.00    +0.022 C 
ATOM     36  C   UNL     1       4.418   7.064   4.941  0.00  0.00    +0.002 C 
ATOM     37  C   UNL     1       5.764   7.736   4.666  0.00  0.00    +0.000 C 
ATOM     38  C   UNL     1       6.395   7.122   3.414  0.00  0.00    +0.002 C 
ATOM     39  C   UNL     1       5.465   7.335   2.218  0.00  0.00    +0.022 C 
ENDBRANCH  32  34
ENDBRANCH  24  30
ENDBRANCH   1  24
TORSDOF 8
