REMARK  Name = ZINC44737029
REMARK  10 active torsions:
REMARK  status: ('A' for Active; 'I' for Inactive)
REMARK    1  A    between atoms: C_1  and  C_2
REMARK    2  A    between atoms: C_9  and  C_11
REMARK    3  A    between atoms: C_11  and  C_13
REMARK    4  A    between atoms: C_11  and  N_14
REMARK    5  A    between atoms: C_15  and  C_17
REMARK    6  A    between atoms: C_28  and  C_30
REMARK    7  A    between atoms: C_32  and  O_38
REMARK    8  A    between atoms: C_34  and  O_36
REMARK    9  A    between atoms: O_36  and  C_37
REMARK   10  A    between atoms: O_38  and  C_39
REMARK                            x       y       z     vdW  Elec       q    Type
REMARK                         _______ _______ _______ _____ _____    ______ ____
ROOT
ATOM      1  C   UNL     1       2.052  -9.041   0.393  0.00  0.00    +0.100 C 
ATOM      2  C   UNL     1       3.134  -8.144  -0.249  0.00  0.00    +0.121 C 
ATOM      3  N   UNL     1       4.354  -8.397   0.552  0.00  0.00    -0.296 N 
ATOM      4  C   UNL     1       4.321  -9.854   0.825  0.00  0.00    +0.115 C 
ATOM      5  C   UNL     1       2.835 -10.164   1.093  0.00  0.00    -0.004 C 
ATOM      6  C   UNL     1       2.462 -11.519   0.499  0.00  0.00    -0.010 C 
ATOM      7  C   UNL     1       3.209 -12.624   1.251  0.00  0.00    -0.082 C 
ATOM      8  N   UNL     1       2.853 -12.577   2.674  0.00  0.00    +0.379 N 
ATOM      9  C   UNL     1       3.299 -11.307   3.260  0.00  0.00    -0.082 C 
ATOM     10  C   UNL     1       2.555 -10.146   2.593  0.00  0.00    -0.010 C 
ATOM     11  C   UNL     1       5.284  -7.504   0.945  0.00  0.00    +0.247 C 
ATOM     12  O   UNL     1       5.108  -6.317   0.750  0.00  0.00    -0.270 OA
ATOM     13  H   UNL     1       1.852 -12.658   2.772  0.00  0.00    -0.086 HD
ATOM     14  H   UNL     1       3.298 -13.343   3.156  0.00  0.00    -0.086 HD
ENDROOT
BRANCH  11  15
ATOM     15  C   UNL     1       6.519  -7.968   1.614  0.00  0.00    +0.044 A 
ATOM     16  C   UNL     1       6.942  -9.288   1.461  0.00  0.00    +0.059 A 
ATOM     17  C   UNL     1       8.100  -9.719   2.089  0.00  0.00    +0.124 A 
ATOM     18  C   UNL     1       8.837  -8.839   2.868  0.00  0.00    +0.091 A 
ATOM     19  C   UNL     1       8.419  -7.525   3.022  0.00  0.00    +0.124 A 
ATOM     20  C   UNL     1       7.266  -7.085   2.394  0.00  0.00    +0.059 A 
BRANCH  19  21
ATOM     21  O   UNL     1       9.145  -6.668   3.787  0.00  0.00    -0.495 OA
ATOM     22  C   UNL     1      10.326  -7.187   4.401  0.00  0.00    +0.277 C 
ENDBRANCH  19  21
BRANCH  17  23
ATOM     23  O   UNL     1       8.514 -11.005   1.941  0.00  0.00    -0.495 OA
ATOM     24  C   UNL     1       9.716 -11.381   2.616  0.00  0.00    +0.277 C 
ENDBRANCH  17  23
ENDBRANCH  11  15
BRANCH   1  26
ATOM     25  N   UNL     1      -0.001  -8.650   1.716  0.00  0.00    -0.305 N 
ATOM     26  C   UNL     1       1.248  -8.256   1.397  0.00  0.00    +0.219 C 
ATOM     27  O   UNL     1       1.724  -7.270   1.918  0.00  0.00    -0.275 OA
ATOM     28  H   UNL     1      -0.382  -9.439   1.300  0.00  0.00    +0.149 HD
BRANCH  25  29
ATOM     29  C   UNL     1      -0.783  -7.888   2.693  0.00  0.00    +0.136 C 
ATOM     30  C   UNL     1      -0.431  -8.356   4.106  0.00  0.00    +0.036 C 
BRANCH  29  39
ATOM     31  C   UNL     1      -8.196  -7.787   2.047  0.00  0.00    +0.044 C 
ATOM     32  C   UNL     1      -6.754  -8.217   1.962  0.00  0.00    -0.048 A 
ATOM     33  C   UNL     1      -6.431  -9.430   1.369  0.00  0.00    +0.005 A 
ATOM     34  C   UNL     1      -5.130  -9.838   1.282  0.00  0.00    +0.030 A 
ATOM     35  C   UNL     1      -4.111  -9.029   1.794  0.00  0.00    +0.089 A 
ATOM     36  C   UNL     1      -4.438  -7.801   2.393  0.00  0.00    +0.067 A 
ATOM     37  C   UNL     1      -5.765  -7.401   2.468  0.00  0.00    +0.031 A 
ATOM     38  N   UNL     1      -3.241  -7.242   2.793  0.00  0.00    -0.340 N 
ATOM     39  C   UNL     1      -2.252  -8.108   2.442  0.00  0.00    +0.128 A 
ATOM     40  N   UNL     1      -2.760  -9.153   1.857  0.00  0.00    -0.231 NA
ATOM     41  H   UNL     1      -3.126  -6.389   3.241  0.00  0.00    +0.167 HD
ENDBRANCH  29  39
ENDBRANCH  25  29
ENDBRANCH   1  26
TORSDOF 6
