REMARK  Name = ZINC13032756
REMARK  10 active torsions:
REMARK  status: ('A' for Active; 'I' for Inactive)
REMARK    1  A    between atoms: C_1  and  C_2
REMARK    2  A    between atoms: C_7  and  C_15
REMARK    3  A    between atoms: C_13  and  C_14
REMARK    4  A    between atoms: C_15  and  N_63
REMARK    5  A    between atoms: C_16  and  C_17
REMARK    6  A    between atoms: C_16  and  N_63
REMARK    7  A    between atoms: C_24  and  C_25
REMARK    8  A    between atoms: C_24  and  N_63
REMARK    9  A    between atoms: N_29  and  C_30
REMARK   10  A    between atoms: C_30  and  C_31
REMARK                            x       y       z     vdW  Elec       q    Type
REMARK                         _______ _______ _______ _____ _____    ______ ____
ROOT
ATOM      1  N   UNL     1       1.566  -2.061  -1.360  0.00  0.00    +0.390 N 
ATOM      2  H   UNL     1       0.845  -1.833  -2.054  0.00  0.00    -0.080 HD
ENDROOT
BRANCH   1   3
ATOM      3  C   UNL     1       1.395  -3.467  -0.935  0.00  0.00    -0.036 C 
BRANCH   3  10
ATOM      4  C   UNL     1      -6.379  -5.252  -0.963  0.00  0.00    +0.044 C 
ATOM      5  C   UNL     1      -4.910  -4.992  -1.178  0.00  0.00    -0.046 A 
ATOM      6  C   UNL     1      -4.333  -5.289  -2.405  0.00  0.00    +0.004 A 
ATOM      7  C   UNL     1      -3.003  -5.061  -2.621  0.00  0.00    +0.010 A 
ATOM      8  C   UNL     1      -2.217  -4.523  -1.597  0.00  0.00    -0.001 A 
ATOM      9  C   UNL     1      -0.790  -4.261  -1.796  0.00  0.00    +0.017 A 
ATOM     10  C   UNL     1      -0.076  -3.744  -0.765  0.00  0.00    +0.001 A 
ATOM     11  C   UNL     1      -0.708  -3.459   0.464  0.00  0.00    +0.251 A 
ATOM     12  O   UNL     1      -0.049  -2.991   1.376  0.00  0.00    -0.268 OA
ATOM     13  N   UNL     1      -2.019  -3.692   0.655  0.00  0.00    -0.322 N 
ATOM     14  H   UNL     1      -2.421  -3.485   1.512  0.00  0.00    +0.169 HD
ATOM     15  C   UNL     1      -2.799  -4.221  -0.352  0.00  0.00    +0.052 A 
ATOM     16  C   UNL     1      -4.154  -4.462  -0.155  0.00  0.00    -0.024 A 
ATOM     17  C   UNL     1      -4.794  -4.145   1.172  0.00  0.00    +0.046 C 
ENDBRANCH   3  10
ENDBRANCH   1   3
BRANCH   1  18
ATOM     18  C   UNL     1       2.898  -1.877  -1.972  0.00  0.00    -0.042 C 
BRANCH  18  19
ATOM     19  C   UNL     1       2.899  -2.525  -3.333  0.00  0.00    -0.064 A 
ATOM     20  C   UNL     1       3.398  -3.804  -3.489  0.00  0.00    +0.004 A 
ATOM     21  C   UNL     1       3.394  -4.401  -4.736  0.00  0.00    +0.038 A 
ATOM     22  C   UNL     1       2.901  -3.712  -5.831  0.00  0.00    +0.123 A 
ATOM     23  C   UNL     1       2.407  -2.429  -5.675  0.00  0.00    +0.038 A 
ATOM     24  C   UNL     1       2.406  -1.836  -4.426  0.00  0.00    +0.004 A 
ATOM     25  F   UNL     1       2.902  -4.293  -7.051  0.00  0.00    -0.205 F 
ENDBRANCH  18  19
ENDBRANCH   1  18
BRANCH   1  26
ATOM     26  C   UNL     1       1.416  -1.161  -0.197  0.00  0.00    +0.001 C 
BRANCH  26  27
ATOM     27  C   UNL     1       1.440   0.266  -0.680  0.00  0.00    +0.135 A 
ATOM     28  N   UNL     1       2.503   1.004  -0.888  0.00  0.00    -0.115 NA
ATOM     29  N   UNL     1       2.111   2.162  -1.296  0.00  0.00    -0.023 NA
ATOM     30  N   UNL     1       0.825   2.181  -1.355  0.00  0.00    -0.044 NA
ATOM     31  N   UNL     1       0.374   1.031  -0.983  0.00  0.00    -0.227 N 
BRANCH  31  32
ATOM     32  C   UNL     1      -1.033   0.631  -0.904  0.00  0.00    +0.182 C 
BRANCH  32  33
ATOM     33  C   UNL     1      -1.508   0.195  -2.267  0.00  0.00    -0.026 A 
ATOM     34  C   UNL     1      -1.960   1.135  -3.174  0.00  0.00    +0.008 A 
ATOM     35  C   UNL     1      -2.391   0.737  -4.425  0.00  0.00    +0.038 A 
ATOM     36  C   UNL     1      -2.381  -0.605  -4.766  0.00  0.00    +0.123 A 
ATOM     37  C   UNL     1      -1.934  -1.546  -3.854  0.00  0.00    +0.038 A 
ATOM     38  C   UNL     1      -1.498  -1.145  -2.605  0.00  0.00    +0.008 A 
ATOM     39  F   UNL     1      -2.807  -0.996  -5.987  0.00  0.00    -0.205 F 
ENDBRANCH  32  33
ENDBRANCH  31  32
ENDBRANCH  26  27
ENDBRANCH   1  26
TORSDOF 8
