REMARK  Name = ZINC43287709
REMARK  13 active torsions:
REMARK  status: ('A' for Active; 'I' for Inactive)
REMARK    1  A    between atoms: C_1  and  C_2
REMARK    2  A    between atoms: C_2  and  C_3
REMARK    3  A    between atoms: C_3  and  C_5
REMARK    4  A    between atoms: C_3  and  N_22
REMARK    5  A    between atoms: C_5  and  C_7
REMARK    6  A    between atoms: C_5  and  N_13
REMARK    7  A    between atoms: N_13  and  C_14
REMARK    8  A    between atoms: N_13  and  C_15
REMARK    9  A    between atoms: C_15  and  C_17
REMARK   10  A    between atoms: C_15  and  C_18
REMARK   11  A    between atoms: C_18  and  C_19
REMARK   12  A    between atoms: C_18  and  C_20
REMARK   13  A    between atoms: C_18  and  C_21
REMARK                            x       y       z     vdW  Elec       q    Type
REMARK                         _______ _______ _______ _____ _____    ______ ____
ROOT
ATOM      1  C   UNL     1      -1.285  -1.823   0.779  0.00  0.00    +0.079 C 
ENDROOT
BRANCH   1   2
ATOM      2  C   UNL     1      -1.569  -2.810  -0.323  0.00  0.00    +0.006 A 
ATOM      3  C   UNL     1      -1.811  -2.577  -1.637  0.00  0.00    +0.028 A 
ATOM      4  C   UNL     1      -2.050  -3.650  -2.475  0.00  0.00    +0.025 A 
ATOM      5  C   UNL     1      -2.035  -4.904  -1.959  0.00  0.00    +0.060 A 
ATOM      6  S   UNL     1      -1.667  -4.591  -0.240  0.00  0.00    -0.099 S 
ATOM      7 BR   UNL     1      -2.392  -3.374  -4.314  0.00  0.00    -0.050 Br
ENDBRANCH   1   2
BRANCH   1   8
ATOM      8  N   UNL     1      -0.011  -2.165   1.426  0.00  0.00    -0.296 NA
ATOM      9  C   UNL     1       0.083  -3.610   1.673  0.00  0.00    +0.105 C 
BRANCH   8  10
ATOM     10  C   UNL     1       1.128  -1.692   0.629  0.00  0.00    +0.059 C 
ATOM     11  C   UNL     1       0.794  -1.811  -0.859  0.00  0.00    +0.024 C 
BRANCH  10  12
ATOM     12  C   UNL     1       1.418  -0.229   0.971  0.00  0.00    -0.022 C 
ATOM     13  C   UNL     1       1.734  -0.107   2.463  0.00  0.00    +0.012 C 
ATOM     14  C   UNL     1       2.616   0.258   0.154  0.00  0.00    +0.012 C 
ATOM     15  C   UNL     1       0.193   0.625   0.638  0.00  0.00    +0.012 C 
ENDBRANCH  10  12
ENDBRANCH   8  10
ENDBRANCH   1   8
BRANCH   1  16
ATOM     16  C   UNL     1      -2.412  -1.874   1.813  0.00  0.00    -0.053 C 
BRANCH  16  17
ATOM     17  N   UNL     1      -3.696  -1.608   1.150  0.00  0.00    +0.381 N 
ATOM     18  H   UNL     1      -3.859  -2.307   0.441  0.00  0.00    -0.090 HD
ATOM     19  H   UNL     1      -4.439  -1.642   1.832  0.00  0.00    -0.090 HD
ATOM     20  H   UNL     1      -3.672  -0.694   0.724  0.00  0.00    -0.090 HD
ENDBRANCH  16  17
BRANCH  16  22
ATOM     21  C   UNL     1      -3.213  -0.957   3.995  0.00  0.00    +0.002 C 
ATOM     22  C   UNL     1      -2.165  -0.815   2.889  0.00  0.00    -0.018 C 
ENDBRANCH  16  22
ENDBRANCH   1  16
TORSDOF 7
