REMARK  Name = ZINC20683096
REMARK  11 active torsions:
REMARK  status: ('A' for Active; 'I' for Inactive)
REMARK    1  A    between atoms: C_1  and  N_2
REMARK    2  A    between atoms: N_2  and  C_3
REMARK    3  A    between atoms: N_2  and  S_9
REMARK    4  A    between atoms: S_9  and  C_12
REMARK    5  A    between atoms: C_25  and  C_28
REMARK    6  A    between atoms: C_30  and  O_38
REMARK    7  A    between atoms: C_31  and  O_36
REMARK    8  A    between atoms: C_32  and  O_34
REMARK    9  A    between atoms: O_34  and  C_35
REMARK   10  A    between atoms: O_36  and  C_37
REMARK   11  A    between atoms: O_38  and  C_39
REMARK                            x       y       z     vdW  Elec       q    Type
REMARK                         _______ _______ _______ _____ _____    ______ ____
ROOT
ATOM      1  C   UNL     1       1.682  -1.059  -1.905  0.00  0.00    +0.106 A 
ATOM      2  C   UNL     1       2.324  -0.109  -2.677  0.00  0.00    +0.030 A 
ATOM      3  C   UNL     1       3.643  -0.287  -3.040  0.00  0.00    +0.025 A 
ATOM      4  C   UNL     1       4.335  -1.422  -2.637  0.00  0.00    +0.031 A 
ATOM      5  C   UNL     1       3.675  -2.386  -1.866  0.00  0.00    -0.018 A 
ATOM      6  C   UNL     1       2.362  -2.192  -1.496  0.00  0.00    +0.034 A 
ATOM      7  C   UNL     1       4.435  -3.598  -1.491  0.00  0.00    +0.049 C 
ATOM      8  C   UNL     1       4.118  -4.375  -0.265  0.00  0.00    -0.023 C 
ATOM      9  C   UNL     1       5.239  -4.919   0.194  0.00  0.00    -0.030 C 
ATOM     10  C   UNL     1       6.419  -4.510  -0.690  0.00  0.00    +0.033 C 
ATOM     11  C   UNL     1       5.916  -3.176  -1.248  0.00  0.00    +0.029 C 
ATOM     12  C   UNL     1       6.450  -2.772  -2.610  0.00  0.00    +0.105 C 
ATOM     13  N   UNL     1       5.679  -1.571  -3.001  0.00  0.00    -0.336 N 
ATOM     14  H   UNL     1       6.112  -0.874  -3.518  0.00  0.00    +0.147 HD
ENDROOT
BRANCH  12  15
ATOM     15  C   UNL     1       7.918  -2.443  -2.517  0.00  0.00    -0.020 A 
ATOM     16  C   UNL     1       8.320  -1.212  -2.036  0.00  0.00    +0.055 A 
ATOM     17  C   UNL     1       9.669  -0.906  -1.949  0.00  0.00    +0.165 A 
ATOM     18  C   UNL     1      10.619  -1.840  -2.347  0.00  0.00    +0.204 A 
ATOM     19  C   UNL     1      10.211  -3.077  -2.830  0.00  0.00    +0.165 A 
ATOM     20  C   UNL     1       8.859  -3.377  -2.909  0.00  0.00    +0.055 A 
BRANCH  19  21
ATOM     21  O   UNL     1      11.136  -3.994  -3.220  0.00  0.00    -0.491 OA
ATOM     22  C   UNL     1      10.644  -5.245  -3.707  0.00  0.00    +0.277 C 
ENDBRANCH  19  21
BRANCH  18  23
ATOM     23  O   UNL     1      11.944  -1.543  -2.264  0.00  0.00    -0.488 OA
ATOM     24  C   UNL     1      12.608  -1.873  -1.042  0.00  0.00    +0.277 C 
ENDBRANCH  18  23
BRANCH  17  25
ATOM     25  O   UNL     1      10.064   0.307  -1.476  0.00  0.00    -0.491 OA
ATOM     26  C   UNL     1       9.034   1.217  -1.086  0.00  0.00    +0.277 C 
ENDBRANCH  17  25
ENDBRANCH  12  15
BRANCH   1  27
ATOM     27  S   UNL     1      -0.000  -0.824  -1.437  0.00  0.00    +0.061 S 
ATOM     28  O   UNL     1      -0.531  -2.115  -1.167  0.00  0.00    -0.153 OA
ATOM     29  O   UNL     1      -0.572   0.049  -2.401  0.00  0.00    -0.153 OA
BRANCH  27  31
ATOM     30  C   UNL     1      -0.018   1.461   0.010  0.00  0.00    +0.132 C 
ATOM     31  N   UNL     1       0.002  -0.004   0.002  0.00  0.00    -0.177 NA
BRANCH  31  32
ATOM     32  C   UNL     1       0.024  -0.743   1.267  0.00  0.00    +0.080 C 
ATOM     33  C   UNL     1      -1.222  -0.395   2.083  0.00  0.00    +0.020 C 
ATOM     34  C   UNL     1      -1.199  -1.167   3.404  0.00  0.00    +0.002 C 
ATOM     35  C   UNL     1       0.052  -0.785   4.196  0.00  0.00    +0.000 C 
ATOM     36  C   UNL     1       1.299  -1.133   3.380  0.00  0.00    +0.002 C 
ATOM     37  C   UNL     1       1.276  -0.361   2.059  0.00  0.00    +0.020 C 
ENDBRANCH  31  32
ENDBRANCH  27  31
ENDBRANCH   1  27
TORSDOF 7
