REMARK  Name = ZINC12497973
REMARK  12 active torsions:
REMARK  status: ('A' for Active; 'I' for Inactive)
REMARK    1  A    between atoms: C_1  and  C_2
REMARK    2  A    between atoms: C_2  and  C_3
REMARK    3  A    between atoms: C_3  and  C_4
REMARK    4  A    between atoms: C_4  and  C_35
REMARK    5  A    between atoms: C_9  and  C_11
REMARK    6  A    between atoms: C_14  and  N_17
REMARK    7  A    between atoms: N_17  and  C_18
REMARK    8  A    between atoms: N_17  and  C_19
REMARK    9  A    between atoms: N_22  and  C_25
REMARK   10  A    between atoms: C_35  and  O_37
REMARK   11  A    between atoms: O_37  and  C_38
REMARK   12  A    between atoms: C_38  and  C_39
REMARK                            x       y       z     vdW  Elec       q    Type
REMARK                         _______ _______ _______ _____ _____    ______ ____
ROOT
ATOM      1  C   UNL     1       2.386   1.849   0.868  0.00  0.00    +0.044 C 
ATOM      2  C   UNL     1       1.169   2.122   0.002  0.00  0.00    +0.086 C 
ATOM      3  C   UNL     1       0.526   3.281   0.848  0.00  0.00    +0.077 C 
ATOM      4  C   UNL     1       1.676   4.149   1.135  0.00  0.00    -0.027 C 
ATOM      5  C   UNL     1      -0.824   3.313   0.352  0.00  0.00    +0.229 C 
ATOM      6  O   UNL     1      -1.547   4.280   0.249  0.00  0.00    -0.275 OA
ATOM      7  N   UNL     1      -1.118   2.013   0.018  0.00  0.00    -0.210 N 
ATOM      8  C   UNL     1      -0.014   1.208   0.009  0.00  0.00    +0.229 C 
ATOM      9  O   UNL     1       0.002  -0.004   0.002  0.00  0.00    -0.275 OA
ATOM     10  N   UNL     1       2.745   3.158   1.474  0.00  0.00    +0.395 N 
ATOM     11  H   UNL     1       3.645   3.478   1.098  0.00  0.00    -0.083 HD
ATOM     12  H   UNL     1       2.815   3.060   2.494  0.00  0.00    -0.083 HD
ENDROOT
BRANCH   7  13
ATOM     13  C   UNL     1      -2.413   1.560  -0.281  0.00  0.00    +0.048 A 
ATOM     14  C   UNL     1      -2.624   0.228  -0.607  0.00  0.00    +0.028 A 
ATOM     15  C   UNL     1      -3.898  -0.218  -0.901  0.00  0.00    +0.051 A 
ATOM     16  C   UNL     1      -4.969   0.662  -0.871  0.00  0.00    +0.162 A 
ATOM     17  C   UNL     1      -4.761   1.996  -0.542  0.00  0.00    +0.164 A 
ATOM     18  C   UNL     1      -3.482   2.443  -0.243  0.00  0.00    +0.073 A 
ATOM     19  O   UNL     1      -5.800   2.875  -0.503  0.00  0.00    -0.485 OA
ATOM     20  C   UNL     1      -7.005   2.476  -1.166  0.00  0.00    +0.270 C 
ATOM     21  C   UNL     1      -7.317   1.028  -0.765  0.00  0.00    +0.270 C 
ATOM     22  O   UNL     1      -6.217   0.205  -1.168  0.00  0.00    -0.485 OA
ENDBRANCH   7  13
BRANCH   4  23
ATOM     23  C   UNL     1       1.388   5.056   2.303  0.00  0.00    -0.060 A 
ATOM     24  C   UNL     1       1.385   4.546   3.588  0.00  0.00    +0.004 A 
ATOM     25  C   UNL     1       1.127   5.376   4.662  0.00  0.00    +0.023 A 
ATOM     26  C   UNL     1       0.860   6.723   4.448  0.00  0.00    +0.029 A 
ATOM     27  C   UNL     1       0.859   7.231   3.155  0.00  0.00    +0.023 A 
ATOM     28  C   UNL     1       1.123   6.396   2.087  0.00  0.00    +0.004 A 
BRANCH  26  29
ATOM     29  N   UNL     1       0.594   7.564   5.531  0.00  0.00    -0.336 N 
ATOM     30  C   UNL     1       0.314   8.984   5.304  0.00  0.00    +0.129 C 
ATOM     31  C   UNL     1       0.596   7.027   6.894  0.00  0.00    +0.129 C 
ENDBRANCH  26  29
ENDBRANCH   4  23
BRANCH   1  32
ATOM     32  C   UNL     1       2.045   0.850   1.944  0.00  0.00    +0.297 C 
ATOM     33  O   UNL     1       1.137   0.071   1.779  0.00  0.00    -0.252 OA
BRANCH  32  34
ATOM     34  O   UNL     1       2.750   0.827   3.086  0.00  0.00    -0.466 OA
BRANCH  34  35
ATOM     35  C   UNL     1       2.366  -0.161   4.078  0.00  0.00    +0.228 C 
ATOM     36  C   UNL     1       3.276  -0.035   5.302  0.00  0.00    +0.048 C 
ENDBRANCH  34  35
ENDBRANCH  32  34
ENDBRANCH   1  32
BRANCH   1  37
ATOM     37  C   UNL     1       3.539   1.325   0.008  0.00  0.00    -0.001 C 
BRANCH  37  39
ATOM     38  C   UNL     1       5.908   0.533   0.036  0.00  0.00    +0.004 C 
ATOM     39  C   UNL     1       4.756   1.056   0.896  0.00  0.00    -0.004 C 
ENDBRANCH  37  39
ENDBRANCH   1  37
TORSDOF 8
