REMARK  Name = ZINC42484234
REMARK  8 active torsions:
REMARK  status: ('A' for Active; 'I' for Inactive)
REMARK    1  A    between atoms: C_1  and  C_2
REMARK    2  A    between atoms: C_2  and  C_4
REMARK    3  A    between atoms: C_2  and  N_16
REMARK    4  A    between atoms: C_6  and  C_10
REMARK    5  A    between atoms: N_16  and  C_17
REMARK    6  A    between atoms: N_16  and  C_18
REMARK    7  A    between atoms: N_24  and  C_27
REMARK    8  A    between atoms: C_27  and  C_28
REMARK                            x       y       z     vdW  Elec       q    Type
REMARK                         _______ _______ _______ _____ _____    ______ ____
ROOT
ATOM      1  C   UNL     1       1.183  -2.463  -0.546  0.00  0.00    -0.066 C 
ATOM      2  C   UNL     1       2.140  -3.267   0.315  0.00  0.00    -0.006 C 
ATOM      3  C   UNL     1       1.901  -4.768   0.135  0.00  0.00    +0.094 C 
ATOM      4  C   UNL     1       2.679  -5.236  -1.077  0.00  0.00    +0.216 C 
ATOM      5  O   UNL     1       3.661  -5.933  -0.932  0.00  0.00    -0.276 OA
ATOM      6  N   UNL     1       2.288  -4.885  -2.302  0.00  0.00    -0.297 N 
ATOM      7  C   UNL     1       1.093  -4.045  -2.491  0.00  0.00    +0.106 C 
ATOM      8  C   UNL     1       1.422  -2.622  -2.036  0.00  0.00    +0.004 C 
ENDROOT
BRANCH   1   9
ATOM      9  N   UNL     1       1.320  -1.042  -0.198  0.00  0.00    +0.385 N 
ATOM     10  C   UNL     1       2.618  -0.544  -0.674  0.00  0.00    -0.095 C 
ATOM     11  H   UNL     1       1.265  -0.934   0.804  0.00  0.00    -0.081 HD
BRANCH   9  13
ATOM     12  C   UNL     1       0.409   1.210  -0.510  0.00  0.00    -0.007 C 
ATOM     13  C   UNL     1       0.239  -0.276  -0.833  0.00  0.00    -0.020 C 
BRANCH  13  14
ATOM     14  C   UNL     1      -1.090  -0.755  -0.308  0.00  0.00    +0.050 A 
ATOM     15  C   UNL     1      -2.312  -0.656  -0.975  0.00  0.00    +0.051 A 
ATOM     16  C   UNL     1      -3.273  -1.202  -0.172  0.00  0.00    +0.066 A 
ATOM     17  N   UNL     1      -2.656  -1.627   0.966  0.00  0.00    -0.277 N 
ATOM     18  H   UNL     1      -3.086  -2.058   1.723  0.00  0.00    +0.189 HD
ATOM     19  N   UNL     1      -1.291  -1.337   0.846  0.00  0.00    -0.180 NA
BRANCH  16  20
ATOM     20  C   UNL     1      -4.716  -1.310  -0.481  0.00  0.00    -0.000 A 
ATOM     21  C   UNL     1      -5.210  -0.833  -1.695  0.00  0.00    +0.010 A 
ATOM     22  C   UNL     1      -6.557  -0.936  -1.977  0.00  0.00    +0.001 A 
ATOM     23  C   UNL     1      -7.417  -1.511  -1.058  0.00  0.00    +0.000 A 
ATOM     24  C   UNL     1      -6.933  -1.986   0.148  0.00  0.00    +0.001 A 
ATOM     25  C   UNL     1      -5.587  -1.894   0.439  0.00  0.00    +0.010 A 
ENDBRANCH  16  20
ENDBRANCH  13  14
ENDBRANCH   9  13
ENDBRANCH   1   9
BRANCH   6  26
ATOM     26  C   UNL     1       3.051  -5.337  -3.467  0.00  0.00    +0.144 C 
BRANCH  26  27
ATOM     27  C   UNL     1       4.205  -4.397  -3.708  0.00  0.00    -0.008 A 
ATOM     28  C   UNL     1       5.460  -4.706  -3.216  0.00  0.00    +0.056 A 
ATOM     29  C   UNL     1       6.522  -3.845  -3.435  0.00  0.00    +0.167 A 
ATOM     30  C   UNL     1       6.322  -2.667  -4.152  0.00  0.00    +0.168 A 
ATOM     31  C   UNL     1       5.063  -2.364  -4.643  0.00  0.00    +0.070 A 
ATOM     32  C   UNL     1       4.008  -3.231  -4.424  0.00  0.00    +0.049 A 
ATOM     33 CL   UNL     1       2.432  -2.852  -5.046  0.00  0.00    -0.083 Cl
ATOM     34  O   UNL     1       7.510  -1.998  -4.231  0.00  0.00    -0.453 OA
ATOM     35  C   UNL     1       8.344  -2.574  -3.208  0.00  0.00    +0.466 C 
ATOM     36  O   UNL     1       7.834  -3.913  -3.064  0.00  0.00    -0.453 OA
ENDBRANCH  26  27
ENDBRANCH   6  26
TORSDOF 6
