REMARK  Name = ZINC06600845
REMARK  6 active torsions:
REMARK  status: ('A' for Active; 'I' for Inactive)
REMARK    1  A    between atoms: C_1  and  C_2
REMARK    2  A    between atoms: C_2  and  O_3
REMARK    3  A    between atoms: O_3  and  C_4
REMARK    4  A    between atoms: C_7  and  C_10
REMARK    5  A    between atoms: C_13  and  C_22
REMARK    6  A    between atoms: C_18  and  C_21
REMARK                            x       y       z     vdW  Elec       q    Type
REMARK                         _______ _______ _______ _____ _____    ______ ____
ROOT
ATOM      1  C   UNL     1      -2.503   1.004   0.019  0.00  0.00    +0.100 C 
ATOM      2  N   UNL     1      -2.456  -0.282  -0.092  0.00  0.00    -0.172 NA
ATOM      3  N   UNL     1      -3.633  -1.037  -0.193  0.00  0.00    -0.263 N 
ATOM      4  C   UNL     1      -4.468  -0.778  -1.267  0.00  0.00    +0.124 C 
ATOM      5  N   UNL     1      -5.012   0.384  -1.441  0.00  0.00    -0.299 N 
ATOM      6  C   UNL     1      -4.932   1.426  -0.562  0.00  0.00    +0.042 A 
ATOM      7  C   UNL     1      -3.771   1.761   0.143  0.00  0.00    +0.024 A 
ATOM      8  C   UNL     1      -3.786   2.855   1.008  0.00  0.00    +0.015 A 
ATOM      9  C   UNL     1      -4.937   3.603   1.178  0.00  0.00    -0.050 A 
ATOM     10  C   UNL     1      -6.086   3.271   0.489  0.00  0.00    +0.005 A 
ATOM     11  C   UNL     1      -6.088   2.192  -0.374  0.00  0.00    +0.024 A 
ATOM     12  C   UNL     1      -4.936   4.783   2.116  0.00  0.00    +0.044 C 
ATOM     13  H   UNL     1      -3.903  -1.811   0.540  0.00  0.00    +0.190 HD
ATOM     14  H   UNL     1      -5.591   0.589  -2.353  0.00  0.00    +0.154 HD
ENDROOT
BRANCH   1  18
ATOM     15  C   UNL     1       1.152   3.173   0.020  0.00  0.00    +0.121 A 
ATOM     16  C   UNL     1      -0.028   3.804  -0.353  0.00  0.00    +0.046 A 
ATOM     17  C   UNL     1      -1.214   3.103  -0.358  0.00  0.00    +0.013 A 
ATOM     18  C   UNL     1      -1.231   1.758   0.017  0.00  0.00    +0.003 A 
ATOM     19  C   UNL     1      -0.042   1.126   0.387  0.00  0.00    +0.013 A 
ATOM     20  C   UNL     1       1.141   1.834   0.389  0.00  0.00    +0.046 A 
BRANCH  15  21
ATOM     21  O   UNL     1       2.320   3.867   0.024  0.00  0.00    -0.492 OA
BRANCH  21  23
ATOM     22  C   UNL     1       4.702   4.095   0.361  0.00  0.00    +0.048 C 
ATOM     23  C   UNL     1       3.496   3.156   0.418  0.00  0.00    +0.225 C 
ENDBRANCH  21  23
ENDBRANCH  15  21
ENDBRANCH   1  18
BRANCH   4  24
ATOM     24  C   UNL     1      -4.747  -1.857  -2.239  0.00  0.00    +0.017 A 
ATOM     25  C   UNL     1      -5.590  -1.638  -3.334  0.00  0.00    +0.031 A 
ATOM     26  C   UNL     1      -5.819  -2.672  -4.220  0.00  0.00    +0.111 A 
ATOM     27  N   UNL     1      -5.263  -3.854  -4.038  0.00  0.00    -0.263 NA
ATOM     28  C   UNL     1      -4.466  -4.105  -3.018  0.00  0.00    +0.111 A 
ATOM     29  C   UNL     1      -4.178  -3.127  -2.087  0.00  0.00    +0.031 A 
ENDBRANCH   4  24
TORSDOF 4
