REMARK  Name = ZINC41084884
REMARK  6 active torsions:
REMARK  status: ('A' for Active; 'I' for Inactive)
REMARK    1  A    between atoms: C_1  and  C_2
REMARK    2  A    between atoms: C_2  and  C_3
REMARK    3  A    between atoms: C_2  and  C_4
REMARK    4  A    between atoms: C_7  and  C_10
REMARK    5  A    between atoms: C_10  and  N_11
REMARK    6  A    between atoms: C_15  and  N_21
REMARK                            x       y       z     vdW  Elec       q    Type
REMARK                         _______ _______ _______ _____ _____    ______ ____
ROOT
ATOM      1  N   UNL     1      -6.298  -1.051  -0.638  0.00  0.00    -0.270 N 
ATOM      2  C   UNL     1      -6.976   0.017  -0.046  0.00  0.00    +0.091 A 
ATOM      3  C   UNL     1      -7.046   0.495   1.253  0.00  0.00    +0.031 A 
ATOM      4  C   UNL     1      -7.822   1.601   1.539  0.00  0.00    +0.025 A 
ATOM      5  C   UNL     1      -8.533   2.235   0.527  0.00  0.00    +0.028 A 
ATOM      6  C   UNL     1      -8.465   1.760  -0.775  0.00  0.00    +0.071 A 
ATOM      7  C   UNL     1      -7.687   0.651  -1.065  0.00  0.00    +0.159 A 
ATOM      8  O   UNL     1      -7.433  -0.024  -2.213  0.00  0.00    -0.407 OA
ATOM      9  C   UNL     1      -6.595  -1.040  -1.953  0.00  0.00    +0.422 A 
ATOM     10  O   UNL     1      -6.172  -1.829  -2.775  0.00  0.00    -0.223 OA
ENDROOT
BRANCH   5  11
ATOM     11  N   UNL     1      -9.319   3.354   0.821  0.00  0.00    -0.358 N 
ATOM     12  H   UNL     1      -9.367   3.687   1.731  0.00  0.00    +0.142 HD
ATOM     13  H   UNL     1      -9.815   3.798   0.115  0.00  0.00    +0.142 HD
ENDBRANCH   5  11
BRANCH   1  14
ATOM     14  C   UNL     1      -5.419  -2.005   0.043  0.00  0.00    +0.163 C 
BRANCH  14  18
ATOM     15  C   UNL     1      -1.412  -0.526   0.013  0.00  0.00    -0.045 A 
ATOM     16  C   UNL     1      -2.259  -0.204   1.056  0.00  0.00    +0.004 A 
ATOM     17  C   UNL     1      -3.556  -0.683   1.066  0.00  0.00    +0.005 A 
ATOM     18  C   UNL     1      -4.006  -1.482   0.032  0.00  0.00    -0.028 A 
ATOM     19  C   UNL     1      -3.159  -1.803  -1.012  0.00  0.00    +0.005 A 
ATOM     20  C   UNL     1      -1.863  -1.321  -1.024  0.00  0.00    +0.004 A 
BRANCH  15  22
ATOM     21  C   UNL     1      -0.019   1.526   0.010  0.00  0.00    +0.012 C 
ATOM     22  C   UNL     1       0.002  -0.004   0.002  0.00  0.00    +0.013 C 
ATOM     23  C   UNL     1       0.742  -0.511   1.242  0.00  0.00    +0.012 C 
ENDBRANCH  15  22
ENDBRANCH  14  18
ENDBRANCH   1  14
TORSDOF 4
