REMARK  Name = ZINC20644403
REMARK  10 active torsions:
REMARK  status: ('A' for Active; 'I' for Inactive)
REMARK    1  A    between atoms: N_14  and  C_17
REMARK    2  A    between atoms: C_17  and  C_18
REMARK    3  A    between atoms: C_18  and  C_19
REMARK    4  A    between atoms: C_19  and  C_20
REMARK    5  A    between atoms: C_20  and  C_21
REMARK    6  A    between atoms: C_21  and  C_22
REMARK    7  A    between atoms: N_24  and  C_25
REMARK    8  A    between atoms: C_25  and  C_26
REMARK    9  A    between atoms: C_26  and  C_27
REMARK   10  A    between atoms: C_27  and  N_28
REMARK                            x       y       z     vdW  Elec       q    Type
REMARK                         _______ _______ _______ _____ _____    ______ ____
ROOT
ATOM      1  C   UNL     1       0.002  -0.004   0.002  0.00  0.00    +0.022 C 
ENDROOT
BRANCH   1   2
ATOM      2  C   UNL     1      -1.433  -0.534   0.013  0.00  0.00    +0.127 C 
BRANCH   2  16
ATOM      3  C   UNL     1      -1.353  -4.897   2.315  0.00  0.00    +0.065 A 
ATOM      4  C   UNL     1      -1.374  -4.138   1.144  0.00  0.00    +0.067 A 
ATOM      5  C   UNL     1      -1.377  -4.775  -0.110  0.00  0.00    +0.057 A 
ATOM      6  C   UNL     1      -1.358  -6.157  -0.179  0.00  0.00    +0.076 A 
ATOM      7  C   UNL     1      -1.338  -6.907   0.987  0.00  0.00    +0.168 A 
ATOM      8  C   UNL     1      -1.335  -6.275   2.234  0.00  0.00    +0.167 A 
ATOM      9  O   UNL     1      -1.314  -7.233   3.207  0.00  0.00    -0.453 OA
ATOM     10  C   UNL     1      -1.717  -8.451   2.554  0.00  0.00    +0.466 C 
ATOM     11  O   UNL     1      -1.317  -8.256   1.185  0.00  0.00    -0.453 OA
ATOM     12  N   UNL     1      -1.398  -3.991  -1.257  0.00  0.00    -0.334 N 
ATOM     13  H   UNL     1      -1.396  -4.467  -2.248  0.00  0.00    +0.168 HD
ATOM     14  C   UNL     1      -1.421  -2.650  -1.169  0.00  0.00    +0.161 A 
ATOM     15  S   UNL     1      -1.454  -1.734  -2.615  0.00  0.00    -0.013 S 
ATOM     16  N   UNL     1      -1.413  -1.998   0.005  0.00  0.00    -0.288 N 
ATOM     17  C   UNL     1      -1.393  -2.667   1.178  0.00  0.00    +0.262 A 
ATOM     18  O   UNL     1      -1.391  -2.067   2.237  0.00  0.00    -0.267 OA
ENDBRANCH   2  16
ENDBRANCH   1   2
BRANCH   1  19
ATOM     19  C   UNL     1      -0.019   1.526   0.010  0.00  0.00    +0.002 C 
BRANCH  19  20
ATOM     20  C   UNL     1       1.417   2.055  -0.000  0.00  0.00    +0.009 C 
BRANCH  20  21
ATOM     21  C   UNL     1       1.396   3.585   0.008  0.00  0.00    +0.096 C 
BRANCH  21  22
ATOM     22  C   UNL     1       2.810   4.107  -0.003  0.00  0.00    +0.213 C 
ATOM     23  O   UNL     1       3.742   3.331  -0.016  0.00  0.00    -0.276 OA
ATOM     24  N   UNL     1       3.038   5.435   0.002  0.00  0.00    -0.315 N 
ATOM     25  H   UNL     1       2.192   6.138   0.014  0.00  0.00    +0.149 HD
BRANCH  24  26
ATOM     26  C   UNL     1       4.412   5.942  -0.008  0.00  0.00    +0.102 C 
BRANCH  26  27
ATOM     27  C   UNL     1       4.392   7.472   0.000  0.00  0.00    +0.000 C 
BRANCH  27  28
ATOM     28  C   UNL     1       5.827   8.002  -0.011  0.00  0.00    -0.077 C 
BRANCH  28  29
ATOM     29  N   UNL     1       5.807   9.470  -0.003  0.00  0.00    +0.380 N 
ATOM     30  C   UNL     1       5.125   9.998  -1.205  0.00  0.00    -0.079 C 
ATOM     31  C   UNL     1       5.314  11.480  -1.381  0.00  0.00    -0.019 C 
ATOM     32  C   UNL     1       6.526  11.713  -2.308  0.00  0.00    -0.002 C 
ATOM     33  C   UNL     1       7.795  11.552  -1.607  0.00  0.00    -0.002 C 
ATOM     34  C   UNL     1       7.970  10.129  -1.037  0.00  0.00    -0.019 C 
ATOM     35  C   UNL     1       7.163  10.018   0.227  0.00  0.00    -0.079 C 
ATOM     36  H   UNL     1       5.204   9.813   0.851  0.00  0.00    -0.082 HD
ENDBRANCH  28  29
ENDBRANCH  27  28
ENDBRANCH  26  27
ENDBRANCH  24  26
ENDBRANCH  21  22
ENDBRANCH  20  21
ENDBRANCH  19  20
ENDBRANCH   1  19
TORSDOF 10
