REMARK  Name = ZINC12246638
REMARK  9 active torsions:
REMARK  status: ('A' for Active; 'I' for Inactive)
REMARK    1  A    between atoms: C_1  and  C_2
REMARK    2  A    between atoms: C_2  and  C_4
REMARK    3  A    between atoms: C_2  and  N_58
REMARK    4  A    between atoms: C_4  and  C_5
REMARK    5  A    between atoms: C_10  and  N_58
REMARK    6  A    between atoms: N_13  and  C_16
REMARK    7  A    between atoms: C_20  and  N_22
REMARK    8  A    between atoms: N_22  and  S_23
REMARK    9  A    between atoms: S_23  and  C_26
REMARK                            x       y       z     vdW  Elec       q    Type
REMARK                         _______ _______ _______ _____ _____    ______ ____
ROOT
ATOM      1  C   UNL     1       2.861  -2.348  -4.657  0.00  0.00    +0.031 A 
ATOM      2  C   UNL     1       4.130  -2.568  -4.133  0.00  0.00    +0.023 A 
ATOM      3  C   UNL     1       4.274  -3.174  -2.901  0.00  0.00    +0.004 A 
ATOM      4  C   UNL     1       3.159  -3.564  -2.184  0.00  0.00    +0.024 A 
ATOM      5  C   UNL     1       1.888  -3.348  -2.702  0.00  0.00    +0.050 A 
ATOM      6  C   UNL     1       1.739  -2.744  -3.943  0.00  0.00    +0.047 A 
ENDROOT
BRANCH   1  10
ATOM      7  C   UNL     1       3.003  -1.441  -8.762  0.00  0.00    -0.069 C 
ATOM      8  C   UNL     1       3.825  -0.608  -7.775  0.00  0.00    +0.003 C 
ATOM      9  C   UNL     1       4.024  -1.406  -6.484  0.00  0.00    +0.103 C 
ATOM     10  N   UNL     1       2.716  -1.734  -5.903  0.00  0.00    -0.330 N 
ATOM     11  C   UNL     1       1.927  -2.573  -6.814  0.00  0.00    +0.103 C 
ATOM     12  C   UNL     1       1.665  -1.810  -8.115  0.00  0.00    +0.003 C 
BRANCH   7  13
ATOM     13  N   UNL     1       2.750  -0.652  -9.982  0.00  0.00    +0.383 N 
ATOM     14  H   UNL     1       1.890  -0.988 -10.431  0.00  0.00    -0.085 HD
ATOM     15  H   UNL     1       2.641   0.338  -9.730  0.00  0.00    -0.085 HD
BRANCH  13  17
ATOM     16  C   UNL     1       3.691  -2.061 -11.758  0.00  0.00    -0.013 C 
ATOM     17  C   UNL     1       3.876  -0.791 -10.925  0.00  0.00    -0.070 C 
BRANCH  17  18
ATOM     18  C   UNL     1       3.910   0.426 -11.851  0.00  0.00    +0.028 C 
BRANCH  18  19
ATOM     19  C   UNL     1       4.215   1.662 -11.045  0.00  0.00    +0.008 A 
ATOM     20  C   UNL     1       5.412   2.221 -10.735  0.00  0.00    +0.122 A 
ATOM     21  N   UNL     1       5.421   3.320 -10.009  0.00  0.00    -0.255 NA
ATOM     22  C   UNL     1       4.306   3.866  -9.581  0.00  0.00    +0.156 A 
ATOM     23  S   UNL     1       3.102   2.794 -10.225  0.00  0.00    -0.080 S 
ENDBRANCH  18  19
ENDBRANCH  17  18
ENDBRANCH  13  17
ENDBRANCH   7  13
ENDBRANCH   1  10
BRANCH   5  24
ATOM     24  N   UNL     1       0.761  -3.743  -1.978  0.00  0.00    -0.216 N 
ATOM     25  H   UNL     1       0.036  -4.208  -2.424  0.00  0.00    +0.174 HD
BRANCH  24  26
ATOM     26  S   UNL     1       0.663  -3.417  -0.357  0.00  0.00    +0.072 S 
ATOM     27  O   UNL     1       1.891  -3.841   0.218  0.00  0.00    -0.150 OA
ATOM     28  O   UNL     1      -0.595  -3.913   0.081  0.00  0.00    -0.150 OA
BRANCH  26  29
ATOM     29  C   UNL     1       0.602  -1.665  -0.180  0.00  0.00    +0.109 A 
ATOM     30  C   UNL     1      -0.617  -1.013  -0.177  0.00  0.00    +0.031 A 
ATOM     31  C   UNL     1      -0.665   0.361  -0.038  0.00  0.00    +0.040 A 
ATOM     32  C   UNL     1       0.508   1.085   0.097  0.00  0.00    +0.124 A 
ATOM     33  C   UNL     1       1.728   0.430   0.092  0.00  0.00    +0.040 A 
ATOM     34  C   UNL     1       1.774  -0.944  -0.046  0.00  0.00    +0.031 A 
ATOM     35  F   UNL     1       0.462   2.428   0.232  0.00  0.00    -0.205 F 
ENDBRANCH  26  29
ENDBRANCH  24  26
ENDBRANCH   5  24
TORSDOF 8
