REMARK  Name = ZINC23380008
REMARK  7 active torsions:
REMARK  status: ('A' for Active; 'I' for Inactive)
REMARK    1  A    between atoms: C_1  and  C_2
REMARK    2  A    between atoms: C_7  and  C_8
REMARK    3  A    between atoms: C_12  and  N_14
REMARK    4  A    between atoms: C_17  and  N_20
REMARK    5  A    between atoms: N_20  and  C_21
REMARK    6  A    between atoms: C_21  and  C_22
REMARK    7  A    between atoms: C_22  and  C_23
REMARK                            x       y       z     vdW  Elec       q    Type
REMARK                         _______ _______ _______ _____ _____    ______ ____
ROOT
ATOM      1  N   UNL     1      -1.777   0.020   5.707  0.00  0.00    -0.330 N 
ATOM      2  C   UNL     1      -2.811  -0.996   5.468  0.00  0.00    +0.103 C 
ATOM      3  C   UNL     1      -2.717  -2.062   6.564  0.00  0.00    +0.003 C 
ATOM      4  C   UNL     1      -2.804  -1.388   7.935  0.00  0.00    -0.069 C 
ATOM      5  C   UNL     1      -1.631  -0.418   8.103  0.00  0.00    +0.003 C 
ATOM      6  C   UNL     1      -1.709   0.662   7.026  0.00  0.00    +0.103 C 
ENDROOT
BRANCH   1  11
ATOM      7  C   UNL     1       0.037   0.012   2.501  0.00  0.00    -0.016 A 
ATOM      8  C   UNL     1       0.934   1.058   2.711  0.00  0.00    +0.008 A 
ATOM      9  C   UNL     1       0.925   1.747   3.906  0.00  0.00    +0.002 A 
ATOM     10  C   UNL     1       0.028   1.405   4.900  0.00  0.00    +0.023 A 
ATOM     11  C   UNL     1      -0.871   0.364   4.700  0.00  0.00    +0.030 A 
ATOM     12  C   UNL     1      -0.872  -0.330   3.499  0.00  0.00    +0.031 A 
BRANCH   7  19
ATOM     13  C   UNL     1      -0.014   1.470   0.003  0.00  0.00    +0.044 C 
ATOM     14  C   UNL     1       0.022  -0.037   0.008  0.00  0.00    -0.043 A 
ATOM     15  C   UNL     1       0.036  -0.732  -1.184  0.00  0.00    +0.004 A 
ATOM     16  C   UNL     1       0.068  -2.115  -1.181  0.00  0.00    +0.000 A 
ATOM     17  C   UNL     1       0.086  -2.809   0.016  0.00  0.00    +0.001 A 
ATOM     18  C   UNL     1       0.072  -2.123   1.214  0.00  0.00    +0.009 A 
ATOM     19  C   UNL     1       0.045  -0.730   1.216  0.00  0.00    -0.015 A 
ENDBRANCH   7  19
ENDBRANCH   1  11
BRANCH   4  20
ATOM     20  N   UNL     1      -2.747  -2.411   8.988  0.00  0.00    +0.381 N 
ATOM     21  H   UNL     1      -3.471  -3.096   8.830  0.00  0.00    -0.086 HD
ATOM     22  H   UNL     1      -1.846  -2.864   8.969  0.00  0.00    -0.086 HD
BRANCH  20  23
ATOM     23  C   UNL     1      -2.950  -1.777  10.297  0.00  0.00    -0.074 C 
BRANCH  23  24
ATOM     24  C   UNL     1      -2.892  -2.842  11.394  0.00  0.00    +0.057 C 
BRANCH  24  25
ATOM     25  C   UNL     1      -3.099  -2.192  12.738  0.00  0.00    +0.129 A 
ATOM     26  N   UNL     1      -3.104  -2.841  13.948  0.00  0.00    -0.294 N 
ATOM     27  H   UNL     1      -2.976  -3.793  14.082  0.00  0.00    +0.172 HD
ATOM     28  C   UNL     1      -3.319  -1.930  14.918  0.00  0.00    +0.342 A 
ATOM     29  O   UNL     1      -3.386  -2.151  16.113  0.00  0.00    -0.245 OA
ATOM     30  N   UNL     1      -3.446  -0.727  14.319  0.00  0.00    -0.227 N 
ATOM     31  H   UNL     1      -3.607   0.121  14.762  0.00  0.00    +0.194 HD
ATOM     32  N   UNL     1      -3.297  -0.929  12.940  0.00  0.00    -0.157 NA
ENDBRANCH  24  25
ENDBRANCH  23  24
ENDBRANCH  20  23
ENDBRANCH   4  20
TORSDOF 6
