REMARK  Name = ZINC35512719
REMARK  6 active torsions:
REMARK  status: ('A' for Active; 'I' for Inactive)
REMARK    1  A    between atoms: C_1  and  C_2
REMARK    2  A    between atoms: C_5  and  C_16
REMARK    3  A    between atoms: C_7  and  S_8
REMARK    4  A    between atoms: S_8  and  N_11
REMARK    5  A    between atoms: C_19  and  N_22
REMARK    6  A    between atoms: N_22  and  C_23
REMARK                            x       y       z     vdW  Elec       q    Type
REMARK                         _______ _______ _______ _____ _____    ______ ____
ROOT
ATOM      1  C   UNL     1       0.544  -4.190  -0.291  0.00  0.00    +0.091 A 
ATOM      2  C   UNL     1       0.644  -4.967  -1.450  0.00  0.00    +0.033 A 
ATOM      3  C   UNL     1       0.772  -6.337  -1.303  0.00  0.00    +0.045 A 
ATOM      4  C   UNL     1       0.794  -6.859  -0.009  0.00  0.00    +0.117 A 
ATOM      5  N   UNL     1       0.693  -6.045   1.033  0.00  0.00    -0.263 N 
ATOM      6  N   UNL     1       0.579  -4.774   0.900  0.00  0.00    -0.172 NA
ATOM      7  H   UNL     1       0.709  -6.423   1.926  0.00  0.00    +0.190 HD
ENDROOT
BRANCH   1  12
ATOM      8  C   UNL     1       0.000   1.529  -0.687  0.00  0.00    +0.046 C 
ATOM      9  C   UNL     1       0.143   0.033  -0.583  0.00  0.00    -0.024 A 
ATOM     10  C   UNL     1       0.138  -0.741  -1.730  0.00  0.00    +0.006 A 
ATOM     11  C   UNL     1       0.268  -2.112  -1.641  0.00  0.00    +0.010 A 
ATOM     12  C   UNL     1       0.404  -2.717  -0.393  0.00  0.00    +0.004 A 
ATOM     13  C   UNL     1       0.409  -1.933   0.759  0.00  0.00    +0.039 A 
ATOM     14  C   UNL     1       0.284  -0.562   0.658  0.00  0.00    +0.109 A 
BRANCH  14  15
ATOM     15  S   UNL     1       0.296   0.432   2.113  0.00  0.00    +0.061 S 
ATOM     16  O   UNL     1      -0.811   1.317   2.010  0.00  0.00    -0.153 OA
ATOM     17  O   UNL     1       0.464  -0.455   3.210  0.00  0.00    -0.153 OA
BRANCH  15  18
ATOM     18  N   UNL     1       1.659   1.372   2.052  0.00  0.00    -0.177 NA
ATOM     19  C   UNL     1       3.010   0.948   2.447  0.00  0.00    +0.109 C 
ATOM     20  C   UNL     1       3.947   2.157   2.244  0.00  0.00    +0.018 C 
ATOM     21  C   UNL     1       2.972   3.363   2.283  0.00  0.00    +0.018 C 
ATOM     22  C   UNL     1       1.719   2.769   1.587  0.00  0.00    +0.109 C 
ENDBRANCH  15  18
ENDBRANCH  14  15
ENDBRANCH   1  12
BRANCH   4  23
ATOM     23  N   UNL     1       0.921  -8.229   0.187  0.00  0.00    -0.298 N 
ATOM     24  H   UNL     1       0.698  -8.619   1.047  0.00  0.00    +0.154 HD
BRANCH  23  25
ATOM     25  C   UNL     1       1.369  -9.046  -0.856  0.00  0.00    +0.071 A 
ATOM     26  C   UNL     1       2.278  -8.555  -1.783  0.00  0.00    +0.064 A 
ATOM     27  C   UNL     1       2.719  -9.366  -2.814  0.00  0.00    +0.125 A 
ATOM     28  C   UNL     1       2.256 -10.666  -2.920  0.00  0.00    +0.041 A 
ATOM     29  C   UNL     1       1.351 -11.159  -1.998  0.00  0.00    +0.043 A 
ATOM     30  C   UNL     1       0.910 -10.355  -0.963  0.00  0.00    +0.145 A 
ATOM     31  F   UNL     1       0.030 -10.839  -0.059  0.00  0.00    -0.204 F 
ATOM     32  F   UNL     1       3.603  -8.888  -3.717  0.00  0.00    -0.205 F 
ENDBRANCH  23  25
ENDBRANCH   4  23
TORSDOF 5
