REMARK  Name = ZINC13065100
REMARK  14 active torsions:
REMARK  status: ('A' for Active; 'I' for Inactive)
REMARK    1  A    between atoms: C_1  and  C_2
REMARK    2  A    between atoms: C_2  and  C_3
REMARK    3  A    between atoms: C_3  and  C_5
REMARK    4  A    between atoms: C_3  and  N_75
REMARK    5  A    between atoms: N_9  and  C_10
REMARK    6  A    between atoms: C_10  and  C_11
REMARK    7  A    between atoms: C_11  and  C_12
REMARK    8  A    between atoms: C_18  and  C_19
REMARK    9  A    between atoms: C_18  and  N_75
REMARK   10  A    between atoms: C_22  and  C_25
REMARK   11  A    between atoms: C_26  and  C_27
REMARK   12  A    between atoms: C_26  and  N_75
REMARK   13  A    between atoms: C_32  and  C_40
REMARK   14  A    between atoms: C_33  and  C_39
REMARK                            x       y       z     vdW  Elec       q    Type
REMARK                         _______ _______ _______ _____ _____    ______ ____
ROOT
ATOM      1  N   UNL     1      -1.260   2.029  -0.959  0.00  0.00    +0.392 N 
ATOM      2  H   UNL     1      -0.696   1.330  -1.456  0.00  0.00    -0.080 HD
ENDROOT
BRANCH   1   3
ATOM      3  C   UNL     1      -2.691   1.709  -1.142  0.00  0.00    +0.003 C 
BRANCH   3   4
ATOM      4  C   UNL     1      -3.541   2.926  -0.879  0.00  0.00    +0.138 A 
ATOM      5  N   UNL     1      -3.641   3.990  -1.638  0.00  0.00    -0.115 NA
ATOM      6  N   UNL     1      -4.463   4.806  -1.073  0.00  0.00    -0.023 NA
ATOM      7  N   UNL     1      -4.891   4.289   0.026  0.00  0.00    -0.044 NA
ATOM      8  N   UNL     1      -4.349   3.128   0.179  0.00  0.00    -0.231 N 
BRANCH   8   9
ATOM      9  C   UNL     1      -4.569   2.205   1.295  0.00  0.00    +0.152 C 
BRANCH   9  10
ATOM     10  C   UNL     1      -3.671   2.600   2.468  0.00  0.00    +0.058 C 
BRANCH  10  11
ATOM     11  C   UNL     1      -3.814   1.586   3.574  0.00  0.00    -0.046 A 
ATOM     12  C   UNL     1      -4.771   1.764   4.555  0.00  0.00    +0.004 A 
ATOM     13  C   UNL     1      -4.906   0.831   5.566  0.00  0.00    +0.000 A 
ATOM     14  C   UNL     1      -4.076  -0.274   5.603  0.00  0.00    +0.000 A 
ATOM     15  C   UNL     1      -3.115  -0.449   4.625  0.00  0.00    +0.000 A 
ATOM     16  C   UNL     1      -2.984   0.481   3.610  0.00  0.00    +0.004 A 
ENDBRANCH  10  11
ENDBRANCH   9  10
ENDBRANCH   8   9
ENDBRANCH   3   4
BRANCH   3  18
ATOM     17  C   UNL     1      -2.099  -0.037  -2.827  0.00  0.00    +0.002 C 
ATOM     18  C   UNL     1      -2.907   1.238  -2.581  0.00  0.00    -0.011 C 
ENDBRANCH   3  18
ENDBRANCH   1   3
BRANCH   1  19
ATOM     19  C   UNL     1      -0.966   3.367  -1.515  0.00  0.00    -0.042 C 
BRANCH  19  20
ATOM     20  C   UNL     1      -0.986   3.280  -3.019  0.00  0.00    -0.064 A 
ATOM     21  C   UNL     1      -0.194   2.353  -3.669  0.00  0.00    +0.002 A 
ATOM     22  C   UNL     1      -0.215   2.270  -5.049  0.00  0.00    +0.003 A 
ATOM     23  C   UNL     1      -1.022   3.123  -5.779  0.00  0.00    -0.050 A 
ATOM     24  C   UNL     1      -1.811   4.054  -5.130  0.00  0.00    +0.003 A 
ATOM     25  C   UNL     1      -1.792   4.133  -3.750  0.00  0.00    +0.002 A 
ATOM     26  C   UNL     1      -1.042   3.036  -7.284  0.00  0.00    +0.044 C 
ENDBRANCH  19  20
ENDBRANCH   1  19
BRANCH   1  27
ATOM     27  C   UNL     1      -0.914   1.993   0.478  0.00  0.00    -0.036 C 
BRANCH  27  28
ATOM     28  C   UNL     1       0.587   1.947   0.613  0.00  0.00    +0.001 A 
ATOM     29  C   UNL     1       1.283   3.094   0.808  0.00  0.00    +0.017 A 
ATOM     30  C   UNL     1       2.740   3.016   0.929  0.00  0.00    -0.001 A 
ATOM     31  C   UNL     1       3.511   4.165   1.132  0.00  0.00    +0.010 A 
ATOM     32  C   UNL     1       4.869   4.058   1.240  0.00  0.00    +0.004 A 
ATOM     33  C   UNL     1       5.490   2.820   1.152  0.00  0.00    -0.046 A 
ATOM     34  C   UNL     1       4.749   1.674   0.953  0.00  0.00    -0.024 A 
ATOM     35  C   UNL     1       3.365   1.758   0.839  0.00  0.00    +0.052 A 
ATOM     36  N   UNL     1       2.600   0.629   0.640  0.00  0.00    -0.322 N 
ATOM     37  H   UNL     1       3.033  -0.237   0.579  0.00  0.00    +0.169 HD
ATOM     38  C   UNL     1       1.262   0.711   0.530  0.00  0.00    +0.251 A 
ATOM     39  O   UNL     1       0.618  -0.309   0.355  0.00  0.00    -0.268 OA
ATOM     40  C   UNL     1       5.436   0.336   0.860  0.00  0.00    +0.046 C 
ATOM     41  C   UNL     1       6.989   2.726   1.275  0.00  0.00    +0.044 C 
ENDBRANCH  27  28
ENDBRANCH   1  27
TORSDOF 10
