REMARK  Name = ZINC40038367
REMARK  8 active torsions:
REMARK  status: ('A' for Active; 'I' for Inactive)
REMARK    1  A    between atoms: C_1  and  C_2
REMARK    2  A    between atoms: C_4  and  C_34
REMARK    3  A    between atoms: C_6  and  C_33
REMARK    4  A    between atoms: C_7  and  C_11
REMARK    5  A    between atoms: N_13  and  C_14
REMARK    6  A    between atoms: C_15  and  C_23
REMARK    7  A    between atoms: N_25  and  C_26
REMARK    8  A    between atoms: C_26  and  C_27
REMARK                            x       y       z     vdW  Elec       q    Type
REMARK                         _______ _______ _______ _____ _____    ______ ____
ROOT
ATOM      1  C   UNL     1       0.542  -6.590   4.575  0.00  0.00    +0.085 A 
ATOM      2  C   UNL     1       0.487  -6.721   5.954  0.00  0.00    +0.069 A 
ATOM      3  C   UNL     1       0.553  -8.067   6.496  0.00  0.00    -0.023 A 
ATOM      4  C   UNL     1       0.663  -9.035   5.561  0.00  0.00    -0.004 A 
ATOM      5  S   UNL     1       0.668  -8.170   4.018  0.00  0.00    -0.077 S 
ATOM      6  C   UNL     1       0.754 -10.510   5.800  0.00  0.00    +0.043 C 
ATOM      7  C   UNL     1       1.084 -10.739   7.282  0.00  0.00    +0.005 C 
ATOM      8  C   UNL     1       0.146  -9.882   8.137  0.00  0.00    +0.005 C 
ATOM      9  C   UNL     1       0.506  -8.402   7.980  0.00  0.00    +0.037 C 
ENDROOT
BRANCH   1  12
ATOM     10  C   UNL     1       0.559  -5.485   2.482  0.00  0.00    +0.284 C 
ATOM     11  O   UNL     1       0.652  -6.562   1.924  0.00  0.00    -0.266 OA
ATOM     12  N   UNL     1       0.498  -5.425   3.827  0.00  0.00    -0.273 N 
ATOM     13  H   UNL     1       0.424  -4.566   4.272  0.00  0.00    +0.156 HD
BRANCH  10  20
ATOM     14  C   UNL     1       0.206   1.492   0.014  0.00  0.00    +0.044 C 
ATOM     15  C   UNL     1       0.304  -0.012   0.013  0.00  0.00    -0.047 A 
ATOM     16  C   UNL     1       0.400  -0.693  -1.193  0.00  0.00    +0.007 A 
ATOM     17  C   UNL     1       0.490  -2.056  -1.213  0.00  0.00    -0.039 A 
ATOM     18  C   UNL     1       0.487  -2.768  -0.011  0.00  0.00    +0.027 A 
ATOM     19  C   UNL     1       0.565  -4.187   0.333  0.00  0.00    +0.008 A 
ATOM     20  C   UNL     1       0.512  -4.249   1.689  0.00  0.00    +0.194 A 
ATOM     21  O   UNL     1       0.409  -3.003   2.198  0.00  0.00    -0.450 OA
ATOM     22  C   UNL     1       0.390  -2.083   1.214  0.00  0.00    +0.137 A 
ATOM     23  C   UNL     1       0.304  -0.695   1.210  0.00  0.00    +0.050 A 
ATOM     24  C   UNL     1       0.681  -5.346  -0.623  0.00  0.00    +0.048 C 
ATOM     25  C   UNL     1       0.593  -2.789  -2.526  0.00  0.00    +0.044 C 
ENDBRANCH  10  20
ENDBRANCH   1  12
BRANCH   2  26
ATOM     26  C   UNL     1       0.367  -5.550   6.828  0.00  0.00    +0.247 C 
ATOM     27  O   UNL     1      -0.733  -5.136   7.142  0.00  0.00    -0.270 OA
ATOM     28  N   UNL     1       1.476  -4.933   7.283  0.00  0.00    -0.307 N 
ATOM     29  H   UNL     1       2.352  -5.264   7.033  0.00  0.00    +0.149 HD
BRANCH  28  30
ATOM     30  C   UNL     1       1.356  -3.763   8.157  0.00  0.00    +0.139 C 
BRANCH  30  31
ATOM     31  C   UNL     1       2.731  -3.266   8.522  0.00  0.00    -0.030 A 
ATOM     32  C   UNL     1       3.368  -3.758   9.645  0.00  0.00    +0.005 A 
ATOM     33  C   UNL     1       4.629  -3.302   9.980  0.00  0.00    +0.000 A 
ATOM     34  C   UNL     1       5.254  -2.354   9.191  0.00  0.00    +0.000 A 
ATOM     35  C   UNL     1       4.617  -1.863   8.066  0.00  0.00    +0.000 A 
ATOM     36  C   UNL     1       3.357  -2.322   7.729  0.00  0.00    +0.005 A 
ENDBRANCH  30  31
ENDBRANCH  28  30
ENDBRANCH   2  26
TORSDOF 5
