REMARK  Name = ZINC19296910
REMARK  9 active torsions:
REMARK  status: ('A' for Active; 'I' for Inactive)
REMARK    1  A    between atoms: C_1  and  C_2
REMARK    2  A    between atoms: C_5  and  C_8
REMARK    3  A    between atoms: C_8  and  C_10
REMARK    4  A    between atoms: C_8  and  N_15
REMARK    5  A    between atoms: C_16  and  C_18
REMARK    6  A    between atoms: C_18  and  N_19
REMARK    7  A    between atoms: C_22  and  C_26
REMARK    8  A    between atoms: C_22  and  C_27
REMARK    9  A    between atoms: C_30  and  C_33
REMARK                            x       y       z     vdW  Elec       q    Type
REMARK                         _______ _______ _______ _____ _____    ______ ____
ROOT
ATOM      1  C   UNL     1       0.266   3.428   3.174  0.00  0.00    +0.213 C 
ENDROOT
BRANCH   1   2
ATOM      2  N   UNL     1       0.391   2.740   1.887  0.00  0.00    -0.215 N 
ATOM      3  C   UNL     1      -0.594   2.021   1.313  0.00  0.00    +0.251 C 
ATOM      4  O   UNL     1      -1.710   1.830   1.748  0.00  0.00    -0.272 OA
ATOM      5  C   UNL     1      -0.018   1.503   0.010  0.00  0.00    +0.135 C 
ATOM      6  N   UNL     1       1.353   2.040   0.000  0.00  0.00    -0.281 N 
ATOM      7  C   UNL     1       1.498   2.747   1.135  0.00  0.00    +0.310 C 
ATOM      8  O   UNL     1       2.520   3.328   1.443  0.00  0.00    -0.252 OA
ATOM      9  C   UNL     1      -0.814   2.035  -1.183  0.00  0.00    +0.047 C 
ATOM     10  H   UNL     1       2.023   1.821  -0.845  0.00  0.00    +0.152 HD
BRANCH   5  11
ATOM     11  C   UNL     1       0.002  -0.004   0.002  0.00  0.00    -0.015 A 
ATOM     12  C   UNL     1      -1.003  -0.710   0.639  0.00  0.00    +0.007 A 
ATOM     13  C   UNL     1      -0.993  -2.089   0.631  0.00  0.00    +0.019 A 
ATOM     14  C   UNL     1       0.040  -2.773  -0.012  0.00  0.00    +0.052 A 
ATOM     15  C   UNL     1       1.054  -2.054  -0.649  0.00  0.00    +0.019 A 
ATOM     16  C   UNL     1       1.029  -0.675  -0.638  0.00  0.00    +0.007 A 
BRANCH  14  17
ATOM     17  C   UNL     1       0.059  -4.205  -0.020  0.00  0.00    +0.099 C 
ATOM     18  N   UNL     1       0.075  -5.341  -0.026  0.00  0.00    -0.191 NA
ENDBRANCH  14  17
ENDBRANCH   5  11
ENDBRANCH   1   2
BRANCH   1  20
ATOM     19  N   UNL     1      -0.432   5.655   3.995  0.00  0.00    -0.303 N 
ATOM     20  C   UNL     1      -0.239   4.830   2.946  0.00  0.00    +0.232 C 
ATOM     21  O   UNL     1      -0.470   5.216   1.820  0.00  0.00    -0.274 OA
ATOM     22  H   UNL     1      -0.222   5.305   5.016  0.00  0.00    +0.150 HD
BRANCH  19  23
ATOM     23  C   UNL     1      -0.922   7.017   3.774  0.00  0.00    +0.140 C 
BRANCH  23  28
ATOM     24  C   UNL     1       0.738  10.396   8.158  0.00  0.00    +0.044 C 
ATOM     25  C   UNL     1       0.304   9.515   7.015  0.00  0.00    -0.050 A 
ATOM     26  C   UNL     1       0.335   9.998   5.720  0.00  0.00    +0.004 A 
ATOM     27  C   UNL     1      -0.062   9.190   4.671  0.00  0.00    +0.006 A 
ATOM     28  C   UNL     1      -0.490   7.899   4.917  0.00  0.00    -0.022 A 
ATOM     29  C   UNL     1      -0.526   7.417   6.213  0.00  0.00    +0.006 A 
ATOM     30  C   UNL     1      -0.125   8.224   7.261  0.00  0.00    +0.004 A 
ENDBRANCH  23  28
BRANCH  23  31
ATOM     31  C   UNL     1      -2.427   7.003   3.692  0.00  0.00    +0.014 A 
ATOM     32  C   UNL     1      -3.244   7.698   2.864  0.00  0.00    +0.013 A 
ATOM     33  C   UNL     1      -4.611   7.524   2.969  0.00  0.00    +0.008 A 
ATOM     34  C   UNL     1      -5.095   6.663   3.897  0.00  0.00    +0.045 A 
ATOM     35  S   UNL     1      -3.596   6.060   4.657  0.00  0.00    -0.099 S 
ENDBRANCH  23  31
ENDBRANCH  19  23
ENDBRANCH   1  20
TORSDOF 7
