REMARK  Name = ZINC64604778
REMARK  3 active torsions:
REMARK  status: ('A' for Active; 'I' for Inactive)
REMARK    1  A    between atoms: C_1  and  C_2
REMARK    2  A    between atoms: N_8  and  S_9
REMARK    3  A    between atoms: S_9  and  C_12
REMARK                            x       y       z     vdW  Elec       q    Type
REMARK                         _______ _______ _______ _____ _____    ______ ____
ROOT
ATOM      1  C   UNL     1       0.280   0.575   3.600  0.00  0.00    +0.106 A 
ATOM      2  C   UNL     1      -0.772   1.476   3.607  0.00  0.00    +0.032 A 
ATOM      3  C   UNL     1      -1.674   1.486   4.653  0.00  0.00    +0.049 A 
ATOM      4  C   UNL     1      -1.527   0.597   5.708  0.00  0.00    +0.141 A 
ATOM      5  C   UNL     1      -0.453  -0.300   5.717  0.00  0.00    +0.081 A 
ATOM      6  C   UNL     1       0.440  -0.314   4.641  0.00  0.00    +0.045 A 
ATOM      7  C   UNL     1      -0.240  -1.204   6.855  0.00  0.00    +0.252 C 
ATOM      8  O   UNL     1       0.906  -1.407   7.204  0.00  0.00    -0.270 OA
ATOM      9  N   UNL     1      -1.203  -1.815   7.530  0.00  0.00    -0.278 N 
ATOM     10  C   UNL     1      -2.571  -1.731   7.273  0.00  0.00    +0.078 A 
ATOM     11  C   UNL     1      -3.349  -2.878   7.391  0.00  0.00    +0.047 A 
ATOM     12  C   UNL     1      -4.712  -2.821   7.169  0.00  0.00    +0.043 A 
ATOM     13  C   UNL     1      -5.309  -1.620   6.829  0.00  0.00    +0.024 A 
ATOM     14  C   UNL     1      -4.541  -0.479   6.700  0.00  0.00    +0.049 A 
ATOM     15  C   UNL     1      -3.170  -0.532   6.909  0.00  0.00    +0.150 A 
ATOM     16  O   UNL     1      -2.434   0.591   6.712  0.00  0.00    -0.453 OA
ATOM     17 CL   UNL     1      -5.676  -4.257   7.315  0.00  0.00    -0.083 Cl
ATOM     18  H   UNL     1      -0.931  -2.375   8.274  0.00  0.00    +0.155 HD
ENDROOT
BRANCH   1  19
ATOM     19  S   UNL     1       1.415   0.561   2.252  0.00  0.00    +0.061 S 
ATOM     20  O   UNL     1       2.621  -0.009   2.743  0.00  0.00    -0.153 OA
ATOM     21  O   UNL     1       1.367   1.855   1.668  0.00  0.00    -0.153 OA
BRANCH  19  28
ATOM     22  C   UNL     1      -0.406   1.456   0.279  0.00  0.00    +0.026 C 
ATOM     23  C   UNL     1      -0.191  -0.053   0.149  0.00  0.00    +0.077 C 
ATOM     24  C   UNL     1       0.305  -0.380  -1.263  0.00  0.00    +0.020 C 
ATOM     25  C   UNL     1       0.652  -1.869  -1.345  0.00  0.00    +0.003 C 
ATOM     26  C   UNL     1       1.772  -2.189  -0.353  0.00  0.00    +0.017 C 
ATOM     27  C   UNL     1       1.293  -1.882   1.069  0.00  0.00    +0.110 C 
ATOM     28  N   UNL     1       0.819  -0.492   1.122  0.00  0.00    -0.174 NA
ENDBRANCH  19  28
ENDBRANCH   1  19
TORSDOF 2
