REMARK  Name = ZINC08709724
REMARK  10 active torsions:
REMARK  status: ('A' for Active; 'I' for Inactive)
REMARK    1  A    between atoms: C_1  and  C_2
REMARK    2  A    between atoms: C_2  and  C_3
REMARK    3  A    between atoms: C_3  and  C_4
REMARK    4  A    between atoms: C_4  and  C_5
REMARK    5  A    between atoms: C_8  and  N_11
REMARK    6  A    between atoms: C_13  and  C_35
REMARK    7  A    between atoms: N_23  and  C_28
REMARK    8  A    between atoms: N_26  and  C_27
REMARK    9  A    between atoms: C_28  and  C_29
REMARK   10  A    between atoms: C_29  and  N_71
REMARK                            x       y       z     vdW  Elec       q    Type
REMARK                         _______ _______ _______ _____ _____    ______ ____
ROOT
ATOM      1  N   UNL     1      -1.506   3.566   2.457  0.00  0.00    -0.271 N 
ATOM      2  C   UNL     1      -0.751   3.112   1.273  0.00  0.00    +0.118 C 
ATOM      3  C   UNL     1      -0.729   1.579   1.267  0.00  0.00    +0.024 C 
ATOM      4  C   UNL     1       0.012   1.069   2.508  0.00  0.00    +0.130 C 
ATOM      5  N   UNL     1      -0.524   1.745   3.692  0.00  0.00    -0.306 N 
ATOM      6  C   UNL     1      -1.236   2.914   3.647  0.00  0.00    +0.205 A 
ATOM      7  N   UNL     1      -1.582   3.266   4.865  0.00  0.00    -0.196 NA
ATOM      8  C   UNL     1      -1.127   2.377   5.733  0.00  0.00    +0.170 A 
ATOM      9  C   UNL     1      -0.442   1.387   5.012  0.00  0.00    +0.153 A 
ATOM     10  C   UNL     1       0.157   0.301   5.681  0.00  0.00    +0.282 A 
ATOM     11  O   UNL     1       0.758  -0.571   5.079  0.00  0.00    -0.265 OA
ATOM     12  N   UNL     1       0.029   0.279   7.031  0.00  0.00    -0.261 N 
ATOM     13  C   UNL     1      -0.628   1.230   7.710  0.00  0.00    +0.333 A 
ATOM     14  O   UNL     1      -0.696   1.134   8.920  0.00  0.00    -0.246 OA
ATOM     15  N   UNL     1      -1.219   2.292   7.115  0.00  0.00    -0.280 N 
ATOM     16  C   UNL     1      -1.927   3.309   7.897  0.00  0.00    +0.155 C 
ATOM     17  C   UNL     1      -0.013   1.086   0.008  0.00  0.00    +0.011 C 
ENDROOT
BRANCH   1  21
ATOM     18  C   UNL     1      -4.300   6.646   2.228  0.00  0.00    -0.047 A 
ATOM     19  C   UNL     1      -4.060   6.020   3.438  0.00  0.00    +0.005 A 
ATOM     20  C   UNL     1      -3.134   4.998   3.517  0.00  0.00    +0.024 A 
ATOM     21  C   UNL     1      -2.444   4.599   2.380  0.00  0.00    +0.036 A 
ATOM     22  C   UNL     1      -2.683   5.234   1.167  0.00  0.00    +0.024 A 
ATOM     23  C   UNL     1      -3.614   6.251   1.094  0.00  0.00    +0.005 A 
BRANCH  18  24
ATOM     24  C   UNL     1      -5.311   7.760   2.146  0.00  0.00    +0.035 C 
BRANCH  24  25
ATOM     25  C   UNL     1      -4.619   9.098   2.409  0.00  0.00    +0.004 C 
BRANCH  25  27
ATOM     26  C   UNL     1      -4.953  11.568   2.589  0.00  0.00    +0.004 C 
ATOM     27  C   UNL     1      -5.645  10.229   2.325  0.00  0.00    -0.003 C 
ENDBRANCH  25  27
ENDBRANCH  24  25
ENDBRANCH  18  24
ENDBRANCH   1  21
BRANCH  12  28
ATOM     28  C   UNL     1       0.633  -0.828   7.777  0.00  0.00    +0.111 C 
BRANCH  28  29
ATOM     29  C   UNL     1       2.067  -0.460   8.165  0.00  0.00    -0.057 C 
BRANCH  29  35
ATOM     30  C   UNL     1       2.004  -1.759  10.208  0.00  0.00    -0.050 C 
ATOM     31  C   UNL     1       2.625  -2.960  10.926  0.00  0.00    +0.141 C 
ATOM     32  O   UNL     1       4.032  -2.748  11.069  0.00  0.00    -0.383 OA
ATOM     33  C   UNL     1       4.715  -2.561   9.826  0.00  0.00    +0.141 C 
ATOM     34  C   UNL     1       4.115  -1.356   9.097  0.00  0.00    -0.050 C 
ATOM     35  N   UNL     1       2.669  -1.593   8.899  0.00  0.00    +0.384 N 
ATOM     36  H   UNL     1       2.544  -2.451   8.349  0.00  0.00    -0.082 HD
ENDBRANCH  29  35
ENDBRANCH  28  29
ENDBRANCH  12  28
TORSDOF 7
