REMARK  Name = ZINC35373308
REMARK  8 active torsions:
REMARK  status: ('A' for Active; 'I' for Inactive)
REMARK    1  A    between atoms: C_1  and  C_2
REMARK    2  A    between atoms: C_7  and  C_13
REMARK    3  A    between atoms: C_15  and  C_18
REMARK    4  A    between atoms: C_18  and  C_19
REMARK    5  A    between atoms: C_19  and  C_20
REMARK    6  A    between atoms: N_22  and  C_23
REMARK    7  A    between atoms: C_26  and  C_30
REMARK    8  A    between atoms: C_27  and  C_29
REMARK                            x       y       z     vdW  Elec       q    Type
REMARK                         _______ _______ _______ _____ _____    ______ ____
ROOT
ATOM      1  C   UNL     1       0.098  -6.343   1.160  0.00  0.00    +0.207 A 
ATOM      2  N   UNL     1       0.111  -7.128   2.253  0.00  0.00    -0.191 NA
ATOM      3  C   UNL     1       0.123  -8.382   1.901  0.00  0.00    +0.228 A 
ATOM      4  O   UNL     1       0.118  -8.448   0.563  0.00  0.00    -0.338 OA
ATOM      5  N   UNL     1       0.096  -7.108   0.095  0.00  0.00    -0.056 NA
ENDROOT
BRANCH   1  12
ATOM      6  C   UNL     1       0.003   1.521   0.075  0.00  0.00    +0.044 C 
ATOM      7  C   UNL     1       0.019   0.014   0.059  0.00  0.00    -0.048 A 
ATOM      8  C   UNL     1       0.016  -0.660  -1.155  0.00  0.00    +0.004 A 
ATOM      9  C   UNL     1       0.030  -2.024  -1.192  0.00  0.00    +0.010 A 
ATOM     10  C   UNL     1       0.049  -2.755   0.005  0.00  0.00    -0.001 A 
ATOM     11  C   UNL     1       0.064  -4.172  -0.020  0.00  0.00    +0.027 A 
ATOM     12  C   UNL     1       0.082  -4.862   1.160  0.00  0.00    +0.087 A 
ATOM     13  C   UNL     1       0.086  -4.123   2.426  0.00  0.00    +0.260 A 
ATOM     14  N   UNL     1       0.070  -2.776   2.424  0.00  0.00    -0.322 N 
ATOM     15  C   UNL     1       0.052  -2.074   1.237  0.00  0.00    +0.049 A 
ATOM     16  C   UNL     1       0.042  -0.681   1.247  0.00  0.00    +0.029 A 
ATOM     17  O   UNL     1       0.102  -4.728   3.482  0.00  0.00    -0.267 OA
ATOM     18  H   UNL     1       0.072  -2.295   3.266  0.00  0.00    +0.169 HD
ENDBRANCH   1  12
BRANCH   3  19
ATOM     19  C   UNL     1       0.141  -9.560   2.841  0.00  0.00    +0.108 C 
BRANCH  19  20
ATOM     20  C   UNL     1      -1.296  -9.974   3.166  0.00  0.00    +0.105 C 
BRANCH  20  21
ATOM     21  C   UNL     1      -1.278 -11.152   4.105  0.00  0.00    +0.218 C 
ATOM     22  O   UNL     1      -0.221 -11.615   4.478  0.00  0.00    -0.275 OA
ATOM     23  N   UNL     1      -2.438 -11.692   4.531  0.00  0.00    -0.285 N 
ATOM     24  H   UNL     1      -3.282 -11.281   4.287  0.00  0.00    +0.155 HD
BRANCH  23  25
ATOM     25  C   UNL     1      -2.423 -12.844   5.325  0.00  0.00    +0.034 A 
ATOM     26  C   UNL     1      -3.422 -13.799   5.185  0.00  0.00    +0.023 A 
ATOM     27  C   UNL     1      -3.405 -14.935   5.970  0.00  0.00    +0.005 A 
ATOM     28  C   UNL     1      -2.395 -15.122   6.896  0.00  0.00    -0.047 A 
ATOM     29  C   UNL     1      -1.399 -14.173   7.039  0.00  0.00    -0.046 A 
ATOM     30  C   UNL     1      -1.407 -13.038   6.252  0.00  0.00    +0.027 A 
ATOM     31  C   UNL     1      -0.301 -14.381   8.049  0.00  0.00    +0.044 C 
ATOM     32  C   UNL     1      -2.380 -16.362   7.751  0.00  0.00    +0.044 C 
ENDBRANCH  23  25
ENDBRANCH  20  21
ENDBRANCH  19  20
ENDBRANCH   3  19
TORSDOF 5
