REMARK  Name = ZINC12484240
REMARK  12 active torsions:
REMARK  status: ('A' for Active; 'I' for Inactive)
REMARK    1  A    between atoms: C_1  and  C_2
REMARK    2  A    between atoms: C_2  and  C_3
REMARK    3  A    between atoms: C_3  and  C_4
REMARK    4  A    between atoms: C_3  and  C_5
REMARK    5  A    between atoms: C_3  and  N_6
REMARK    6  A    between atoms: C_7  and  C_9
REMARK    7  A    between atoms: C_9  and  C_11
REMARK    8  A    between atoms: C_9  and  N_16
REMARK    9  A    between atoms: N_16  and  C_17
REMARK   10  A    between atoms: C_27  and  C_29
REMARK   11  A    between atoms: C_29  and  N_30
REMARK   12  A    between atoms: C_31  and  C_33
REMARK                            x       y       z     vdW  Elec       q    Type
REMARK                         _______ _______ _______ _____ _____    ______ ____
ROOT
ATOM      1  N   UNL     1       3.642  -0.660  -0.411  0.00  0.00    -0.251 N 
ATOM      2  C   UNL     1       4.778   0.020  -0.157  0.00  0.00    +0.238 C 
ATOM      3  O   UNL     1       5.808  -0.581   0.063  0.00  0.00    -0.273 OA
ENDROOT
BRANCH   1   4
ATOM      4  C   UNL     1       2.422   0.021  -0.497  0.00  0.00    +0.041 A 
ATOM      5  C   UNL     1       1.284  -0.643  -0.935  0.00  0.00    +0.027 A 
ATOM      6  C   UNL     1       0.081   0.029  -1.023  0.00  0.00    +0.051 A 
ATOM      7  C   UNL     1       0.004   1.369  -0.674  0.00  0.00    +0.162 A 
ATOM      8  C   UNL     1       1.141   2.037  -0.233  0.00  0.00    +0.164 A 
ATOM      9  C   UNL     1       2.349   1.362  -0.147  0.00  0.00    +0.073 A 
ATOM     10  O   UNL     1       1.084   3.350   0.122  0.00  0.00    -0.485 OA
ATOM     11  C   UNL     1      -0.055   4.090  -0.331  0.00  0.00    +0.270 C 
ATOM     12  C   UNL     1      -1.312   3.253  -0.060  0.00  0.00    +0.270 C 
ATOM     13  O   UNL     1      -1.189   2.018  -0.774  0.00  0.00    -0.485 OA
ENDBRANCH   1   4
BRANCH   1  14
ATOM     14  C   UNL     1       3.684  -2.113  -0.595  0.00  0.00    +0.233 C 
BRANCH  14  15
ATOM     15  C   UNL     1       3.171  -2.460  -1.969  0.00  0.00    +0.135 A 
ATOM     16  C   UNL     1       3.683  -3.397  -2.787  0.00  0.00    +0.047 A 
ATOM     17  C   UNL     1       2.897  -3.389  -3.962  0.00  0.00    +0.041 A 
ATOM     18  C   UNL     1       1.956  -2.442  -3.795  0.00  0.00    +0.195 A 
ATOM     19  O   UNL     1       2.127  -1.882  -2.586  0.00  0.00    -0.465 OA
ENDBRANCH  14  15
BRANCH  14  21
ATOM     20  N   UNL     1       2.708  -4.120   0.471  0.00  0.00    -0.308 N 
ATOM     21  C   UNL     1       2.822  -2.777   0.447  0.00  0.00    +0.242 C 
ATOM     22  O   UNL     1       2.230  -2.103   1.263  0.00  0.00    -0.273 OA
ATOM     23  H   UNL     1       3.181  -4.659  -0.182  0.00  0.00    +0.149 HD
BRANCH  20  24
ATOM     24  C   UNL     1       1.869  -4.766   1.484  0.00  0.00    +0.029 C 
ATOM     25  C   UNL     1       2.390  -4.413   2.878  0.00  0.00    +0.031 C 
ATOM     26  C   UNL     1       0.427  -4.275   1.340  0.00  0.00    +0.031 C 
BRANCH  24  28
ATOM     27  C   UNL     1       1.037  -6.957   2.349  0.00  0.00    +0.006 C 
ATOM     28  C   UNL     1       1.913  -6.283   1.291  0.00  0.00    +0.022 C 
ENDBRANCH  24  28
ENDBRANCH  20  24
ENDBRANCH  14  21
ENDBRANCH   1  14
BRANCH   2  29
ATOM     29  C   UNL     1       4.767   1.527  -0.147  0.00  0.00    +0.201 C 
BRANCH  29  30
ATOM     30  N   UNL     1       6.121   2.026  -0.401  0.00  0.00    -0.302 N 
ATOM     31  C   UNL     1       6.353   3.353  -0.438  0.00  0.00    +0.251 C 
ATOM     32  O   UNL     1       5.439   4.137  -0.261  0.00  0.00    -0.270 OA
ATOM     33  H   UNL     1       6.850   1.402  -0.542  0.00  0.00    +0.150 HD
BRANCH  31  34
ATOM     34  C   UNL     1       7.708   3.853  -0.692  0.00  0.00    +0.074 A 
ATOM     35  C   UNL     1       8.154   5.163  -0.775  0.00  0.00    +0.021 A 
ATOM     36  C   UNL     1       9.491   5.353  -1.022  0.00  0.00    +0.008 A 
ATOM     37  C   UNL     1      10.297   4.270  -1.181  0.00  0.00    +0.046 A 
ATOM     38  S   UNL     1       9.210   2.935  -0.981  0.00  0.00    -0.092 S 
ENDBRANCH  31  34
ENDBRANCH  29  30
ENDBRANCH   2  29
TORSDOF 9
