REMARK  Name = ZINC22890544
REMARK  8 active torsions:
REMARK  status: ('A' for Active; 'I' for Inactive)
REMARK    1  A    between atoms: C_1  and  C_2
REMARK    2  A    between atoms: C_3  and  C_20
REMARK    3  A    between atoms: N_7  and  C_8
REMARK    4  A    between atoms: C_8  and  C_10
REMARK    5  A    between atoms: C_10  and  O_11
REMARK    6  A    between atoms: O_11  and  C_12
REMARK    7  A    between atoms: N_25  and  C_26
REMARK    8  A    between atoms: C_26  and  C_27
REMARK                            x       y       z     vdW  Elec       q    Type
REMARK                         _______ _______ _______ _____ _____    ______ ____
ROOT
ATOM      1  C   UNL     1      -0.018   1.503   0.010  0.00  0.00    +0.064 C 
ATOM      2  C   UNL     1       0.002  -0.004   0.002  0.00  0.00    +0.032 A 
ATOM      3  C   UNL     1      -1.143  -0.729   0.004  0.00  0.00    +0.078 A 
ATOM      4  S   UNL     1      -0.519  -2.399  -0.009  0.00  0.00    -0.049 S 
ATOM      5  C   UNL     1       1.127  -2.057  -0.016  0.00  0.00    +0.164 A 
ATOM      6  N   UNL     1       1.167  -0.697  -0.013  0.00  0.00    -0.339 N 
ATOM      7  N   UNL     1       2.149  -2.914  -0.026  0.00  0.00    -0.154 NA
ATOM      8  H   UNL     1       2.017  -0.230  -0.019  0.00  0.00    +0.167 HD
ENDROOT
BRANCH   3   9
ATOM      9  C   UNL     1      -2.539  -0.259   0.014  0.00  0.00    +0.174 A 
ATOM     10  N   UNL     1      -2.943   0.992   0.018  0.00  0.00    -0.128 NA
ATOM     11  N   UNL     1      -4.227   1.039   0.027  0.00  0.00    -0.121 NA
ATOM     12  C   UNL     1      -4.724  -0.177   0.029  0.00  0.00    +0.203 A 
ATOM     13  S   UNL     1      -6.433  -0.608   0.040  0.00  0.00    -0.009 SA
ATOM     14  N   UNL     1      -3.669  -1.047   0.015  0.00  0.00    -0.297 N 
BRANCH  14  15
ATOM     15  C   UNL     1      -3.727  -2.510   0.007  0.00  0.00    +0.152 C 
BRANCH  15  16
ATOM     16  C   UNL     1      -3.739  -3.021   1.424  0.00  0.00    -0.013 C 
ATOM     17  C   UNL     1      -4.699  -3.818   1.825  0.00  0.00    +0.005 C 
ENDBRANCH  15  16
ENDBRANCH  14  15
ENDBRANCH   3   9
BRANCH   7  18
ATOM     18  C   UNL     1       3.396  -2.459  -0.029  0.00  0.00    +0.276 C 
ATOM     19  O   UNL     1       3.606  -1.261  -0.023  0.00  0.00    -0.270 OA
BRANCH  18  20
ATOM     20  C   UNL     1       4.551  -3.427  -0.041  0.00  0.00    +0.326 C 
BRANCH  20  21
ATOM     21  O   UNL     1       5.781  -2.701  -0.043  0.00  0.00    -0.481 OA
BRANCH  21  22
ATOM     22  C   UNL     1       6.929  -3.430  -0.053  0.00  0.00    +0.140 A 
ATOM     23  C   UNL     1       6.871  -4.816  -0.067  0.00  0.00    +0.050 A 
ATOM     24  C   UNL     1       8.037  -5.556  -0.077  0.00  0.00    +0.042 A 
ATOM     25  C   UNL     1       9.265  -4.915  -0.074  0.00  0.00    +0.125 A 
ATOM     26  C   UNL     1       9.325  -3.532  -0.060  0.00  0.00    +0.062 A 
ATOM     27  C   UNL     1       8.160  -2.789  -0.055  0.00  0.00    +0.085 A 
ATOM     28 CL   UNL     1       8.235  -1.054  -0.044  0.00  0.00    -0.080 Cl
ATOM     29  F   UNL     1      10.405  -5.640  -0.084  0.00  0.00    -0.205 F 
ENDBRANCH  21  22
ENDBRANCH  20  21
ENDBRANCH  18  20
ENDBRANCH   7  18
TORSDOF 7
