REMARK  Name = ZINC43961884
REMARK  5 active torsions:
REMARK  status: ('A' for Active; 'I' for Inactive)
REMARK    1  A    between atoms: C_3  and  N_6
REMARK    2  A    between atoms: C_12  and  C_15
REMARK    3  A    between atoms: C_15  and  N_16
REMARK    4  A    between atoms: N_16  and  S_17
REMARK    5  A    between atoms: S_17  and  C_20
REMARK                            x       y       z     vdW  Elec       q    Type
REMARK                         _______ _______ _______ _____ _____    ______ ____
ROOT
ATOM      1  C   UNL     1       9.153   2.645  -2.655  0.00  0.00    +0.109 C 
ENDROOT
BRANCH   1   8
ATOM      2  N   UNL     1       3.663   1.800  -0.025  0.00  0.00    -0.264 N 
ATOM      3  C   UNL     1       4.690   0.927  -0.038  0.00  0.00    +0.307 C 
ATOM      4  O   UNL     1       4.474  -0.267   0.051  0.00  0.00    -0.252 OA
ATOM      5  N   UNL     1       5.955   1.376  -0.150  0.00  0.00    -0.285 N 
ATOM      6  C   UNL     1       6.242   2.817  -0.141  0.00  0.00    +0.109 C 
ATOM      7  C   UNL     1       7.065   3.165  -1.385  0.00  0.00    +0.024 C 
ATOM      8  C   UNL     1       8.310   2.277  -1.432  0.00  0.00    +0.007 C 
ATOM      9  C   UNL     1       7.889   0.809  -1.525  0.00  0.00    +0.024 C 
ATOM     10  C   UNL     1       7.076   0.435  -0.277  0.00  0.00    +0.109 C 
ATOM     11  H   UNL     1       3.838   2.754  -0.020  0.00  0.00    +0.157 HD
BRANCH   2  14
ATOM     12  C   UNL     1      -0.016   1.350   0.003  0.00  0.00    +0.009 A 
ATOM     13  C   UNL     1       1.183   2.039  -0.003  0.00  0.00    +0.031 A 
ATOM     14  C   UNL     1       2.346   1.330  -0.017  0.00  0.00    +0.073 A 
ATOM     15  S   UNL     1       1.753  -0.353  -0.022  0.00  0.00    -0.082 S 
ATOM     16  C   UNL     1       0.002  -0.004  -0.006  0.00  0.00    +0.047 A 
ENDBRANCH   2  14
ENDBRANCH   1   8
BRANCH   1  17
ATOM     17  N   UNL     1      10.402   1.880  -2.635  0.00  0.00    -0.190 NA
ATOM     18  H   UNL     1      10.682   1.429  -1.823  0.00  0.00    +0.148 HD
BRANCH  17  19
ATOM     19  S   UNL     1      11.336   1.785  -3.999  0.00  0.00    +0.058 S 
ATOM     20  O   UNL     1      12.476   1.008  -3.658  0.00  0.00    -0.153 OA
ATOM     21  O   UNL     1      10.465   1.431  -5.065  0.00  0.00    -0.153 OA
BRANCH  19  22
ATOM     22  C   UNL     1      11.921   3.411  -4.345  0.00  0.00    +0.106 A 
ATOM     23  C   UNL     1      11.182   4.256  -5.152  0.00  0.00    +0.029 A 
ATOM     24  C   UNL     1      11.648   5.527  -5.420  0.00  0.00    +0.006 A 
ATOM     25  C   UNL     1      12.852   5.965  -4.885  0.00  0.00    -0.044 A 
ATOM     26  C   UNL     1      13.585   5.125  -4.077  0.00  0.00    -0.042 A 
ATOM     27  C   UNL     1      13.113   3.846  -3.806  0.00  0.00    +0.032 A 
ATOM     28  C   UNL     1      14.891   5.538  -3.450  0.00  0.00    +0.035 C 
ATOM     29  C   UNL     1      15.466   6.760  -4.163  0.00  0.00    +0.005 C 
ATOM     30  C   UNL     1      14.374   7.833  -4.242  0.00  0.00    +0.005 C 
ATOM     31  C   UNL     1      13.305   7.361  -5.225  0.00  0.00    +0.035 C 
ENDBRANCH  19  22
ENDBRANCH  17  19
ENDBRANCH   1  17
TORSDOF 5
