REMARK  Name = ZINC00416280
REMARK  6 active torsions:
REMARK  status: ('A' for Active; 'I' for Inactive)
REMARK    1  A    between atoms: C_1  and  C_2
REMARK    2  A    between atoms: C_2  and  C_3
REMARK    3  A    between atoms: C_2  and  C_4
REMARK    4  A    between atoms: C_2  and  N_5
REMARK    5  A    between atoms: N_5  and  C_6
REMARK    6  A    between atoms: C_7  and  C_15
REMARK                            x       y       z     vdW  Elec       q    Type
REMARK                         _______ _______ _______ _____ _____    ______ ____
ROOT
ATOM      1  C   UNL     1       2.099   0.909  -0.927  0.00  0.00    +0.132 A 
ATOM      2  C   UNL     1       3.135   1.042  -1.829  0.00  0.00    +0.118 A 
ATOM      3  N   UNL     1       4.042   1.885  -1.300  0.00  0.00    -0.225 NA
ATOM      4  C   UNL     1       3.624   2.285  -0.110  0.00  0.00    +0.140 A 
ATOM      5  N   UNL     1       2.407   1.696   0.148  0.00  0.00    -0.288 N 
ATOM      6  C   UNL     1       1.749   1.952   1.322  0.00  0.00    +0.094 A 
ATOM      7  C   UNL     1       2.281   2.786   2.238  0.00  0.00    +0.018 A 
ATOM      8  C   UNL     1       3.521   3.405   2.001  0.00  0.00    +0.005 A 
ATOM      9  C   UNL     1       4.191   3.155   0.845  0.00  0.00    +0.047 A 
ENDROOT
BRANCH   2  10
ATOM     10  C   UNL     1       3.232   0.377  -3.145  0.00  0.00    +0.041 A 
ATOM     11  C   UNL     1       3.774   0.847  -4.312  0.00  0.00    +0.018 A 
ATOM     12  C   UNL     1       3.750   0.035  -5.426  0.00  0.00    +0.008 A 
ATOM     13  C   UNL     1       3.192  -1.198  -5.334  0.00  0.00    +0.046 A 
ATOM     14  S   UNL     1       2.680  -1.252  -3.625  0.00  0.00    -0.095 S 
ENDBRANCH   2  10
BRANCH   1  15
ATOM     15  N   UNL     1       0.953   0.127  -1.084  0.00  0.00    -0.324 N 
ATOM     16  H   UNL     1       0.786  -0.324  -1.926  0.00  0.00    +0.148 HD
BRANCH  15  18
ATOM     17  C   UNL     1      -0.647   1.343   0.310  0.00  0.00    +0.031 C 
ATOM     18  C   UNL     1       0.003  -0.012   0.022  0.00  0.00    +0.025 C 
ATOM     19  C   UNL     1       0.742  -0.498   1.271  0.00  0.00    +0.031 C 
ATOM     20  C   UNL     1      -1.078  -1.025  -0.358  0.00  0.00    +0.031 C 
ENDBRANCH  15  18
ENDBRANCH   1  15
TORSDOF 3
