REMARK  Name = ZINC12660157
REMARK  15 active torsions:
REMARK  status: ('A' for Active; 'I' for Inactive)
REMARK    1  A    between atoms: C_1  and  C_2
REMARK    2  A    between atoms: C_2  and  C_4
REMARK    3  A    between atoms: C_2  and  N_70
REMARK    4  A    between atoms: C_4  and  O_6
REMARK    5  A    between atoms: O_6  and  C_7
REMARK    6  A    between atoms: C_8  and  C_9
REMARK    7  A    between atoms: C_8  and  N_70
REMARK    8  A    between atoms: C_10  and  C_14
REMARK    9  A    between atoms: C_14  and  C_15
REMARK   10  A    between atoms: C_15  and  C_16
REMARK   11  A    between atoms: C_24  and  C_34
REMARK   12  A    between atoms: C_28  and  C_29
REMARK   13  A    between atoms: C_28  and  C_30
REMARK   14  A    between atoms: C_30  and  O_32
REMARK   15  A    between atoms: O_32  and  C_33
REMARK                            x       y       z     vdW  Elec       q    Type
REMARK                         _______ _______ _______ _____ _____    ______ ____
ROOT
ATOM      1  C   UNL     1      -1.637   5.970   2.022  0.00  0.00    +0.013 C 
ENDROOT
BRANCH   1   2
ATOM      2  C   UNL     1      -1.760   4.481   2.351  0.00  0.00    +0.021 C 
ATOM      3  C   UNL     1      -3.212   4.064   2.277  0.00  0.00    -0.073 C 
ATOM      4  C   UNL     1      -3.872   3.729   3.357  0.00  0.00    +0.008 C 
ATOM      5  C   UNL     1      -3.880   4.043   0.919  0.00  0.00    +0.031 C 
ATOM      6  C   UNL     1      -3.011   3.235  -0.048  0.00  0.00    +0.009 C 
ATOM      7  C   UNL     1      -1.588   3.801  -0.053  0.00  0.00    +0.012 C 
ATOM      8  C   UNL     1      -0.960   3.663   1.335  0.00  0.00    -0.022 C 
ATOM      9  C   UNL     1      -0.953   2.190   1.745  0.00  0.00    +0.007 C 
ATOM     10  C   UNL     1      -0.123   1.389   0.739  0.00  0.00    +0.002 C 
ATOM     11  C   UNL     1      -0.729   1.536  -0.658  0.00  0.00    +0.018 C 
ATOM     12  C   UNL     1      -0.743   3.012  -1.060  0.00  0.00    +0.068 C 
ATOM     13  C   UNL     1      -1.347   3.155  -2.459  0.00  0.00    +0.023 C 
ATOM     14  C   UNL     1       0.477   4.186   1.296  0.00  0.00    +0.012 C 
BRANCH  12  15
ATOM     15  C   UNL     1       0.666   3.547  -1.063  0.00  0.00    +0.313 C 
ATOM     16  O   UNL     1       1.597   2.796  -0.891  0.00  0.00    -0.250 OA
BRANCH  15  17
ATOM     17  O   UNL     1       0.886   4.857  -1.256  0.00  0.00    -0.468 OA
ATOM     18  C   UNL     1       2.269   5.301  -1.246  0.00  0.00    +0.280 C 
ENDBRANCH  15  17
ENDBRANCH  12  15
ENDBRANCH   1   2
BRANCH   1  19
ATOM     19  C   UNL     1      -2.333   6.792   3.108  0.00  0.00    +0.039 C 
BRANCH  19  21
ATOM     20  C   UNL     1      -3.020   8.971   1.978  0.00  0.00    +0.091 A 
ATOM     21  C   UNL     1      -2.212   8.259   2.784  0.00  0.00    -0.008 A 
ATOM     22  C   UNL     1      -1.230   9.151   3.272  0.00  0.00    +0.045 A 
ATOM     23  C   UNL     1      -1.492  10.354   2.728  0.00  0.00    +0.195 A 
ATOM     24  O   UNL     1      -2.579  10.239   1.948  0.00  0.00    -0.469 OA
BRANCH  20  25
ATOM     25  C   UNL     1      -4.218   8.437   1.236  0.00  0.00    -0.006 C 
BRANCH  25  26
ATOM     26  N   UNL     1      -5.415   8.575   2.087  0.00  0.00    +0.392 N 
ATOM     27  H   UNL     1      -5.276   8.043   2.954  0.00  0.00    -0.084 HD
ATOM     28  H   UNL     1      -5.558   9.566   2.312  0.00  0.00    -0.084 HD
BRANCH  26  30
ATOM     29  C   UNL     1      -7.188   9.157   0.493  0.00  0.00    -0.002 C 
ATOM     30  C   UNL     1      -6.604   8.059   1.384  0.00  0.00    +0.037 C 
BRANCH  30  31
ATOM     31  C   UNL     1      -7.634   7.636   2.400  0.00  0.00    +0.292 C 
ATOM     32  O   UNL     1      -7.401   7.749   3.580  0.00  0.00    -0.253 OA
BRANCH  31  33
ATOM     33  O   UNL     1      -8.811   7.133   1.993  0.00  0.00    -0.469 OA
ATOM     34  C   UNL     1      -9.755   6.747   3.027  0.00  0.00    +0.280 C 
ENDBRANCH  31  33
ENDBRANCH  30  31
ENDBRANCH  26  30
ENDBRANCH  25  26
ENDBRANCH  20  25
ENDBRANCH  19  21
ENDBRANCH   1  19
TORSDOF 10
