REMARK  Name = ZINC39083513
REMARK  5 active torsions:
REMARK  status: ('A' for Active; 'I' for Inactive)
REMARK    1  A    between atoms: C_1  and  C_2
REMARK    2  A    between atoms: C_5  and  C_11
REMARK    3  A    between atoms: C_7  and  C_10
REMARK    4  A    between atoms: C_11  and  O_13
REMARK    5  A    between atoms: O_13  and  N_14
REMARK                            x       y       z     vdW  Elec       q    Type
REMARK                         _______ _______ _______ _____ _____    ______ ____
ROOT
ATOM      1  C   UNL     1      -0.019   1.526   0.010  0.00  0.00    +0.019 C 
ATOM      2  C   UNL     1       0.002  -0.004   0.002  0.00  0.00    +0.044 C 
ATOM      3  C   UNL     1      -1.433  -0.537   0.021  0.00  0.00    +0.028 C 
ATOM      4  C   UNL     1      -1.423  -2.062  -0.043  0.00  0.00    +0.102 C 
ATOM      5  C   UNL     1      -0.923  -2.655   1.271  0.00  0.00    +0.028 C 
ATOM      6  C   UNL     1       0.580  -2.405   1.419  0.00  0.00    +0.044 C 
ATOM      7  S   UNL     1       0.873  -0.610   1.479  0.00  0.00    -0.154 S 
ATOM      8  C   UNL     1       1.321  -3.006   0.223  0.00  0.00    +0.019 C 
ENDROOT
BRANCH   4   9
ATOM      9  C   UNL     1      -2.821  -2.557  -0.311  0.00  0.00    +0.329 C 
ATOM     10  O   UNL     1      -3.727  -1.768  -0.437  0.00  0.00    -0.249 OA
BRANCH   9  11
ATOM     11  O   UNL     1      -3.059  -3.874  -0.409  0.00  0.00    -0.372 OA
BRANCH  11  12
ATOM     12  N   UNL     1      -4.459  -4.208  -0.671  0.00  0.00    -0.165 NA
ATOM     13  H   UNL     1      -4.791  -3.746  -1.504  0.00  0.00    +0.163 HD
ATOM     14  H   UNL     1      -4.586  -5.207  -0.737  0.00  0.00    +0.163 HD
ENDBRANCH  11  12
ENDBRANCH   9  11
ENDBRANCH   4   9
TORSDOF 3
