REMARK  Name = ZINC07737321
REMARK  9 active torsions:
REMARK  status: ('A' for Active; 'I' for Inactive)
REMARK    1  A    between atoms: C_1  and  C_2
REMARK    2  A    between atoms: C_2  and  N_3
REMARK    3  A    between atoms: C_14  and  C_16
REMARK    4  A    between atoms: N_20  and  C_24
REMARK    5  A    between atoms: C_24  and  C_25
REMARK    6  A    between atoms: C_25  and  C_26
REMARK    7  A    between atoms: C_26  and  N_54
REMARK    8  A    between atoms: C_27  and  N_54
REMARK    9  A    between atoms: C_28  and  N_54
REMARK                            x       y       z     vdW  Elec       q    Type
REMARK                         _______ _______ _______ _____ _____    ______ ____
ROOT
ATOM      1  N   UNL     1       2.523   4.500  -1.184  0.00  0.00    -0.340 N 
ATOM      2  C   UNL     1       3.727   5.114  -1.482  0.00  0.00    +0.050 A 
ATOM      3  C   UNL     1       4.964   4.609  -1.869  0.00  0.00    +0.026 A 
ATOM      4  C   UNL     1       6.016   5.467  -2.106  0.00  0.00    +0.002 A 
ATOM      5  C   UNL     1       5.856   6.836  -1.956  0.00  0.00    +0.001 A 
ATOM      6  C   UNL     1       4.636   7.355  -1.580  0.00  0.00    +0.010 A 
ATOM      7  C   UNL     1       3.565   6.499  -1.337  0.00  0.00    +0.008 A 
ATOM      8  C   UNL     1       2.166   6.715  -0.924  0.00  0.00    +0.008 A 
ATOM      9  C   UNL     1       1.573   5.443  -0.847  0.00  0.00    +0.050 A 
ATOM     10  C   UNL     1       0.234   5.329  -0.474  0.00  0.00    +0.027 A 
ATOM     11  C   UNL     1      -0.500   6.442  -0.186  0.00  0.00    +0.010 A 
ATOM     12  C   UNL     1       0.081   7.717  -0.260  0.00  0.00    -0.023 A 
ATOM     13  C   UNL     1       1.421   7.850  -0.631  0.00  0.00    +0.018 A 
ENDROOT
BRANCH  12  14
ATOM     14  C   UNL     1      -0.718   8.909   0.053  0.00  0.00    +0.028 C 
ATOM     15  C   UNL     1      -0.117  10.121   0.155  0.00  0.00    +0.077 C 
ATOM     16  C   UNL     1      -0.719  11.463   0.287  0.00  0.00    +0.258 C 
ATOM     17  O   UNL     1      -1.926  11.621   0.320  0.00  0.00    -0.269 OA
ATOM     18  N   UNL     1       0.118  12.483   0.369  0.00  0.00    -0.255 N 
ATOM     19  C   UNL     1       1.454  12.303   0.332  0.00  0.00    +0.121 C 
ATOM     20  S   UNL     1       2.689  13.485   0.422  0.00  0.00    -0.027 S 
ATOM     21  S   UNL     1       1.623  10.533   0.174  0.00  0.00    -0.061 S 
BRANCH  18  22
ATOM     22  C   UNL     1      -0.418  13.840   0.501  0.00  0.00    +0.113 C 
BRANCH  22  23
ATOM     23  C   UNL     1      -0.584  14.181   1.983  0.00  0.00    +0.001 C 
BRANCH  23  24
ATOM     24  C   UNL     1      -1.144  15.598   2.121  0.00  0.00    -0.078 C 
BRANCH  24  27
ATOM     25  C   UNL     1      -1.611  17.350   3.726  0.00  0.00    -0.097 C 
ATOM     26  C   UNL     1      -2.331  15.081   4.167  0.00  0.00    -0.097 C 
ATOM     27  N   UNL     1      -1.278  15.920   3.558  0.00  0.00    +0.376 N 
ATOM     28  H   UNL     1      -0.385  15.728   4.027  0.00  0.00    -0.083 HD
ENDBRANCH  24  27
ENDBRANCH  23  24
ENDBRANCH  22  23
ENDBRANCH  18  22
ENDBRANCH  12  14
BRANCH   1  30
ATOM     29  C   UNL     1       2.601   2.452   0.150  0.00  0.00    +0.027 C 
ATOM     30  C   UNL     1       2.289   3.054  -1.221  0.00  0.00    +0.119 C 
ENDBRANCH   1  30
TORSDOF 6
