REMARK  Name = ZINC01922634
REMARK  7 active torsions:
REMARK  status: ('A' for Active; 'I' for Inactive)
REMARK    1  A    between atoms: C_1  and  C_2
REMARK    2  A    between atoms: C_2  and  C_3
REMARK    3  A    between atoms: C_2  and  C_4
REMARK    4  A    between atoms: N_7  and  N_8
REMARK    5  A    between atoms: C_12  and  C_15
REMARK    6  A    between atoms: C_15  and  C_16
REMARK    7  A    between atoms: C_15  and  C_17
REMARK                            x       y       z     vdW  Elec       q    Type
REMARK                         _______ _______ _______ _____ _____    ______ ____
ROOT
ATOM      1  C   UNL     1       1.191  -0.650  -0.013  0.00  0.00    +0.004 C 
ATOM      2  C   UNL     1       0.002  -0.004   0.002  0.00  0.00    +0.037 C 
ATOM      3  C   UNL     1      -0.018   1.460   0.010  0.00  0.00    +0.083 C 
ATOM      4  N   UNL     1      -1.167   2.119   0.019  0.00  0.00    -0.181 NA
ATOM      5  C   UNL     1       1.256   2.183   0.002  0.00  0.00    +0.037 C 
ATOM      6  C   UNL     1       2.414   1.483  -0.013  0.00  0.00    +0.004 C 
ATOM      7  C   UNL     1       2.402   0.072  -0.021  0.00  0.00    +0.186 C 
ATOM      8  O   UNL     1       3.462  -0.535  -0.034  0.00  0.00    -0.287 OA
ENDROOT
BRANCH   4   9
ATOM      9  N   UNL     1      -1.171   3.409   0.026  0.00  0.00    -0.209 N 
ATOM     10  C   UNL     1      -2.340   4.080   0.035  0.00  0.00    +0.346 C 
ATOM     11  O   UNL     1      -2.344   5.288   0.042  0.00  0.00    -0.278 OA
ATOM     12  H   UNL     1      -0.333   3.897   0.025  0.00  0.00    +0.177 HD
ENDBRANCH   4   9
BRANCH   1  14
ATOM     13  C   UNL     1       1.940  -2.646  -1.280  0.00  0.00    +0.012 C 
ATOM     14  C   UNL     1       1.221  -2.157  -0.021  0.00  0.00    +0.017 C 
ATOM     15  C   UNL     1       1.965  -2.659   1.219  0.00  0.00    +0.012 C 
ENDBRANCH   1  14
BRANCH   6  16
ATOM     16  C   UNL     1       3.730   2.217  -0.021  0.00  0.00    +0.017 C 
ATOM     17  C   UNL     1       4.538   1.829   1.219  0.00  0.00    +0.012 C 
ATOM     18  C   UNL     1       4.515   1.844  -1.280  0.00  0.00    +0.012 C 
ENDBRANCH   6  16
TORSDOF 3
