REMARK  Name = ZINC60016058
REMARK  12 active torsions:
REMARK  status: ('A' for Active; 'I' for Inactive)
REMARK    1  A    between atoms: C_1  and  C_2
REMARK    2  A    between atoms: C_7  and  N_8
REMARK    3  A    between atoms: N_8  and  S_9
REMARK    4  A    between atoms: S_9  and  C_12
REMARK    5  A    between atoms: C_15  and  C_35
REMARK    6  A    between atoms: C_16  and  C_18
REMARK    7  A    between atoms: N_20  and  C_21
REMARK    8  A    between atoms: C_21  and  C_23
REMARK    9  A    between atoms: C_21  and  C_24
REMARK   10  A    between atoms: C_24  and  N_25
REMARK   11  A    between atoms: C_27  and  C_34
REMARK   12  A    between atoms: C_30  and  C_33
REMARK                            x       y       z     vdW  Elec       q    Type
REMARK                         _______ _______ _______ _____ _____    ______ ____
ROOT
ATOM      1  C   UNL     1       2.495  -0.597   3.408  0.00  0.00    +0.109 A 
ATOM      2  C   UNL     1       3.102  -1.717   2.867  0.00  0.00    +0.029 A 
ATOM      3  C   UNL     1       4.471  -1.740   2.665  0.00  0.00    +0.006 A 
ATOM      4  C   UNL     1       5.239  -0.644   3.002  0.00  0.00    -0.038 A 
ATOM      5  C   UNL     1       4.633   0.488   3.547  0.00  0.00    +0.041 A 
ATOM      6  C   UNL     1       3.251   0.507   3.743  0.00  0.00    +0.042 A 
ATOM      7  C   UNL     1       6.730  -0.671   2.782  0.00  0.00    +0.044 C 
ENDROOT
BRANCH   5   8
ATOM      8  C   UNL     1       5.450   1.665   3.911  0.00  0.00    +0.245 C 
ATOM      9  O   UNL     1       6.659   1.629   3.784  0.00  0.00    -0.270 OA
ATOM     10  N   UNL     1       4.856   2.779   4.384  0.00  0.00    -0.311 N 
ATOM     11  H   UNL     1       3.892   2.808   4.486  0.00  0.00    +0.149 HD
BRANCH  10  12
ATOM     12  C   UNL     1       5.666   3.945   4.745  0.00  0.00    +0.054 C 
ATOM     13  C   UNL     1       6.178   3.787   6.178  0.00  0.00    +0.026 C 
BRANCH  12  14
ATOM     14  C   UNL     1       4.811   5.210   4.646  0.00  0.00    -0.057 C 
BRANCH  14  15
ATOM     15  N   UNL     1       4.221   5.298   3.303  0.00  0.00    +0.381 N 
ATOM     16  C   UNL     1       5.290   5.463   2.311  0.00  0.00    -0.076 C 
ATOM     17  C   UNL     1       4.688   5.475   0.904  0.00  0.00    -0.031 C 
ATOM     18  C   UNL     1       3.698   6.638   0.788  0.00  0.00    +0.003 C 
ATOM     19  C   UNL     1       2.629   6.495   1.876  0.00  0.00    -0.031 C 
ATOM     20  C   UNL     1       3.308   6.446   3.247  0.00  0.00    -0.076 C 
ATOM     21  C   UNL     1       1.679   7.693   1.818  0.00  0.00    +0.005 C 
ATOM     22  C   UNL     1       5.804   5.649  -0.128  0.00  0.00    +0.005 C 
ATOM     23  H   UNL     1       3.709   4.452   3.105  0.00  0.00    -0.082 HD
ENDBRANCH  14  15
ENDBRANCH  12  14
ENDBRANCH  10  12
ENDBRANCH   5   8
BRANCH   1  24
ATOM     24  S   UNL     1       0.751  -0.578   3.660  0.00  0.00    +0.072 S 
ATOM     25  O   UNL     1       0.499   0.381   4.678  0.00  0.00    -0.150 OA
ATOM     26  O   UNL     1       0.343  -1.934   3.773  0.00  0.00    -0.150 OA
BRANCH  24  27
ATOM     27  N   UNL     1       0.062   0.011   2.274  0.00  0.00    -0.216 N 
ATOM     28  H   UNL     1      -0.471   0.820   2.304  0.00  0.00    +0.174 HD
BRANCH  27  35
ATOM     29  C   UNL     1       0.304   1.567  -0.095  0.00  0.00    +0.046 C 
ATOM     30  C   UNL     1       0.372   0.061  -0.119  0.00  0.00    -0.028 A 
ATOM     31  C   UNL     1       0.562  -0.603  -1.314  0.00  0.00    +0.005 A 
ATOM     32  C   UNL     1       0.625  -1.984  -1.337  0.00  0.00    +0.000 A 
ATOM     33  C   UNL     1       0.497  -2.705  -0.163  0.00  0.00    +0.002 A 
ATOM     34  C   UNL     1       0.307  -2.047   1.036  0.00  0.00    +0.025 A 
ATOM     35  C   UNL     1       0.249  -0.659   1.062  0.00  0.00    +0.051 A 
ENDBRANCH  27  35
ENDBRANCH  24  27
ENDBRANCH   1  24
TORSDOF 7
