REMARK  Name = ZINC06785577
REMARK  6 active torsions:
REMARK  status: ('A' for Active; 'I' for Inactive)
REMARK    1  A    between atoms: C_1  and  C_2
REMARK    2  A    between atoms: C_2  and  O_3
REMARK    3  A    between atoms: O_3  and  C_4
REMARK    4  A    between atoms: C_7  and  N_10
REMARK    5  A    between atoms: C_11  and  C_22
REMARK    6  A    between atoms: C_25  and  C_28
REMARK                            x       y       z     vdW  Elec       q    Type
REMARK                         _______ _______ _______ _____ _____    ______ ____
ROOT
ATOM      1  N   UNL     1      -2.458   3.822   0.045  0.00  0.00    -0.244 N 
ATOM      2  C   UNL     1      -3.707   3.066  -0.059  0.00  0.00    +0.198 C 
ATOM      3  N   UNL     1      -4.719   3.850  -0.775  0.00  0.00    -0.321 N 
ATOM      4  C   UNL     1      -4.859   5.200  -0.471  0.00  0.00    +0.041 A 
ATOM      5  C   UNL     1      -6.070   5.857  -0.611  0.00  0.00    +0.024 A 
ATOM      6  C   UNL     1      -6.158   7.202  -0.306  0.00  0.00    +0.002 A 
ATOM      7  C   UNL     1      -5.044   7.898   0.137  0.00  0.00    +0.001 A 
ATOM      8  C   UNL     1      -3.831   7.258   0.286  0.00  0.00    +0.015 A 
ATOM      9  C   UNL     1      -3.730   5.901  -0.013  0.00  0.00    +0.058 A 
ATOM     10  C   UNL     1      -2.464   5.165   0.159  0.00  0.00    +0.254 C 
ATOM     11  O   UNL     1      -1.433   5.765   0.398  0.00  0.00    -0.270 OA
ATOM     12  H   UNL     1      -5.281   3.435  -1.448  0.00  0.00    +0.148 HD
ENDROOT
BRANCH   1  16
ATOM     13  C   UNL     1       1.179   1.786   0.000  0.00  0.00    +0.121 A 
ATOM     14  C   UNL     1       0.298   1.653  -1.062  0.00  0.00    +0.047 A 
ATOM     15  C   UNL     1      -0.905   2.332  -1.051  0.00  0.00    +0.027 A 
ATOM     16  C   UNL     1      -1.236   3.138   0.030  0.00  0.00    +0.039 A 
ATOM     17  C   UNL     1      -0.353   3.270   1.093  0.00  0.00    +0.027 A 
ATOM     18  C   UNL     1       0.851   2.595   1.078  0.00  0.00    +0.047 A 
BRANCH  13  19
ATOM     19  O   UNL     1       2.365   1.121  -0.014  0.00  0.00    -0.492 OA
BRANCH  19  21
ATOM     20  C   UNL     1       4.502   0.483   0.919  0.00  0.00    +0.048 C 
ATOM     21  C   UNL     1       3.225   1.303   1.113  0.00  0.00    +0.225 C 
ENDBRANCH  19  21
ENDBRANCH  13  19
ENDBRANCH   1  16
BRANCH   2  22
ATOM     22  C   UNL     1      -4.211   2.745   1.325  0.00  0.00    -0.009 A 
ATOM     23  C   UNL     1      -3.312   2.571   2.362  0.00  0.00    +0.008 A 
ATOM     24  C   UNL     1      -3.767   2.281   3.632  0.00  0.00    +0.019 A 
ATOM     25  C   UNL     1      -5.138   2.153   3.866  0.00  0.00    +0.052 A 
ATOM     26  C   UNL     1      -6.039   2.325   2.813  0.00  0.00    +0.019 A 
ATOM     27  C   UNL     1      -5.570   2.620   1.550  0.00  0.00    +0.008 A 
BRANCH  25  28
ATOM     28  C   UNL     1      -5.617   1.846   5.180  0.00  0.00    +0.099 C 
ATOM     29  N   UNL     1      -5.997   1.603   6.223  0.00  0.00    -0.191 NA
ENDBRANCH  25  28
ENDBRANCH   2  22
TORSDOF 5
