REMARK  Name = ZINC13609950
REMARK  10 active torsions:
REMARK  status: ('A' for Active; 'I' for Inactive)
REMARK    1  A    between atoms: C_1  and  C_2
REMARK    2  A    between atoms: C_2  and  C_3
REMARK    3  A    between atoms: C_3  and  C_4
REMARK    4  A    between atoms: C_7  and  C_33
REMARK    5  A    between atoms: C_8  and  N_10
REMARK    6  A    between atoms: N_13  and  C_16
REMARK    7  A    between atoms: C_16  and  C_17
REMARK    8  A    between atoms: N_19  and  C_20
REMARK    9  A    between atoms: C_20  and  C_21
REMARK   10  A    between atoms: C_20  and  C_27
REMARK                            x       y       z     vdW  Elec       q    Type
REMARK                         _______ _______ _______ _____ _____    ______ ____
ROOT
ATOM      1  N   UNL     1      -2.058  -6.375   3.311  0.00  0.00    -0.318 N 
ATOM      2  C   UNL     1      -2.095  -5.422   4.429  0.00  0.00    +0.088 C 
ATOM      3  C   UNL     1      -2.556  -4.056   3.917  0.00  0.00    -0.059 C 
ATOM      4  N   UNL     1      -1.638  -3.594   2.866  0.00  0.00    +0.387 N 
ATOM      5  C   UNL     1      -1.601  -4.547   1.748  0.00  0.00    -0.059 C 
ATOM      6  C   UNL     1      -1.140  -5.913   2.260  0.00  0.00    +0.088 C 
ATOM      7  H   UNL     1      -0.628  -3.538   3.297  0.00  0.00    -0.081 HD
ENDROOT
BRANCH   1  12
ATOM      8  C   UNL     1      -0.467  -8.971   5.167  0.00  0.00    +0.047 A 
ATOM      9  C   UNL     1      -1.008 -10.132   4.639  0.00  0.00    -0.022 A 
ATOM     10  C   UNL     1      -1.942 -10.041   3.624  0.00  0.00    -0.022 A 
ATOM     11  C   UNL     1      -2.308  -8.772   3.163  0.00  0.00    +0.095 A 
ATOM     12  C   UNL     1      -1.713  -7.641   3.749  0.00  0.00    +0.139 A 
ATOM     13  N   UNL     1      -0.820  -7.784   4.716  0.00  0.00    -0.235 NA
ATOM     14  C   UNL     1      -2.390 -11.423   3.210  0.00  0.00    +0.037 C 
ATOM     15  C   UNL     1      -1.960 -12.349   4.368  0.00  0.00    +0.009 C 
ATOM     16  C   UNL     1      -0.764 -11.585   4.977  0.00  0.00    +0.037 C 
BRANCH  11  17
ATOM     17  C   UNL     1      -3.271  -8.627   2.112  0.00  0.00    +0.103 C 
ATOM     18  N   UNL     1      -4.035  -8.512   1.279  0.00  0.00    -0.191 NA
ENDBRANCH  11  17
BRANCH   8  19
ATOM     19  C   UNL     1       0.551  -9.068   6.274  0.00  0.00    +0.055 C 
BRANCH  19  21
ATOM     20  C   UNL     1       2.988  -9.249   6.795  0.00  0.00    +0.004 C 
ATOM     21  C   UNL     1       1.955  -9.151   5.671  0.00  0.00    +0.003 C 
ENDBRANCH  19  21
ENDBRANCH   8  19
ENDBRANCH   1  12
BRANCH   4  22
ATOM     22  C   UNL     1      -2.004  -2.250   2.400  0.00  0.00    +0.019 C 
BRANCH  22  23
ATOM     23  C   UNL     1      -0.913  -1.712   1.511  0.00  0.00    +0.197 C 
ATOM     24  O   UNL     1       0.073  -2.382   1.287  0.00  0.00    -0.278 OA
ATOM     25  N   UNL     1      -1.032  -0.486   0.965  0.00  0.00    -0.306 N 
ATOM     26  H   UNL     1      -1.926   0.122   1.168  0.00  0.00    +0.150 HD
BRANCH  25  27
ATOM     27  C   UNL     1       0.029   0.037   0.101  0.00  0.00    +0.133 C 
BRANCH  27  28
ATOM     28  C   UNL     1      -0.005   1.544   0.119  0.00  0.00    -0.023 A 
ATOM     29  C   UNL     1      -1.217   2.208   0.102  0.00  0.00    +0.006 A 
ATOM     30  C   UNL     1      -1.249   3.590   0.123  0.00  0.00    +0.000 A 
ATOM     31  C   UNL     1      -0.068   4.308   0.152  0.00  0.00    +0.000 A 
ATOM     32  C   UNL     1       1.144   3.644   0.163  0.00  0.00    +0.000 A 
ATOM     33  C   UNL     1       1.176   2.262   0.147  0.00  0.00    +0.006 A 
ENDBRANCH  27  28
BRANCH  27  34
ATOM     34  C   UNL     1      -0.183  -0.453  -1.309  0.00  0.00    -0.023 A 
ATOM     35  C   UNL     1      -1.461  -0.515  -1.833  0.00  0.00    +0.006 A 
ATOM     36  C   UNL     1      -1.655  -0.961  -3.128  0.00  0.00    +0.000 A 
ATOM     37  C   UNL     1      -0.574  -1.353  -3.893  0.00  0.00    +0.000 A 
ATOM     38  C   UNL     1       0.703  -1.296  -3.367  0.00  0.00    +0.000 A 
ATOM     39  C   UNL     1       0.898  -0.846  -2.074  0.00  0.00    +0.006 A 
ENDBRANCH  27  34
ENDBRANCH  25  27
ENDBRANCH  22  23
ENDBRANCH   4  22
TORSDOF 9
