REMARK  Name = ZINC00766531
REMARK  6 active torsions:
REMARK  status: ('A' for Active; 'I' for Inactive)
REMARK    1  A    between atoms: C_1  and  C_2
REMARK    2  A    between atoms: C_3  and  C_17
REMARK    3  A    between atoms: C_4  and  C_10
REMARK    4  A    between atoms: C_17  and  O_19
REMARK    5  A    between atoms: O_19  and  C_20
REMARK    6  A    between atoms: C_20  and  C_21
REMARK                            x       y       z     vdW  Elec       q    Type
REMARK                         _______ _______ _______ _____ _____    ______ ____
ROOT
ATOM      1  C   UNL     1       3.520   2.488   0.126  0.00  0.00    +0.061 C 
ATOM      2  C   UNL     1       2.341   1.552   0.056  0.00  0.00    +0.021 C 
ATOM      3  C   UNL     1       2.546   0.245  -0.214  0.00  0.00    +0.078 C 
ATOM      4  C   UNL     1       1.333  -0.661  -0.276  0.00  0.00    +0.143 C 
ATOM      5  N   UNL     1       0.021  -0.037  -0.035  0.00  0.00    -0.288 N 
ATOM      6  C   UNL     1      -0.022   1.285   0.223  0.00  0.00    +0.304 C 
ATOM      7  O   UNL     1      -1.101   1.811   0.419  0.00  0.00    -0.252 OA
ATOM      8  N   UNL     1       1.083   2.040   0.266  0.00  0.00    -0.273 N 
ATOM      9  H   UNL     1      -0.893  -0.648  -0.067  0.00  0.00    +0.151 HD
ATOM     10  H   UNL     1       0.936   3.108   0.485  0.00  0.00    +0.156 HD
ENDROOT
BRANCH   4  11
ATOM     11  C   UNL     1       1.300  -1.300  -1.640  0.00  0.00    -0.022 A 
ATOM     12  C   UNL     1       0.668  -0.658  -2.689  0.00  0.00    +0.007 A 
ATOM     13  C   UNL     1       0.642  -1.241  -3.942  0.00  0.00    +0.020 A 
ATOM     14  C   UNL     1       1.238  -2.473  -4.144  0.00  0.00    +0.041 A 
ATOM     15  C   UNL     1       1.865  -3.118  -3.093  0.00  0.00    +0.020 A 
ATOM     16  C   UNL     1       1.896  -2.531  -1.842  0.00  0.00    +0.007 A 
ATOM     17 CL   UNL     1       1.199  -3.209  -5.715  0.00  0.00    -0.084 Cl
ENDBRANCH   4  11
BRANCH   3  18
ATOM     18  C   UNL     1       3.849  -0.261  -0.433  0.00  0.00    +0.339 C 
ATOM     19  O   UNL     1       4.794   0.502  -0.505  0.00  0.00    -0.245 OA
BRANCH  18  20
ATOM     20  O   UNL     1       4.044  -1.590  -0.560  0.00  0.00    -0.461 OA
BRANCH  20  21
ATOM     21  C   UNL     1       5.385  -2.031  -0.779  0.00  0.00    +0.236 C 
BRANCH  21  22
ATOM     22  C   UNL     1       5.408  -3.556  -0.898  0.00  0.00    +0.027 C 
ATOM     23  C   UNL     1       4.990  -4.178   0.436  0.00  0.00    +0.007 C 
ATOM     24  C   UNL     1       5.012  -5.703   0.317  0.00  0.00    +0.000 C 
ATOM     25  C   UNL     1       6.426  -6.166  -0.041  0.00  0.00    +0.000 C 
ATOM     26  C   UNL     1       6.844  -5.545  -1.375  0.00  0.00    +0.000 C 
ATOM     27  C   UNL     1       6.822  -4.019  -1.256  0.00  0.00    +0.007 C 
ENDBRANCH  21  22
ENDBRANCH  20  21
ENDBRANCH  18  20
ENDBRANCH   3  18
TORSDOF 5
