REMARK  Name = ZINC39636680
REMARK  8 active torsions:
REMARK  status: ('A' for Active; 'I' for Inactive)
REMARK    1  A    between atoms: C_1  and  C_2
REMARK    2  A    between atoms: C_5  and  C_37
REMARK    3  A    between atoms: C_6  and  C_8
REMARK    4  A    between atoms: C_8  and  N_9
REMARK    5  A    between atoms: C_10  and  C_12
REMARK    6  A    between atoms: C_23  and  C_25
REMARK    7  A    between atoms: C_32  and  C_36
REMARK    8  A    between atoms: N_34  and  C_35
REMARK                            x       y       z     vdW  Elec       q    Type
REMARK                         _______ _______ _______ _____ _____    ______ ____
ROOT
ATOM      1  C   UNL     1       3.087  -4.428   4.200  0.00  0.00    +0.100 C 
ATOM      2  C   UNL     1       4.041  -3.215   4.273  0.00  0.00    +0.121 C 
ATOM      3  N   UNL     1       4.100  -2.871   5.713  0.00  0.00    -0.296 N 
ATOM      4  C   UNL     1       4.124  -4.183   6.404  0.00  0.00    +0.115 C 
ATOM      5  C   UNL     1       3.147  -5.062   5.599  0.00  0.00    -0.004 C 
ATOM      6  C   UNL     1       3.674  -6.491   5.509  0.00  0.00    -0.010 C 
ATOM      7  C   UNL     1       3.670  -7.121   6.905  0.00  0.00    -0.082 C 
ATOM      8  N   UNL     1       2.304  -7.115   7.442  0.00  0.00    +0.379 N 
ATOM      9  C   UNL     1       1.839  -5.734   7.613  0.00  0.00    -0.082 C 
ATOM     10  C   UNL     1       1.766  -5.045   6.247  0.00  0.00    -0.010 C 
ATOM     11  C   UNL     1       4.126  -1.644   6.269  0.00  0.00    +0.250 C 
ATOM     12  O   UNL     1       4.003  -0.657   5.570  0.00  0.00    -0.270 OA
ATOM     13  H   UNL     1       1.690  -7.599   6.803  0.00  0.00    -0.086 HD
ATOM     14  H   UNL     1       2.293  -7.585   8.335  0.00  0.00    -0.086 HD
ENDROOT
BRANCH  11  15
ATOM     15  C   UNL     1       4.305  -1.498   7.727  0.00  0.00    +0.074 A 
ATOM     16  C   UNL     1       5.126  -2.387   8.434  0.00  0.00    +0.127 A 
ATOM     17  N   UNL     1       5.299  -2.275   9.730  0.00  0.00    -0.235 NA
ATOM     18  C   UNL     1       4.707  -1.317  10.437  0.00  0.00    +0.160 A 
ATOM     19  C   UNL     1       3.865  -0.382   9.800  0.00  0.00    +0.060 A 
ATOM     20  C   UNL     1       3.662  -0.468   8.419  0.00  0.00    +0.067 A 
ATOM     21 CL   UNL     1       2.640   0.664   7.592  0.00  0.00    -0.082 Cl
ATOM     22  C   UNL     1       3.384   0.519  10.843  0.00  0.00    +0.071 A 
ATOM     23  N   UNL     1       3.906   0.130  11.971  0.00  0.00    -0.174 NA
ATOM     24  N   UNL     1       4.720  -0.988  11.763  0.00  0.00    -0.249 N 
ATOM     25  C   UNL     1       5.468  -1.697  12.804  0.00  0.00    +0.174 C 
ATOM     26  C   UNL     1       2.453   1.688  10.650  0.00  0.00    +0.068 C 
ENDBRANCH  11  15
BRANCH   1  28
ATOM     27  N   UNL     1       0.852  -4.779   3.199  0.00  0.00    -0.311 N 
ATOM     28  C   UNL     1       1.684  -3.974   3.889  0.00  0.00    +0.218 C 
ATOM     29  O   UNL     1       1.302  -2.884   4.261  0.00  0.00    -0.275 OA
ATOM     30  H   UNL     1       1.157  -5.651   2.901  0.00  0.00    +0.149 HD
BRANCH  27  31
ATOM     31  C   UNL     1      -0.512  -4.338   2.897  0.00  0.00    +0.139 C 
BRANCH  31  37
ATOM     32  C   UNL     1      -2.140  -6.186  -1.460  0.00  0.00    +0.044 C 
ATOM     33  C   UNL     1      -2.007  -6.297   0.037  0.00  0.00    -0.050 A 
ATOM     34  C   UNL     1      -2.542  -7.387   0.699  0.00  0.00    +0.003 A 
ATOM     35  C   UNL     1      -2.421  -7.489   2.072  0.00  0.00    +0.004 A 
ATOM     36  C   UNL     1      -1.763  -6.502   2.783  0.00  0.00    -0.046 A 
ATOM     37  C   UNL     1      -1.228  -5.414   2.121  0.00  0.00    -0.027 A 
ATOM     38  C   UNL     1      -1.346  -5.313   0.748  0.00  0.00    +0.008 A 
ATOM     39  C   UNL     1      -1.631  -6.614   4.280  0.00  0.00    +0.044 C 
ENDBRANCH  31  37
ENDBRANCH  27  31
ENDBRANCH   1  28
TORSDOF 4
