REMARK  Name = ZINC38598077
REMARK  8 active torsions:
REMARK  status: ('A' for Active; 'I' for Inactive)
REMARK    1  A    between atoms: C_4  and  C_7
REMARK    2  A    between atoms: C_7  and  C_8
REMARK    3  A    between atoms: C_7  and  N_14
REMARK    4  A    between atoms: N_17  and  C_18
REMARK    5  A    between atoms: C_18  and  C_19
REMARK    6  A    between atoms: C_19  and  C_21
REMARK    7  A    between atoms: C_19  and  N_26
REMARK    8  A    between atoms: N_29  and  C_32
REMARK                            x       y       z     vdW  Elec       q    Type
REMARK                         _______ _______ _______ _____ _____    ______ ____
ROOT
ATOM      1  C   UNL     1       5.993  -4.107  -2.661  0.00  0.00    +0.098 C 
ENDROOT
BRANCH   1   5
ATOM      2  N   UNL     1       3.909  -2.610  -0.027  0.00  0.00    -0.289 N 
ATOM      3  C   UNL     1       4.986  -2.998  -0.739  0.00  0.00    +0.300 C 
ATOM      4  O   UNL     1       6.104  -2.729  -0.345  0.00  0.00    -0.253 OA
ATOM      5  N   UNL     1       4.823  -3.685  -1.887  0.00  0.00    -0.301 N 
ATOM      6  H   UNL     1       3.017  -2.825  -0.342  0.00  0.00    +0.151 HD
ATOM      7  H   UNL     1       3.931  -3.900  -2.202  0.00  0.00    +0.150 HD
BRANCH   2   8
ATOM      8  C   UNL     1       4.086  -1.864   1.221  0.00  0.00    +0.135 C 
BRANCH   8  12
ATOM      9  C   UNL     1       0.590   0.466   1.993  0.00  0.00    +0.000 A 
ATOM     10  C   UNL     1       1.842   0.994   2.245  0.00  0.00    +0.000 A 
ATOM     11  C   UNL     1       2.974   0.240   1.995  0.00  0.00    +0.006 A 
ATOM     12  C   UNL     1       2.853  -1.042   1.494  0.00  0.00    -0.023 A 
ATOM     13  C   UNL     1       1.600  -1.571   1.243  0.00  0.00    +0.006 A 
ATOM     14  C   UNL     1       0.469  -0.816   1.491  0.00  0.00    +0.000 A 
ENDBRANCH   8  12
BRANCH   8  15
ATOM     15  C   UNL     1       4.308  -2.829   2.356  0.00  0.00    -0.023 A 
ATOM     16  C   UNL     1       3.585  -4.006   2.414  0.00  0.00    +0.006 A 
ATOM     17  C   UNL     1       3.789  -4.892   3.455  0.00  0.00    +0.000 A 
ATOM     18  C   UNL     1       4.716  -4.601   4.439  0.00  0.00    +0.000 A 
ATOM     19  C   UNL     1       5.439  -3.425   4.381  0.00  0.00    +0.000 A 
ATOM     20  C   UNL     1       5.238  -2.541   3.337  0.00  0.00    +0.006 A 
ENDBRANCH   8  15
ENDBRANCH   2   8
ENDBRANCH   1   5
BRANCH   1  21
ATOM     21  C   UNL     1       5.542  -4.977  -3.835  0.00  0.00    +0.017 C 
BRANCH  21  22
ATOM     22  N   UNL     1       4.779  -6.126  -3.329  0.00  0.00    +0.389 N 
ATOM     23  C   UNL     1       4.421  -7.006  -4.449  0.00  0.00    -0.059 C 
ATOM     24  C   UNL     1       3.530  -8.143  -3.939  0.00  0.00    +0.086 C 
ATOM     25  N   UNL     1       4.224  -8.820  -2.833  0.00  0.00    -0.333 N 
ATOM     26  C   UNL     1       4.762  -7.992  -1.742  0.00  0.00    +0.086 C 
ATOM     27  C   UNL     1       5.596  -6.862  -2.355  0.00  0.00    -0.059 C 
ATOM     28  H   UNL     1       3.938  -5.798  -2.880  0.00  0.00    -0.081 HD
BRANCH  25  29
ATOM     29  C   UNL     1       4.369 -10.210  -2.818  0.00  0.00    +0.030 A 
ATOM     30  C   UNL     1       4.917 -10.841  -1.710  0.00  0.00    +0.026 A 
ATOM     31  C   UNL     1       5.059 -12.215  -1.698  0.00  0.00    +0.040 A 
ATOM     32  C   UNL     1       4.654 -12.963  -2.790  0.00  0.00    +0.124 A 
ATOM     33  C   UNL     1       4.107 -12.337  -3.897  0.00  0.00    +0.040 A 
ATOM     34  C   UNL     1       3.959 -10.963  -3.911  0.00  0.00    +0.026 A 
ATOM     35  F   UNL     1       4.794 -14.307  -2.777  0.00  0.00    -0.205 F 
ENDBRANCH  25  29
ENDBRANCH  21  22
BRANCH  21  36
ATOM     36  C   UNL     1       6.750  -5.469  -4.589  0.00  0.00    +0.093 A 
ATOM     37  C   UNL     1       7.133  -5.063  -5.813  0.00  0.00    +0.043 A 
ATOM     38  C   UNL     1       8.309  -5.779  -6.133  0.00  0.00    +0.041 A 
ATOM     39  C   UNL     1       8.575  -6.580  -5.086  0.00  0.00    +0.195 A 
ATOM     40  O   UNL     1       7.631  -6.384  -4.151  0.00  0.00    -0.469 OA
ENDBRANCH  21  36
ENDBRANCH   1  21
TORSDOF 8
