REMARK  Name = ZINC07536018
REMARK  2 active torsions:
REMARK  status: ('A' for Active; 'I' for Inactive)
REMARK    1  A    between atoms: C_6  and  S_9
REMARK    2  A    between atoms: S_9  and  C_10
REMARK                            x       y       z     vdW  Elec       q    Type
REMARK                         _______ _______ _______ _____ _____    ______ ____
ROOT
ATOM      1  S   UNL     1       2.884  -0.393  -2.964  0.00  0.00    -0.086 S 
ENDROOT
BRANCH   1   2
ATOM      2  C   UNL     1       3.047  -2.142  -2.826  0.00  0.00    +0.161 A 
ATOM      3  N   UNL     1       2.760  -2.931  -1.808  0.00  0.00    -0.133 NA
ATOM      4  N   UNL     1       2.966  -4.287  -1.914  0.00  0.00    -0.125 NA
ATOM      5  C   UNL     1       3.451  -4.792  -3.032  0.00  0.00    +0.180 A 
ATOM      6  S   UNL     1       3.640  -3.321  -4.029  0.00  0.00    -0.025 S 
ATOM      7  N   UNL     1       3.735  -6.114  -3.350  0.00  0.00    -0.336 N 
ATOM      8  H   UNL     1       3.575  -6.815  -2.699  0.00  0.00    +0.144 HD
ATOM      9  H   UNL     1       4.092  -6.337  -4.224  0.00  0.00    +0.144 HD
ENDBRANCH   1   2
BRANCH   1  15
ATOM     10  C   UNL     1       1.417   2.056  -0.000  0.00  0.00    +0.002 C 
ATOM     11  C   UNL     1      -0.019   1.528   0.010  0.00  0.00    +0.008 C 
ATOM     12  C   UNL     1       0.002  -0.004   0.002  0.00  0.00    +0.075 C 
ATOM     13  C   UNL     1       0.828  -0.467  -1.178  0.00  0.00    +0.147 C 
ATOM     14  O   UNL     1       0.392  -1.280  -1.958  0.00  0.00    -0.296 OA
ATOM     15  C   UNL     1       2.213   0.113  -1.356  0.00  0.00    +0.119 C 
ATOM     16  C   UNL     1       2.112   1.641  -1.298  0.00  0.00    +0.022 C 
ENDBRANCH   1  15
TORSDOF 2
