REMARK  Name = ZINC39530040
REMARK  6 active torsions:
REMARK  status: ('A' for Active; 'I' for Inactive)
REMARK    1  A    between atoms: C_1  and  C_2
REMARK    2  A    between atoms: C_2  and  O_3
REMARK    3  A    between atoms: O_3  and  C_4
REMARK    4  A    between atoms: N_7  and  C_11
REMARK    5  A    between atoms: C_16  and  C_17
REMARK    6  A    between atoms: C_22  and  O_23
REMARK                            x       y       z     vdW  Elec       q    Type
REMARK                         _______ _______ _______ _____ _____    ______ ____
ROOT
ATOM      1  C   UNL     1      -3.492  -4.586  -1.243  0.00  0.00    +0.038 A 
ATOM      2  C   UNL     1      -2.646  -5.112  -2.210  0.00  0.00    +0.026 A 
ATOM      3  C   UNL     1      -3.160  -5.888  -3.230  0.00  0.00    +0.040 A 
ATOM      4  C   UNL     1      -4.520  -6.146  -3.296  0.00  0.00    +0.124 A 
ATOM      5  C   UNL     1      -5.373  -5.629  -2.340  0.00  0.00    +0.048 A 
ATOM      6  C   UNL     1      -4.865  -4.850  -1.303  0.00  0.00    +0.009 A 
ATOM      7  F   UNL     1      -5.013  -6.906  -4.298  0.00  0.00    -0.205 F 
ENDROOT
BRANCH   1  10
ATOM      8  C   UNL     1      -1.432  -1.925   0.005  0.00  0.00    +0.203 C 
ATOM      9  C   UNL     1      -2.862  -2.342  -0.356  0.00  0.00    +0.152 C 
ATOM     10  N   UNL     1      -2.973  -3.801  -0.211  0.00  0.00    -0.324 N 
ATOM     11  C   UNL     1      -2.525  -4.412   1.050  0.00  0.00    +0.120 C 
ATOM     12  C   UNL     1      -1.109  -3.913   1.356  0.00  0.00    +0.102 C 
ATOM     13  N   UNL     1      -1.095  -2.444   1.337  0.00  0.00    -0.289 NA
ATOM     14  H   UNL     1      -0.205  -2.087   1.650  0.00  0.00    +0.124 HD
BRANCH   8  15
ATOM     15  O   UNL     1      -1.339  -0.499   0.012  0.00  0.00    -0.361 OA
BRANCH  15  17
ATOM     16  C   UNL     1      -0.019   1.526   0.010  0.00  0.00    +0.034 C 
ATOM     17  C   UNL     1       0.002  -0.004   0.002  0.00  0.00    +0.158 C 
ENDBRANCH  15  17
ENDBRANCH   8  15
ENDBRANCH   1  10
BRANCH   6  18
ATOM     18  C   UNL     1      -5.775  -4.298  -0.271  0.00  0.00    +0.025 A 
ATOM     19  C   UNL     1      -6.450  -5.153   0.596  0.00  0.00    +0.012 A 
ATOM     20  C   UNL     1      -7.297  -4.634   1.555  0.00  0.00    +0.001 A 
ATOM     21  C   UNL     1      -7.477  -3.266   1.658  0.00  0.00    +0.004 A 
ATOM     22  C   UNL     1      -6.812  -2.408   0.803  0.00  0.00    +0.046 A 
ATOM     23  C   UNL     1      -5.955  -2.916  -0.161  0.00  0.00    +0.125 A 
BRANCH  23  24
ATOM     24  O   UNL     1      -5.296  -2.073  -0.999  0.00  0.00    -0.506 OA
ATOM     25  H   UNL     1      -5.778  -1.871  -1.812  0.00  0.00    +0.292 HD
ENDBRANCH  23  24
ENDBRANCH   6  18
TORSDOF 5
