REMARK  Name = ZINC02064543
REMARK  12 active torsions:
REMARK  status: ('A' for Active; 'I' for Inactive)
REMARK    1  A    between atoms: C_1  and  C_2
REMARK    2  A    between atoms: C_2  and  O_3
REMARK    3  A    between atoms: O_3  and  C_4
REMARK    4  A    between atoms: C_4  and  C_6
REMARK    5  A    between atoms: C_6  and  C_7
REMARK    6  A    between atoms: C_6  and  S_12
REMARK    7  A    between atoms: C_7  and  O_9
REMARK    8  A    between atoms: O_9  and  C_10
REMARK    9  A    between atoms: C_10  and  C_11
REMARK   10  A    between atoms: S_12  and  C_13
REMARK   11  A    between atoms: N_23  and  C_24
REMARK   12  A    between atoms: C_24  and  C_25
REMARK                            x       y       z     vdW  Elec       q    Type
REMARK                         _______ _______ _______ _____ _____    ______ ____
ROOT
ATOM      1  C   UNL     1      -0.341   2.752   1.773  0.00  0.00    +0.174 A 
ATOM      2  N   UNL     1      -0.914   3.238   2.847  0.00  0.00    -0.223 NA
ATOM      3  C   UNL     1      -1.901   2.575   3.482  0.00  0.00    +0.079 A 
ATOM      4  C   UNL     1      -2.508   3.091   4.632  0.00  0.00    +0.028 A 
ATOM      5  C   UNL     1      -3.504   2.385   5.245  0.00  0.00    +0.002 A 
ATOM      6  C   UNL     1      -3.925   1.160   4.744  0.00  0.00    +0.001 A 
ATOM      7  C   UNL     1      -3.351   0.629   3.622  0.00  0.00    +0.015 A 
ATOM      8  C   UNL     1      -2.332   1.328   2.975  0.00  0.00    +0.065 A 
ATOM      9  C   UNL     1      -1.678   0.807   1.767  0.00  0.00    +0.263 A 
ATOM     10  O   UNL     1      -2.006  -0.261   1.283  0.00  0.00    -0.267 OA
ATOM     11  N   UNL     1      -0.698   1.558   1.213  0.00  0.00    -0.283 N 
ENDROOT
BRANCH   1  12
ATOM     12  S   UNL     1       0.946   3.684   1.013  0.00  0.00    -0.061 S 
BRANCH  12  13
ATOM     13  C   UNL     1       1.001   5.110   2.126  0.00  0.00    +0.270 C 
BRANCH  13  14
ATOM     14  C   UNL     1       1.444   4.663   3.494  0.00  0.00    +0.332 C 
ATOM     15  O   UNL     1       0.659   4.660   4.413  0.00  0.00    -0.249 OA
BRANCH  14  16
ATOM     16  O   UNL     1       2.711   4.267   3.693  0.00  0.00    -0.464 OA
BRANCH  16  18
ATOM     17  C   UNL     1       4.541   3.437   5.069  0.00  0.00    +0.048 C 
ATOM     18  C   UNL     1       3.068   3.849   5.037  0.00  0.00    +0.229 C 
ENDBRANCH  16  18
ENDBRANCH  14  16
ENDBRANCH  13  14
BRANCH  13  19
ATOM     19  C   UNL     1       1.974   6.128   1.590  0.00  0.00    +0.332 C 
ATOM     20  O   UNL     1       2.822   5.795   0.796  0.00  0.00    -0.249 OA
BRANCH  19  21
ATOM     21  O   UNL     1       1.900   7.406   1.995  0.00  0.00    -0.464 OA
BRANCH  21  22
ATOM     22  C   UNL     1       2.870   8.332   1.438  0.00  0.00    +0.229 C 
ATOM     23  C   UNL     1       2.630   9.729   2.013  0.00  0.00    +0.048 C 
ENDBRANCH  21  22
ENDBRANCH  19  21
ENDBRANCH  13  19
ENDBRANCH  12  13
ENDBRANCH   1  12
BRANCH  11  24
ATOM     24  C   UNL     1      -0.013   1.086   0.008  0.00  0.00    +0.154 C 
BRANCH  24  25
ATOM     25  C   UNL     1      -0.742   1.585  -1.213  0.00  0.00    -0.013 C 
ATOM     26  C   UNL     1      -1.150   0.737  -2.124  0.00  0.00    +0.005 C 
ENDBRANCH  24  25
ENDBRANCH  11  24
TORSDOF 10
