REMARK  Name = ZINC39685861
REMARK  13 active torsions:
REMARK  status: ('A' for Active; 'I' for Inactive)
REMARK    1  A    between atoms: C_1  and  C_2
REMARK    2  A    between atoms: C_4  and  C_11
REMARK    3  A    between atoms: C_5  and  C_7
REMARK    4  A    between atoms: C_15  and  C_24
REMARK    5  A    between atoms: N_26  and  C_27
REMARK    6  A    between atoms: C_27  and  C_29
REMARK    7  A    between atoms: C_27  and  C_32
REMARK    8  A    between atoms: C_29  and  C_30
REMARK    9  A    between atoms: C_29  and  C_31
REMARK   10  A    between atoms: N_34  and  C_35
REMARK   11  A    between atoms: C_35  and  C_36
REMARK   12  A    between atoms: C_35  and  C_37
REMARK   13  A    between atoms: C_35  and  C_38
REMARK                            x       y       z     vdW  Elec       q    Type
REMARK                         _______ _______ _______ _____ _____    ______ ____
ROOT
ATOM      1  C   UNL     1      -2.346  -4.703  -0.424  0.00  0.00    +0.250 C 
ATOM      2  O   UNL     1      -1.728  -5.693  -0.765  0.00  0.00    -0.270 OA
ATOM      3  N   UNL     1      -3.671  -4.623  -0.655  0.00  0.00    -0.296 N 
ATOM      4  C   UNL     1      -4.568  -3.468  -0.412  0.00  0.00    +0.121 C 
ATOM      5  C   UNL     1      -5.529  -3.459  -1.622  0.00  0.00    +0.100 C 
ATOM      6  C   UNL     1      -5.522  -4.907  -2.140  0.00  0.00    -0.004 C 
ATOM      7  C   UNL     1      -4.561  -5.668  -1.216  0.00  0.00    +0.115 C 
ATOM      8  C   UNL     1      -5.010  -4.952  -3.576  0.00  0.00    -0.010 C 
ATOM      9  C   UNL     1      -5.067  -6.394  -4.088  0.00  0.00    -0.082 C 
ATOM     10  N   UNL     1      -6.449  -6.884  -4.024  0.00  0.00    +0.379 N 
ATOM     11  C   UNL     1      -6.902  -6.925  -2.628  0.00  0.00    -0.082 C 
ATOM     12  C   UNL     1      -6.923  -5.505  -2.055  0.00  0.00    -0.010 C 
ATOM     13  H   UNL     1      -7.048  -6.268  -4.553  0.00  0.00    -0.086 HD
ATOM     14  H   UNL     1      -6.494  -7.812  -4.418  0.00  0.00    -0.086 HD
ENDROOT
BRANCH   1  18
ATOM     15  C   UNL     1      -1.273  -0.733   2.595  0.00  0.00    +0.086 C 
ATOM     16  C   UNL     1      -1.192  -1.844   1.580  0.00  0.00    +0.103 A 
ATOM     17  C   UNL     1      -2.184  -2.693   1.276  0.00  0.00    +0.058 A 
ATOM     18  C   UNL     1      -1.646  -3.591   0.243  0.00  0.00    +0.087 A 
ATOM     19  C   UNL     1      -0.363  -3.179   0.032  0.00  0.00    +0.220 A 
ATOM     20  O   UNL     1      -0.117  -2.138   0.832  0.00  0.00    -0.455 OA
BRANCH  19  21
ATOM     21  C   UNL     1       0.610  -3.791  -0.943  0.00  0.00    +0.451 C 
ATOM     22  F   UNL     1       0.491  -3.153  -2.183  0.00  0.00    -0.163 F 
ATOM     23  F   UNL     1       1.914  -3.634  -0.462  0.00  0.00    -0.163 F 
ATOM     24  F   UNL     1       0.328  -5.153  -1.091  0.00  0.00    -0.163 F 
ENDBRANCH  19  21
ENDBRANCH   1  18
BRANCH   5  25
ATOM     25  C   UNL     1      -5.025  -2.517  -2.685  0.00  0.00    +0.219 C 
ATOM     26  O   UNL     1      -5.787  -1.735  -3.213  0.00  0.00    -0.275 OA
ATOM     27  N   UNL     1      -3.728  -2.543  -3.049  0.00  0.00    -0.303 N 
ATOM     28  H   UNL     1      -3.118  -3.169  -2.627  0.00  0.00    +0.149 HD
BRANCH  27  29
ATOM     29  C   UNL     1      -3.238  -1.627  -4.082  0.00  0.00    +0.161 C 
BRANCH  29  30
ATOM     30  C   UNL     1      -2.014  -2.216  -4.736  0.00  0.00    +0.234 C 
ATOM     31  O   UNL     1      -1.353  -3.046  -4.149  0.00  0.00    -0.274 OA
ATOM     32  N   UNL     1      -1.654  -1.819  -5.972  0.00  0.00    -0.309 N 
ATOM     33  H   UNL     1      -2.142  -1.106  -6.415  0.00  0.00    +0.149 HD
BRANCH  32  34
ATOM     34  C   UNL     1      -0.525  -2.463  -6.649  0.00  0.00    +0.026 C 
ATOM     35  C   UNL     1      -0.812  -3.957  -6.809  0.00  0.00    +0.031 C 
ATOM     36  C   UNL     1      -0.329  -1.830  -8.028  0.00  0.00    +0.031 C 
ATOM     37  C   UNL     1       0.744  -2.274  -5.815  0.00  0.00    +0.031 C 
ENDBRANCH  32  34
ENDBRANCH  29  30
BRANCH  29  38
ATOM     38  C   UNL     1      -2.880  -0.284  -3.445  0.00  0.00    +0.012 C 
ATOM     39  C   UNL     1      -4.150   0.381  -2.908  0.00  0.00    +0.009 C 
ATOM     40  C   UNL     1      -1.898  -0.511  -2.294  0.00  0.00    +0.009 C 
ENDBRANCH  29  38
ENDBRANCH  27  29
ENDBRANCH   5  25
TORSDOF 7
