REMARK  Name = ZINC39988952
REMARK  4 active torsions:
REMARK  status: ('A' for Active; 'I' for Inactive)
REMARK    1  A    between atoms: C_4  and  C_7
REMARK    2  A    between atoms: C_17  and  C_19
REMARK    3  A    between atoms: C_22  and  C_25
REMARK    4  A    between atoms: C_30  and  C_32
REMARK                            x       y       z     vdW  Elec       q    Type
REMARK                         _______ _______ _______ _____ _____    ______ ____
ROOT
ATOM      1  C   UNL     1       2.429  -0.742  -0.471  0.00  0.00    -0.014 C 
ATOM      2  C   UNL     1       3.543  -0.013  -0.896  0.00  0.00    +0.002 A 
ATOM      3  C   UNL     1       3.476   1.389  -1.036  0.00  0.00    +0.030 A 
ATOM      4  C   UNL     1       4.575   2.075  -1.452  0.00  0.00    +0.042 A 
ATOM      5  C   UNL     1       5.771   1.420  -1.743  0.00  0.00    +0.022 A 
ATOM      6  C   UNL     1       5.896   0.069  -1.627  0.00  0.00    +0.025 A 
ATOM      7  C   UNL     1       4.800  -0.704  -1.203  0.00  0.00    +0.041 A 
ATOM      8  N   UNL     1       4.926  -2.030  -1.089  0.00  0.00    -0.284 N 
ATOM      9  C   UNL     1       3.947  -2.824  -0.699  0.00  0.00    +0.230 C 
ATOM     10  O   UNL     1       4.134  -4.024  -0.618  0.00  0.00    -0.274 OA
ATOM     11  C   UNL     1       2.597  -2.244  -0.344  0.00  0.00    +0.152 C 
ATOM     12 CL   UNL     1       4.487   3.801  -1.623  0.00  0.00    -0.084 Cl
ATOM     13  H   UNL     1       5.782  -2.431  -1.305  0.00  0.00    +0.155 HD
ENDROOT
BRANCH  11  14
ATOM     14  C   UNL     1       2.284  -2.626   1.081  0.00  0.00    +0.056 C 
ATOM     15  N   UNL     1       2.024  -1.807   2.016  0.00  0.00    -0.184 NA
ATOM     16  N   UNL     1       1.766  -2.401   3.249  0.00  0.00    -0.178 N 
ATOM     17  C   UNL     1       1.875  -3.862   3.101  0.00  0.00    +0.173 C 
ATOM     18  C   UNL     1       2.226  -4.041   1.609  0.00  0.00    +0.086 C 
ATOM     19  C   UNL     1       1.467  -1.748   4.389  0.00  0.00    +0.269 C 
ATOM     20  O   UNL     1       1.293  -2.370   5.419  0.00  0.00    -0.268 OA
BRANCH  19  21
ATOM     21  C   UNL     1       1.351  -0.276   4.387  0.00  0.00    +0.074 A 
ATOM     22  C   UNL     1       1.709   0.455   3.253  0.00  0.00    +0.016 A 
ATOM     23  C   UNL     1       1.598   1.829   3.258  0.00  0.00    +0.001 A 
ATOM     24  C   UNL     1       1.133   2.487   4.384  0.00  0.00    +0.003 A 
ATOM     25  C   UNL     1       0.775   1.772   5.512  0.00  0.00    +0.039 A 
ATOM     26  C   UNL     1       0.875   0.393   5.520  0.00  0.00    +0.136 A 
ATOM     27  F   UNL     1       0.521  -0.306   6.621  0.00  0.00    -0.205 F 
ENDBRANCH  19  21
BRANCH  17  28
ATOM     28  C   UNL     1       0.562  -4.529   3.420  0.00  0.00    +0.128 A 
ATOM     29  C   UNL     1       0.409  -5.689   4.083  0.00  0.00    +0.046 A 
ATOM     30  C   UNL     1      -0.980  -5.939   4.157  0.00  0.00    +0.041 A 
ATOM     31  C   UNL     1      -1.593  -4.916   3.535  0.00  0.00    +0.195 A 
ATOM     32  O   UNL     1      -0.655  -4.062   3.095  0.00  0.00    -0.466 OA
ENDBRANCH  17  28
ENDBRANCH  11  14
BRANCH   1  36
ATOM     33  C   UNL     1      -1.206   1.138   0.427  0.00  0.00    +0.000 A 
ATOM     34  C   UNL     1      -0.014   1.716   0.832  0.00  0.00    +0.001 A 
ATOM     35  C   UNL     1       1.187   1.106   0.542  0.00  0.00    +0.008 A 
ATOM     36  C   UNL     1       1.199  -0.106  -0.167  0.00  0.00    -0.020 A 
ATOM     37  C   UNL     1      -0.015  -0.684  -0.572  0.00  0.00    +0.008 A 
ATOM     38  C   UNL     1      -1.204  -0.058  -0.273  0.00  0.00    +0.001 A 
ENDBRANCH   1  36
TORSDOF 4
