REMARK  Name = ZINC55341959
REMARK  11 active torsions:
REMARK  status: ('A' for Active; 'I' for Inactive)
REMARK    1  A    between atoms: C_1  and  C_2
REMARK    2  A    between atoms: C_2  and  C_4
REMARK    3  A    between atoms: C_8  and  C_10
REMARK    4  A    between atoms: C_10  and  N_11
REMARK    5  A    between atoms: N_11  and  C_12
REMARK    6  A    between atoms: N_11  and  C_16
REMARK    7  A    between atoms: C_12  and  C_13
REMARK    8  A    between atoms: C_13  and  O_14
REMARK    9  A    between atoms: O_14  and  C_15
REMARK   10  A    between atoms: C_16  and  C_17
REMARK   11  A    between atoms: N_22  and  C_24
REMARK                            x       y       z     vdW  Elec       q    Type
REMARK                         _______ _______ _______ _____ _____    ______ ____
ROOT
ATOM      1  C   UNL     1      -1.931  -6.168  -1.224  0.00  0.00    +0.086 C 
ENDROOT
BRANCH   1   2
ATOM      2  C   UNL     1      -1.377  -6.613  -2.579  0.00  0.00    -0.014 C 
ATOM      3  C   UNL     1      -2.430  -6.377  -3.665  0.00  0.00    +0.001 C 
ATOM      4  C   UNL     1      -1.896  -6.897  -5.003  0.00  0.00    -0.018 C 
ATOM      5  C   UNL     1      -1.531  -8.376  -4.860  0.00  0.00    -0.078 C 
ATOM      6  N   UNL     1      -0.501  -8.532  -3.825  0.00  0.00    +0.382 N 
ATOM      7  C   UNL     1      -1.030  -8.102  -2.526  0.00  0.00    -0.074 C 
ATOM      8  H   UNL     1       0.301  -7.969  -4.063  0.00  0.00    -0.081 HD
BRANCH   6   9
ATOM      9  C   UNL     1      -0.099  -9.943  -3.746  0.00  0.00    -0.060 C 
ATOM     10  C   UNL     1       1.104 -10.118  -2.795  0.00  0.00    +0.020 C 
ATOM     11  C   UNL     1       1.939 -11.220  -3.411  0.00  0.00    -0.046 A 
ATOM     12  C   UNL     1       2.938 -12.004  -2.859  0.00  0.00    +0.004 A 
ATOM     13  C   UNL     1       3.572 -12.963  -3.624  0.00  0.00    +0.000 A 
ATOM     14  C   UNL     1       3.209 -13.141  -4.947  0.00  0.00    +0.000 A 
ATOM     15  C   UNL     1       2.214 -12.359  -5.499  0.00  0.00    +0.004 A 
ATOM     16  C   UNL     1       1.577 -11.397  -4.733  0.00  0.00    -0.046 A 
ATOM     17  C   UNL     1       0.473 -10.427  -5.096  0.00  0.00    +0.020 C 
ENDBRANCH   6   9
ENDBRANCH   1   2
BRANCH   1  18
ATOM     18  N   UNL     1      -2.204  -4.725  -1.256  0.00  0.00    -0.296 NA
BRANCH  18  19
ATOM     19  C   UNL     1      -0.962  -3.958  -1.414  0.00  0.00    +0.119 C 
BRANCH  19  24
ATOM     20  C   UNL     1      -1.764  -0.740  -3.240  0.00  0.00    +0.017 A 
ATOM     21  C   UNL     1      -1.906   0.151  -2.171  0.00  0.00    +0.011 A 
ATOM     22  C   UNL     1      -1.741  -0.298  -0.878  0.00  0.00    +0.001 A 
ATOM     23  C   UNL     1      -1.437  -1.627  -0.636  0.00  0.00    +0.005 A 
ATOM     24  C   UNL     1      -1.294  -2.514  -1.688  0.00  0.00    -0.033 A 
ATOM     25  C   UNL     1      -1.461  -2.082  -2.987  0.00  0.00    +0.016 A 
BRANCH  20  27
ATOM     26  C   UNL     1      -2.264   1.178  -4.891  0.00  0.00    +0.091 C 
ATOM     27  C   UNL     1      -1.938  -0.269  -4.623  0.00  0.00    +0.160 C 
ATOM     28  O   UNL     1      -1.820  -1.045  -5.548  0.00  0.00    -0.292 OA
ENDBRANCH  20  27
ENDBRANCH  19  24
ENDBRANCH  18  19
BRANCH  18  29
ATOM     29  C   UNL     1      -2.936  -4.301  -0.055  0.00  0.00    +0.112 C 
BRANCH  29  30
ATOM     30  C   UNL     1      -4.385  -4.783  -0.144  0.00  0.00    +0.174 C 
BRANCH  30  31
ATOM     31  O   UNL     1      -4.419  -6.209  -0.063  0.00  0.00    -0.382 OA
ATOM     32  C   UNL     1      -5.738  -6.758  -0.024  0.00  0.00    +0.194 C 
ENDBRANCH  30  31
ENDBRANCH  29  30
ENDBRANCH  18  29
ENDBRANCH   1  18
TORSDOF 9
