REMARK  Name = ZINC13690996
REMARK  6 active torsions:
REMARK  status: ('A' for Active; 'I' for Inactive)
REMARK    1  A    between atoms: C_1  and  C_2
REMARK    2  A    between atoms: C_4  and  O_30
REMARK    3  A    between atoms: C_5  and  C_22
REMARK    4  A    between atoms: C_11  and  C_12
REMARK    5  A    between atoms: C_22  and  N_23
REMARK    6  A    between atoms: C_26  and  C_29
REMARK                            x       y       z     vdW  Elec       q    Type
REMARK                         _______ _______ _______ _____ _____    ______ ____
ROOT
ATOM      1  C   UNL     1      -0.018   1.503   0.010  0.00  0.00    +0.045 C 
ATOM      2  C   UNL     1       0.002  -0.004   0.002  0.00  0.00    -0.033 A 
ATOM      3  C   UNL     1       0.006  -0.682  -1.185  0.00  0.00    +0.050 A 
ATOM      4  C   UNL     1       0.025  -2.074  -1.195  0.00  0.00    +0.122 A 
ATOM      5  C   UNL     1       0.040  -2.787  -0.007  0.00  0.00    +0.020 A 
ATOM      6  C   UNL     1       0.037  -2.114   1.208  0.00  0.00    +0.145 A 
ATOM      7  C   UNL     1       0.023  -0.709   1.206  0.00  0.00    +0.071 A 
ATOM      8  C   UNL     1       0.030  -0.292   2.619  0.00  0.00    +0.232 C 
ATOM      9  O   UNL     1       0.018   0.845   3.062  0.00  0.00    -0.283 OA
ATOM     10  C   UNL     1       0.055  -1.550   3.376  0.00  0.00    +0.179 C 
ATOM     11  C   UNL     1       0.069  -1.673   4.732  0.00  0.00    +0.096 C 
ATOM     12  O   UNL     1       0.049  -2.566   2.481  0.00  0.00    -0.451 OA
ENDROOT
BRANCH  11  13
ATOM     13  C   UNL     1       0.093  -2.958   5.326  0.00  0.00    +0.133 A 
ATOM     14  C   UNL     1       0.103  -3.206   6.667  0.00  0.00    +0.058 A 
ATOM     15  C   UNL     1       0.126  -4.615   6.823  0.00  0.00    +0.021 A 
ATOM     16  C   UNL     1       0.144  -5.465   7.935  0.00  0.00    +0.011 A 
ATOM     17  C   UNL     1       0.165  -6.818   7.753  0.00  0.00    +0.001 A 
ATOM     18  C   UNL     1       0.167  -7.357   6.473  0.00  0.00    +0.004 A 
ATOM     19  C   UNL     1       0.149  -6.538   5.365  0.00  0.00    +0.047 A 
ATOM     20  C   UNL     1       0.128  -5.158   5.525  0.00  0.00    +0.136 A 
ATOM     21  O   UNL     1       0.102  -4.129   4.653  0.00  0.00    -0.455 OA
ENDBRANCH  11  13
BRANCH   4  22
ATOM     22  O   UNL     1       0.029  -2.738  -2.378  0.00  0.00    -0.506 OA
ATOM     23  H   UNL     1       0.913  -2.918  -2.726  0.00  0.00    +0.292 HD
ENDBRANCH   4  22
BRANCH   5  24
ATOM     24  C   UNL     1       0.060  -4.294  -0.033  0.00  0.00    -0.036 C 
BRANCH  24  25
ATOM     25  N   UNL     1       1.452  -4.765  -0.048  0.00  0.00    +0.383 N 
ATOM     26  C   UNL     1       2.098  -4.338  -1.295  0.00  0.00    -0.078 C 
ATOM     27  C   UNL     1       3.569  -4.756  -1.280  0.00  0.00    -0.016 C 
ATOM     28  C   UNL     1       3.661  -6.279  -1.152  0.00  0.00    -0.018 C 
ATOM     29  C   UNL     1       2.920  -6.720   0.113  0.00  0.00    -0.016 C 
ATOM     30  C   UNL     1       1.472  -6.230   0.047  0.00  0.00    -0.078 C 
ATOM     31  C   UNL     1       5.129  -6.698  -1.057  0.00  0.00    +0.007 C 
ATOM     32  H   UNL     1       1.948  -4.371   0.737  0.00  0.00    -0.081 HD
ENDBRANCH  24  25
ENDBRANCH   5  24
TORSDOF 4
