REMARK  Name = ZINC11591800
REMARK  8 active torsions:
REMARK  status: ('A' for Active; 'I' for Inactive)
REMARK    1  A    between atoms: C_1  and  C_2
REMARK    2  A    between atoms: C_2  and  C_4
REMARK    3  A    between atoms: C_2  and  S_21
REMARK    4  A    between atoms: C_9  and  C_12
REMARK    5  A    between atoms: C_16  and  N_18
REMARK    6  A    between atoms: S_21  and  C_22
REMARK    7  A    between atoms: C_25  and  C_28
REMARK    8  A    between atoms: N_26  and  N_27
REMARK                            x       y       z     vdW  Elec       q    Type
REMARK                         _______ _______ _______ _____ _____    ______ ____
ROOT
ATOM      1  C   UNL     1       1.935   9.537   0.039  0.00  0.00    +0.232 C 
ATOM      2  O   UNL     1       0.803   9.971   0.051  0.00  0.00    -0.274 OA
ATOM      3  N   UNL     1       2.147   8.207   0.029  0.00  0.00    -0.264 N 
ATOM      4  C   UNL     1       1.069   7.331   0.034  0.00  0.00    +0.165 A 
ATOM      5  N   UNL     1       1.064   6.011   0.031  0.00  0.00    -0.225 NA
ATOM      6  C   UNL     1      -0.070   5.327   0.031  0.00  0.00    +0.080 A 
ATOM      7  C   UNL     1      -1.260   6.001   0.046  0.00  0.00    +0.076 A 
ATOM      8  S   UNL     1      -0.682   7.693   0.051  0.00  0.00    -0.060 S 
ATOM      9  H   UNL     1       3.053   7.860   0.020  0.00  0.00    +0.157 HD
ENDROOT
BRANCH   6  10
ATOM     10  C   UNL     1      -0.050   3.844   0.023  0.00  0.00    +0.003 A 
ATOM     11  C   UNL     1      -1.246   3.128   0.030  0.00  0.00    +0.010 A 
ATOM     12  C   UNL     1      -1.222   1.749   0.017  0.00  0.00    +0.003 A 
ATOM     13  C   UNL     1      -0.013   1.076   0.008  0.00  0.00    +0.033 A 
ATOM     14  C   UNL     1       1.177   1.781   0.000  0.00  0.00    +0.127 A 
ATOM     15  C   UNL     1       1.165   3.161   0.008  0.00  0.00    +0.042 A 
BRANCH  14  16
ATOM     16  N   UNL     1       2.467   1.054  -0.015  0.00  0.00    +0.056 N 
ATOM     17  O   UNL     1       2.479  -0.164  -0.022  0.00  0.00    -0.126 OA
ATOM     18  O   UNL     1       3.515   1.674  -0.022  0.00  0.00    -0.126 OA
ENDBRANCH  14  16
ENDBRANCH   6  10
BRANCH   1  20
ATOM     19  C   UNL     1       3.671  10.606   1.451  0.00  0.00    +0.029 C 
ATOM     20  C   UNL     1       3.106  10.487   0.034  0.00  0.00    +0.137 C 
BRANCH  20  21
ATOM     21  S   UNL     1       2.559  12.116  -0.536  0.00  0.00    -0.072 S 
BRANCH  21  22
ATOM     22  C   UNL     1       4.106  12.957  -0.588  0.00  0.00    +0.209 A 
ATOM     23  N   UNL     1       5.278  12.451  -0.279  0.00  0.00    -0.121 NA
ATOM     24  N   UNL     1       6.196  13.338  -0.428  0.00  0.00    -0.126 NA
ATOM     25  C   UNL     1       5.666  14.468  -0.842  0.00  0.00    +0.188 A 
ATOM     26  N   UNL     1       4.310  14.256  -0.963  0.00  0.00    -0.223 N 
BRANCH  25  27
ATOM     27  C   UNL     1       6.385  15.719  -1.129  0.00  0.00    +0.058 A 
ATOM     28  C   UNL     1       7.731  15.924  -1.299  0.00  0.00    +0.019 A 
ATOM     29  C   UNL     1       8.178  17.198  -1.567  0.00  0.00    +0.008 A 
ATOM     30  C   UNL     1       7.277  18.212  -1.645  0.00  0.00    +0.046 A 
ATOM     31  S   UNL     1       5.734  17.368  -1.340  0.00  0.00    -0.093 S 
ENDBRANCH  25  27
BRANCH  26  32
ATOM     32  N   UNL     1       3.367  15.156  -1.370  0.00  0.00    -0.295 N 
ATOM     33  H   UNL     1       2.997  15.671  -0.585  0.00  0.00    +0.163 HD
ATOM     34  H   UNL     1       3.740  15.780  -2.069  0.00  0.00    +0.163 HD
ENDBRANCH  26  32
ENDBRANCH  21  22
ENDBRANCH  20  21
ENDBRANCH   1  20
TORSDOF 7
