REMARK  Name = ZINC35306344
REMARK  12 active torsions:
REMARK  status: ('A' for Active; 'I' for Inactive)
REMARK    1  A    between atoms: C_1  and  C_2
REMARK    2  A    between atoms: C_2  and  C_3
REMARK    3  A    between atoms: C_3  and  C_4
REMARK    4  A    between atoms: C_4  and  C_5
REMARK    5  A    between atoms: C_5  and  C_6
REMARK    6  A    between atoms: C_12  and  C_13
REMARK    7  A    between atoms: C_15  and  C_28
REMARK    8  A    between atoms: N_16  and  C_19
REMARK    9  A    between atoms: C_17  and  C_18
REMARK   10  A    between atoms: C_24  and  O_25
REMARK   11  A    between atoms: O_25  and  C_26
REMARK   12  A    between atoms: C_26  and  C_27
REMARK                            x       y       z     vdW  Elec       q    Type
REMARK                         _______ _______ _______ _____ _____    ______ ____
ROOT
ATOM      1  C   UNL     1       0.383  -4.925  -3.793  0.00  0.00    +0.100 C 
ATOM      2  N   UNL     1       0.393  -5.405  -2.582  0.00  0.00    -0.169 NA
ATOM      3  N   UNL     1       0.312  -6.761  -2.350  0.00  0.00    -0.152 N 
ATOM      4  C   UNL     1       0.225  -7.378  -1.083  0.00  0.00    +0.152 C 
ATOM      5  N   UNL     1      -0.205  -6.762  -0.013  0.00  0.00    -0.283 NA
ATOM      6  C   UNL     1       0.670  -8.799  -1.086  0.00  0.00    +0.081 C 
ATOM      7  C   UNL     1       1.291  -9.368   0.007  0.00  0.00    +0.026 C 
ATOM      8  C   UNL     1       0.410  -9.569  -2.325  0.00  0.00    +0.273 C 
ATOM      9  O   UNL     1       0.303 -10.785  -2.298  0.00  0.00    -0.268 OA
ATOM     10  N   UNL     1       0.294  -8.889  -3.483  0.00  0.00    -0.152 NA
ATOM     11  C   UNL     1       0.286  -7.580  -3.458  0.00  0.00    +0.181 C 
ATOM     12  S   UNL     1       0.254  -6.405  -4.787  0.00  0.00    -0.038 S 
ATOM     13  H   UNL     1      -0.484  -5.835  -0.066  0.00  0.00    +0.188 HD
ENDROOT
BRANCH   7  14
ATOM     14  C   UNL     1       1.853 -10.667  -0.093  0.00  0.00    -0.003 A 
ATOM     15  C   UNL     1       2.488 -11.268  -1.274  0.00  0.00    +0.031 A 
ATOM     16  C   UNL     1       2.872 -12.504  -0.912  0.00  0.00    +0.022 A 
ATOM     17  N   UNL     1       2.526 -12.717   0.394  0.00  0.00    -0.314 N 
ATOM     18  C   UNL     1       1.920 -11.626   0.903  0.00  0.00    +0.028 A 
ATOM     19  C   UNL     1       1.403 -11.478   2.311  0.00  0.00    +0.064 C 
ATOM     20  C   UNL     1       3.570 -13.498  -1.803  0.00  0.00    +0.064 C 
BRANCH  17  21
ATOM     21  C   UNL     1       2.774 -13.901   1.104  0.00  0.00    +0.088 A 
ATOM     22  C   UNL     1       3.957 -14.052   1.813  0.00  0.00    +0.030 A 
ATOM     23  C   UNL     1       4.198 -15.219   2.513  0.00  0.00    +0.002 A 
ATOM     24  C   UNL     1       3.263 -16.238   2.508  0.00  0.00    +0.004 A 
ATOM     25  C   UNL     1       2.082 -16.095   1.804  0.00  0.00    +0.048 A 
ATOM     26  C   UNL     1       1.830 -14.925   1.104  0.00  0.00    +0.144 A 
BRANCH  26  27
ATOM     27  O   UNL     1       0.666 -14.780   0.416  0.00  0.00    -0.490 OA
BRANCH  27  28
ATOM     28  C   UNL     1      -0.255 -15.871   0.461  0.00  0.00    +0.226 C 
ATOM     29  C   UNL     1      -1.495 -15.527  -0.365  0.00  0.00    +0.048 C 
ENDBRANCH  27  28
ENDBRANCH  26  27
ENDBRANCH  17  21
ENDBRANCH   7  14
BRANCH   1  30
ATOM     30  C   UNL     1       0.455  -3.488  -4.241  0.00  0.00    +0.064 C 
BRANCH  30  31
ATOM     31  C   UNL     1       0.558  -2.576  -3.017  0.00  0.00    +0.007 C 
BRANCH  31  32
ATOM     32  C   UNL     1       0.631  -1.117  -3.473  0.00  0.00    +0.000 C 
BRANCH  32  34
ATOM     33  C   UNL     1       0.807   1.253  -2.704  0.00  0.00    +0.004 C 
ATOM     34  C   UNL     1       0.733  -0.206  -2.248  0.00  0.00    -0.003 C 
ENDBRANCH  32  34
ENDBRANCH  31  32
ENDBRANCH  30  31
ENDBRANCH   1  30
TORSDOF 8
