REMARK  Name = ZINC20512365
REMARK  14 active torsions:
REMARK  status: ('A' for Active; 'I' for Inactive)
REMARK    1  A    between atoms: C_1  and  C_2
REMARK    2  A    between atoms: C_7  and  C_19
REMARK    3  A    between atoms: C_9  and  C_13
REMARK    4  A    between atoms: C_10  and  C_12
REMARK    5  A    between atoms: C_13  and  O_15
REMARK    6  A    between atoms: O_15  and  C_16
REMARK    7  A    between atoms: C_16  and  C_17
REMARK    8  A    between atoms: C_16  and  C_18
REMARK    9  A    between atoms: C_21  and  O_27
REMARK   10  A    between atoms: C_22  and  O_26
REMARK   11  A    between atoms: O_27  and  C_28
REMARK   12  A    between atoms: C_31  and  C_33
REMARK   13  A    between atoms: C_33  and  O_35
REMARK   14  A    between atoms: O_35  and  C_36
REMARK                            x       y       z     vdW  Elec       q    Type
REMARK                         _______ _______ _______ _____ _____    ______ ____
ROOT
ATOM      1  C   UNL     1       3.961  -2.466  -4.459  0.00  0.00    +0.009 C 
ATOM      2  C   UNL     1       3.786  -1.560  -3.239  0.00  0.00    +0.013 C 
ATOM      3  C   UNL     1       2.699  -2.125  -2.327  0.00  0.00    +0.055 C 
ATOM      4  C   UNL     1       2.496  -1.205  -1.149  0.00  0.00    +0.016 C 
ATOM      5  C   UNL     1       2.691   0.124  -1.263  0.00  0.00    +0.025 C 
ATOM      6  C   UNL     1       2.467   1.041  -0.087  0.00  0.00    +0.092 C 
ATOM      7  C   UNL     1       2.454   0.270   1.200  0.00  0.00    +0.065 C 
ATOM      8  C   UNL     1       2.273  -1.062   1.214  0.00  0.00    +0.016 C 
ATOM      9  N   UNL     1       2.104  -1.750   0.045  0.00  0.00    -0.321 N 
ATOM     10  C   UNL     1       2.258  -1.802   2.526  0.00  0.00    +0.061 C 
ATOM     11  C   UNL     1       3.108   0.693  -2.480  0.00  0.00    +0.176 C 
ATOM     12  O   UNL     1       3.268   1.895  -2.552  0.00  0.00    -0.291 OA
ATOM     13  C   UNL     1       3.360  -0.160  -3.693  0.00  0.00    +0.171 C 
ATOM     14  H   UNL     1       1.648  -2.750   0.069  0.00  0.00    +0.152 HD
ENDROOT
BRANCH   6  15
ATOM     15  C   UNL     1       1.147   1.748  -0.255  0.00  0.00    -0.030 A 
ATOM     16  C   UNL     1       1.109   3.128  -0.338  0.00  0.00    +0.054 A 
ATOM     17  C   UNL     1      -0.103   3.780  -0.492  0.00  0.00    +0.163 A 
ATOM     18  C   UNL     1      -1.282   3.044  -0.563  0.00  0.00    +0.177 A 
ATOM     19  C   UNL     1      -1.237   1.661  -0.484  0.00  0.00    +0.086 A 
ATOM     20  C   UNL     1      -0.023   1.016  -0.325  0.00  0.00    +0.028 A 
ATOM     21 CL   UNL     1      -2.704   0.738  -0.578  0.00  0.00    -0.080 Cl
BRANCH  18  22
ATOM     22  O   UNL     1      -2.475   3.680  -0.714  0.00  0.00    -0.502 OA
ATOM     23  H   UNL     1      -3.406   3.097  -0.770  0.00  0.00    +0.292 HD
ENDBRANCH  18  22
BRANCH  17  24
ATOM     24  O   UNL     1      -0.142   5.137  -0.574  0.00  0.00    -0.491 OA
ATOM     25  C   UNL     1       1.107   5.827  -0.494  0.00  0.00    +0.277 C 
ENDBRANCH  17  24
ENDBRANCH   6  15
BRANCH   7  26
ATOM     26  C   UNL     1       2.634   0.959   2.423  0.00  0.00    +0.338 C 
ATOM     27  O   UNL     1       3.737   1.364   2.736  0.00  0.00    -0.245 OA
BRANCH  26  28
ATOM     28  O   UNL     1       1.581   1.165   3.242  0.00  0.00    -0.459 OA
BRANCH  28  29
ATOM     29  C   UNL     1       1.835   1.867   4.460  0.00  0.00    +0.171 C 
ATOM     30  C   UNL     1       1.655   3.369   4.231  0.00  0.00    +0.052 C 
ATOM     31  C   UNL     1       0.855   1.394   5.536  0.00  0.00    +0.052 C 
ENDBRANCH  28  29
ENDBRANCH  26  28
ENDBRANCH   7  26
BRANCH  13  32
ATOM     32  C   UNL     1       4.456   0.456  -4.524  0.00  0.00    +0.318 C 
ATOM     33  O   UNL     1       5.471  -0.163  -4.740  0.00  0.00    -0.250 OA
BRANCH  32  34
ATOM     34  O   UNL     1       4.304   1.692  -5.024  0.00  0.00    -0.467 OA
ATOM     35  C   UNL     1       5.400   2.222  -5.815  0.00  0.00    +0.280 C 
ENDBRANCH  32  34
ENDBRANCH  13  32
TORSDOF 8
