REMARK  Name = ZINC11652455
REMARK  10 active torsions:
REMARK  status: ('A' for Active; 'I' for Inactive)
REMARK    1  A    between atoms: C_1  and  C_2
REMARK    2  A    between atoms: C_2  and  C_3
REMARK    3  A    between atoms: C_2  and  C_4
REMARK    4  A    between atoms: C_4  and  C_6
REMARK    5  A    between atoms: C_4  and  N_22
REMARK    6  A    between atoms: N_8  and  C_9
REMARK    7  A    between atoms: C_9  and  C_10
REMARK    8  A    between atoms: C_10  and  C_12
REMARK    9  A    between atoms: C_10  and  N_60
REMARK   10  A    between atoms: C_23  and  C_25
REMARK                            x       y       z     vdW  Elec       q    Type
REMARK                         _______ _______ _______ _____ _____    ______ ____
ROOT
ATOM      1  C   UNL     1      -0.671   3.205  -1.435  0.00  0.00    +0.234 C 
ATOM      2  O   UNL     1      -1.717   3.812  -1.344  0.00  0.00    -0.274 OA
ATOM      3  N   UNL     1       0.479   3.874  -1.653  0.00  0.00    -0.315 N 
ATOM      4  H   UNL     1       1.324   3.397  -1.660  0.00  0.00    +0.149 HD
ENDROOT
BRANCH   1   5
ATOM      5  C   UNL     1      -0.656   1.704  -1.305  0.00  0.00    +0.162 C 
BRANCH   5   6
ATOM      6  N   UNL     1      -2.006   1.181  -1.533  0.00  0.00    -0.300 N 
ATOM      7  C   UNL     1      -2.174  -0.085  -1.965  0.00  0.00    +0.246 C 
ATOM      8  O   UNL     1      -1.206  -0.792  -2.165  0.00  0.00    -0.270 OA
ATOM      9  H   UNL     1      -2.778   1.746  -1.374  0.00  0.00    +0.150 HD
BRANCH   7  10
ATOM     10  C   UNL     1      -3.535  -0.612  -2.195  0.00  0.00    +0.055 A 
ATOM     11  C   UNL     1      -4.649   0.199  -1.966  0.00  0.00    +0.016 A 
ATOM     12  C   UNL     1      -5.916  -0.298  -2.183  0.00  0.00    +0.021 A 
ATOM     13  C   UNL     1      -6.087  -1.600  -2.626  0.00  0.00    +0.042 A 
ATOM     14  C   UNL     1      -4.987  -2.410  -2.855  0.00  0.00    +0.040 A 
ATOM     15  C   UNL     1      -3.712  -1.921  -2.648  0.00  0.00    +0.054 A 
ATOM     16 CL   UNL     1      -2.334  -2.935  -2.943  0.00  0.00    -0.083 Cl
ATOM     17 CL   UNL     1      -7.686  -2.218  -2.896  0.00  0.00    -0.083 Cl
ENDBRANCH   7  10
ENDBRANCH   5   6
BRANCH   5  19
ATOM     18  C   UNL     1      -0.117  -0.206   0.213  0.00  0.00    +0.009 C 
ATOM     19  C   UNL     1      -0.191   1.318   0.101  0.00  0.00    +0.012 C 
ATOM     20  C   UNL     1       1.193   1.917   0.362  0.00  0.00    +0.009 C 
ENDBRANCH   5  19
ENDBRANCH   1   5
BRANCH   3  21
ATOM     21  C   UNL     1       0.454   5.321  -1.878  0.00  0.00    +0.093 C 
BRANCH  21  22
ATOM     22  C   UNL     1       1.862   5.808  -2.224  0.00  0.00    -0.020 C 
BRANCH  22  23
ATOM     23  C   UNL     1       2.281   5.231  -3.552  0.00  0.00    -0.059 A 
ATOM     24  C   UNL     1       1.827   5.800  -4.727  0.00  0.00    +0.002 A 
ATOM     25  C   UNL     1       2.215   5.273  -5.945  0.00  0.00    +0.000 A 
ATOM     26  C   UNL     1       3.049   4.172  -5.988  0.00  0.00    +0.000 A 
ATOM     27  C   UNL     1       3.499   3.600  -4.812  0.00  0.00    +0.000 A 
ATOM     28  C   UNL     1       3.115   4.129  -3.595  0.00  0.00    +0.002 A 
ENDBRANCH  22  23
BRANCH  22  33
ATOM     29  C   UNL     1       1.453   7.880  -1.013  0.00  0.00    -0.078 C 
ATOM     30  C   UNL     1       2.009   9.323  -1.103  0.00  0.00    -0.020 C 
ATOM     31  C   UNL     1       3.361   9.128  -1.826  0.00  0.00    -0.020 C 
ATOM     32  C   UNL     1       3.229   7.787  -2.571  0.00  0.00    -0.078 C 
ATOM     33  N   UNL     1       1.876   7.300  -2.297  0.00  0.00    +0.385 N 
ATOM     34  H   UNL     1       1.240   7.607  -3.043  0.00  0.00    -0.081 HD
ENDBRANCH  22  33
ENDBRANCH  21  22
ENDBRANCH   3  21
TORSDOF 8
