REMARK  Name = ZINC36056889
REMARK  8 active torsions:
REMARK  status: ('A' for Active; 'I' for Inactive)
REMARK    1  A    between atoms: C_1  and  O_2
REMARK    2  A    between atoms: O_2  and  C_3
REMARK    3  A    between atoms: C_7  and  C_11
REMARK    4  A    between atoms: C_8  and  O_9
REMARK    5  A    between atoms: O_9  and  C_10
REMARK    6  A    between atoms: C_22  and  S_27
REMARK    7  A    between atoms: S_27  and  N_30
REMARK    8  A    between atoms: N_30  and  C_31
REMARK                            x       y       z     vdW  Elec       q    Type
REMARK                         _______ _______ _______ _____ _____    ______ ____
ROOT
ATOM      1  C   UNL     1      -4.691  -2.143  -2.995  0.00  0.00    +0.109 C 
ATOM      2  C   UNL     1      -3.774  -2.674  -1.907  0.00  0.00    +0.029 C 
ATOM      3  C   UNL     1      -2.462  -1.916  -1.665  0.00  0.00    +0.033 C 
ATOM      4  C   UNL     1      -2.220  -2.187  -0.179  0.00  0.00    -0.030 C 
ATOM      5  C   UNL     1      -3.374  -2.429   0.432  0.00  0.00    -0.023 C 
ATOM      6  C   UNL     1      -4.486  -2.337  -0.563  0.00  0.00    +0.049 C 
ATOM      7  C   UNL     1      -5.711  -3.161  -0.480  0.00  0.00    -0.018 A 
ATOM      8  C   UNL     1      -6.182  -3.669   0.711  0.00  0.00    +0.034 A 
ATOM      9  C   UNL     1      -7.341  -4.423   0.739  0.00  0.00    +0.109 A 
ATOM     10  C   UNL     1      -8.033  -4.670  -0.433  0.00  0.00    +0.030 A 
ATOM     11  C   UNL     1      -7.566  -4.170  -1.631  0.00  0.00    +0.025 A 
ATOM     12  C   UNL     1      -6.399  -3.417  -1.671  0.00  0.00    +0.031 A 
ATOM     13  N   UNL     1      -5.927  -2.950  -2.907  0.00  0.00    -0.336 N 
ATOM     14  H   UNL     1      -6.417  -3.160  -3.718  0.00  0.00    +0.147 HD
ENDROOT
BRANCH   1  19
ATOM     15  C   UNL     1      -6.520   1.025  -2.021  0.00  0.00    +0.162 A 
ATOM     16  C   UNL     1      -5.564   1.988  -2.304  0.00  0.00    +0.049 A 
ATOM     17  C   UNL     1      -4.332   1.612  -2.806  0.00  0.00    +0.004 A 
ATOM     18  C   UNL     1      -4.051   0.277  -3.029  0.00  0.00    +0.009 A 
ATOM     19  C   UNL     1      -5.000  -0.689  -2.750  0.00  0.00    +0.018 A 
ATOM     20  C   UNL     1      -6.235  -0.319  -2.240  0.00  0.00    +0.166 A 
BRANCH  15  22
ATOM     21  C   UNL     1      -7.955   2.790  -1.327  0.00  0.00    +0.277 C 
ATOM     22  O   UNL     1      -7.732   1.393  -1.526  0.00  0.00    -0.491 OA
ENDBRANCH  15  22
BRANCH  20  23
ATOM     23  O   UNL     1      -7.168  -1.268  -1.959  0.00  0.00    -0.491 OA
ATOM     24  C   UNL     1      -8.172  -1.503  -2.948  0.00  0.00    +0.277 C 
ENDBRANCH  20  23
ENDBRANCH   1  19
BRANCH   9  25
ATOM     25  S   UNL     1      -7.935  -5.070   2.266  0.00  0.00    +0.072 S 
ATOM     26  O   UNL     1      -8.815  -6.137   1.940  0.00  0.00    -0.150 OA
ATOM     27  O   UNL     1      -6.799  -5.248   3.101  0.00  0.00    -0.150 OA
BRANCH  25  28
ATOM     28  N   UNL     1      -8.860  -3.891   2.971  0.00  0.00    -0.216 N 
ATOM     29  H   UNL     1      -9.809  -4.037   3.109  0.00  0.00    +0.174 HD
BRANCH  28  30
ATOM     30  C   UNL     1      -8.273  -2.686   3.367  0.00  0.00    +0.048 A 
ATOM     31  C   UNL     1      -7.482  -2.639   4.508  0.00  0.00    +0.027 A 
ATOM     32  C   UNL     1      -6.903  -1.447   4.897  0.00  0.00    +0.040 A 
ATOM     33  C   UNL     1      -7.110  -0.299   4.151  0.00  0.00    +0.124 A 
ATOM     34  C   UNL     1      -7.898  -0.343   3.013  0.00  0.00    +0.040 A 
ATOM     35  C   UNL     1      -8.475  -1.534   2.617  0.00  0.00    +0.027 A 
ATOM     36  F   UNL     1      -6.543   0.866   4.533  0.00  0.00    -0.205 F 
ENDBRANCH  28  30
ENDBRANCH  25  28
ENDBRANCH   9  25
TORSDOF 6
