REMARK  Name = ZINC10824454
REMARK  4 active torsions:
REMARK  status: ('A' for Active; 'I' for Inactive)
REMARK    1  A    between atoms: C_13  and  C_16
REMARK    2  A    between atoms: C_21  and  N_24
REMARK    3  A    between atoms: N_24  and  S_25
REMARK    4  A    between atoms: S_25  and  C_28
REMARK                            x       y       z     vdW  Elec       q    Type
REMARK                         _______ _______ _______ _____ _____    ______ ____
ROOT
ATOM      1  C   UNL     1       0.002  -0.004   0.002  0.00  0.00    +0.219 C 
ATOM      2  O   UNL     1       1.055  -0.596  -0.110  0.00  0.00    -0.275 OA
ATOM      3  N   UNL     1      -0.015   1.343   0.017  0.00  0.00    -0.301 N 
ATOM      4  C   UNL     1      -1.289   2.075   0.043  0.00  0.00    +0.109 C 
ATOM      5  C   UNL     1      -1.266   3.055   1.226  0.00  0.00    +0.039 C 
ATOM      6  C   UNL     1      -0.030   3.950   1.116  0.00  0.00    +0.080 C 
ATOM      7  C   UNL     1       1.233   3.088   1.180  0.00  0.00    +0.039 C 
ATOM      8  C   UNL     1       1.239   2.109   0.002  0.00  0.00    +0.109 C 
ENDROOT
BRANCH   1  21
ATOM      9  C   UNL     1      -7.241  -6.489   2.651  0.00  0.00    +0.002 A 
ATOM     10  C   UNL     1      -7.361  -6.676   1.283  0.00  0.00    +0.004 A 
ATOM     11  C   UNL     1      -6.485  -6.059   0.412  0.00  0.00    +0.048 A 
ATOM     12  C   UNL     1      -5.478  -5.247   0.907  0.00  0.00    +0.157 A 
ATOM     13  C   UNL     1      -5.353  -5.055   2.291  0.00  0.00    +0.111 A 
ATOM     14  C   UNL     1      -6.245  -5.685   3.160  0.00  0.00    +0.031 A 
ATOM     15  N   UNL     1      -4.291  -4.222   2.474  0.00  0.00    -0.195 NA
ATOM     16  C   UNL     1      -3.791  -3.916   1.304  0.00  0.00    +0.291 A 
ATOM     17  O   UNL     1      -4.494  -4.520   0.330  0.00  0.00    -0.424 OA
ATOM     18  N   UNL     1      -2.708  -3.092   1.101  0.00  0.00    -0.285 N 
ATOM     19  C   UNL     1      -2.408  -2.960  -0.330  0.00  0.00    +0.110 C 
ATOM     20  C   UNL     1      -1.117  -2.159  -0.511  0.00  0.00    +0.032 C 
ATOM     21  C   UNL     1      -1.287  -0.776   0.124  0.00  0.00    +0.078 C 
ATOM     22  C   UNL     1      -1.646  -0.941   1.603  0.00  0.00    +0.032 C 
ATOM     23  C   UNL     1      -2.921  -1.779   1.723  0.00  0.00    +0.110 C 
ENDBRANCH   1  21
BRANCH   6  24
ATOM     24  N   UNL     1      -0.022   4.910   2.223  0.00  0.00    -0.186 NA
ATOM     25  H   UNL     1       0.352   4.657   3.081  0.00  0.00    +0.148 HD
BRANCH  24  26
ATOM     26  S   UNL     1      -0.653   6.426   2.009  0.00  0.00    +0.065 S 
ATOM     27  O   UNL     1      -0.524   7.099   3.253  0.00  0.00    -0.153 OA
ATOM     28  O   UNL     1      -0.091   6.933   0.806  0.00  0.00    -0.153 OA
BRANCH  26  29
ATOM     29  C   UNL     1      -2.380   6.234   1.716  0.00  0.00    +0.142 A 
ATOM     30  C   UNL     1      -3.400   6.212   2.608  0.00  0.00    +0.036 A 
ATOM     31  C   UNL     1      -4.692   6.049   2.145  0.00  0.00    +0.010 A 
ATOM     32  C   UNL     1      -4.901   5.917   0.812  0.00  0.00    +0.047 A 
ATOM     33  S   UNL     1      -3.241   6.028   0.165  0.00  0.00    -0.077 S 
ENDBRANCH  26  29
ENDBRANCH  24  26
ENDBRANCH   6  24
TORSDOF 4
