REMARK  Name = ZINC37191223
REMARK  5 active torsions:
REMARK  status: ('A' for Active; 'I' for Inactive)
REMARK    1  A    between atoms: C_5  and  C_7
REMARK    2  A    between atoms: C_9  and  C_12
REMARK    3  A    between atoms: C_12  and  S_13
REMARK    4  A    between atoms: S_13  and  C_14
REMARK    5  A    between atoms: C_17  and  N_20
REMARK                            x       y       z     vdW  Elec       q    Type
REMARK                         _______ _______ _______ _____ _____    ______ ____
ROOT
ATOM      1  C   UNL     1       1.249  -2.161  -0.023  0.00  0.00    +0.110 A 
ATOM      2  N   UNL     1       0.240  -3.021  -0.023  0.00  0.00    -0.243 NA
ATOM      3  C   UNL     1       0.449  -4.316  -0.033  0.00  0.00    +0.059 A 
ATOM      4  C   UNL     1       1.721  -4.797  -0.042  0.00  0.00    +0.071 A 
ATOM      5  S   UNL     1       2.651  -3.270  -0.044  0.00  0.00    -0.075 S 
ENDROOT
BRANCH   1  10
ATOM      6  C   UNL     1      -0.017   1.375   0.010  0.00  0.00    +0.001 A 
ATOM      7  C   UNL     1       1.170   2.087   0.002  0.00  0.00    +0.001 A 
ATOM      8  C   UNL     1       2.383   1.422  -0.013  0.00  0.00    +0.020 A 
ATOM      9  C   UNL     1       2.416   0.041  -0.021  0.00  0.00    +0.051 A 
ATOM     10  C   UNL     1       1.222  -0.682  -0.014  0.00  0.00    +0.025 A 
ATOM     11  C   UNL     1       0.002  -0.004   0.002  0.00  0.00    +0.012 A 
ATOM     12 CL   UNL     1       3.938  -0.793  -0.041  0.00  0.00    -0.083 Cl
ENDBRANCH   1  10
BRANCH   3  13
ATOM     13  C   UNL     1      -0.718  -5.270  -0.033  0.00  0.00    +0.131 C 
BRANCH  13  14
ATOM     14  S   UNL     1      -1.195  -5.641  -1.743  0.00  0.00    -0.100 S 
BRANCH  14  15
ATOM     15  C   UNL     1      -2.553  -6.752  -1.575  0.00  0.00    +0.097 A 
ATOM     16  C   UNL     1      -3.175  -7.255  -2.713  0.00  0.00    +0.036 A 
ATOM     17  C   UNL     1      -4.239  -8.126  -2.570  0.00  0.00    +0.027 A 
ATOM     18  C   UNL     1      -4.650  -8.467  -1.282  0.00  0.00    +0.043 A 
ATOM     19  C   UNL     1      -3.982  -7.926  -0.194  0.00  0.00    +0.134 A 
ATOM     20  N   UNL     1      -2.966  -7.102  -0.367  0.00  0.00    -0.247 NA
BRANCH  18  21
ATOM     21  N   UNL     1      -5.724  -9.345  -1.090  0.00  0.00    -0.357 N 
ATOM     22  H   UNL     1      -6.187  -9.720  -1.855  0.00  0.00    +0.142 HD
ATOM     23  H   UNL     1      -6.005  -9.578  -0.191  0.00  0.00    +0.142 HD
ENDBRANCH  18  21
ENDBRANCH  14  15
ENDBRANCH  13  14
ENDBRANCH   3  13
TORSDOF 5
