REMARK  Name = ZINC18081235
REMARK  4 active torsions:
REMARK  status: ('A' for Active; 'I' for Inactive)
REMARK    1  A    between atoms: C_1  and  C_2
REMARK    2  A    between atoms: C_6  and  C_27
REMARK    3  A    between atoms: C_7  and  N_8
REMARK    4  A    between atoms: C_19  and  C_20
REMARK                            x       y       z     vdW  Elec       q    Type
REMARK                         _______ _______ _______ _____ _____    ______ ____
ROOT
ATOM      1  N   UNL     1       0.025  -0.013   2.419  0.00  0.00    -0.204 N 
ATOM      2  C   UNL     1       1.145   0.374   3.053  0.00  0.00    +0.258 C 
ATOM      3  O   UNL     1       2.269   0.299   2.588  0.00  0.00    -0.269 OA
ATOM      4  C   UNL     1       0.839   0.876   4.319  0.00  0.00    +0.081 C 
ATOM      5  H   UNL     1      -0.116   1.828   7.173  0.00  0.00    +0.194 HD
ATOM      6  C   UNL     1      -0.654   1.218   4.211  0.00  0.00    +0.272 C 
ATOM      7  C   UNL     1      -1.099   0.341   3.080  0.00  0.00    +0.263 C 
ATOM      8  O   UNL     1      -2.236   0.014   2.815  0.00  0.00    -0.271 OA
ATOM      9  O   UNL     1      -1.097   0.828   5.520  0.00  0.00    -0.256 OA
ATOM     10  N   UNL     1      -0.029   1.383   6.315  0.00  0.00    -0.264 N 
ATOM     11  C   UNL     1       1.146   1.158   5.613  0.00  0.00    +0.080 C 
ENDROOT
BRANCH   1  18
ATOM     12  C   UNL     1      -0.018   1.503   0.010  0.00  0.00    +0.046 C 
ATOM     13  C   UNL     1       0.002  -0.004   0.002  0.00  0.00    -0.028 A 
ATOM     14  C   UNL     1       0.006  -0.689  -1.198  0.00  0.00    +0.005 A 
ATOM     15  C   UNL     1       0.025  -2.071  -1.206  0.00  0.00    +0.001 A 
ATOM     16  C   UNL     1       0.040  -2.773  -0.014  0.00  0.00    +0.005 A 
ATOM     17  C   UNL     1       0.036  -2.094   1.188  0.00  0.00    -0.028 A 
ATOM     18  C   UNL     1       0.023  -0.705   1.200  0.00  0.00    +0.050 A 
ATOM     19  C   UNL     1       0.052  -2.859   2.487  0.00  0.00    +0.046 C 
ENDBRANCH   1  18
BRANCH  11  20
ATOM     20  C   UNL     1       2.509   1.215   6.179  0.00  0.00    +0.001 A 
ATOM     21  C   UNL     1       3.617   0.973   5.364  0.00  0.00    +0.011 A 
ATOM     22  C   UNL     1       4.887   1.027   5.899  0.00  0.00    +0.016 A 
ATOM     23  C   UNL     1       5.065   1.322   7.241  0.00  0.00    +0.018 A 
ATOM     24  C   UNL     1       3.970   1.563   8.054  0.00  0.00    +0.016 A 
ATOM     25  C   UNL     1       2.695   1.517   7.530  0.00  0.00    +0.011 A 
ATOM     26 BR   UNL     1       6.810   1.395   7.966  0.00  0.00    -0.050 Br
ENDBRANCH  11  20
TORSDOF 2
