REMARK  Name = ZINC36605648
REMARK  15 active torsions:
REMARK  status: ('A' for Active; 'I' for Inactive)
REMARK    1  A    between atoms: C_1  and  C_2
REMARK    2  A    between atoms: C_7  and  C_8
REMARK    3  A    between atoms: C_8  and  C_9
REMARK    4  A    between atoms: N_11  and  C_12
REMARK    5  A    between atoms: N_11  and  C_18
REMARK    6  A    between atoms: C_18  and  C_20
REMARK    7  A    between atoms: C_18  and  C_29
REMARK    8  A    between atoms: N_31  and  C_32
REMARK    9  A    between atoms: C_32  and  C_33
REMARK   10  A    between atoms: C_32  and  C_34
REMARK   11  A    between atoms: C_32  and  C_35
REMARK   12  A    between atoms: C_35  and  C_36
REMARK   13  A    between atoms: C_36  and  C_37
REMARK   14  A    between atoms: C_36  and  C_38
REMARK   15  A    between atoms: C_36  and  C_39
REMARK                            x       y       z     vdW  Elec       q    Type
REMARK                         _______ _______ _______ _____ _____    ______ ____
ROOT
ATOM      1  C   UNL     1      -3.925   2.173   4.471  0.00  0.00    +0.197 C 
ENDROOT
BRANCH   1   2
ATOM      2  C   UNL     1      -4.888   1.157   5.028  0.00  0.00    -0.014 A 
ATOM      3  C   UNL     1      -4.534   0.404   6.132  0.00  0.00    +0.010 A 
ATOM      4  C   UNL     1      -5.414  -0.529   6.648  0.00  0.00    +0.050 A 
ATOM      5  C   UNL     1      -6.654  -0.712   6.058  0.00  0.00    +0.166 A 
ATOM      6  C   UNL     1      -7.011   0.046   4.946  0.00  0.00    +0.167 A 
ATOM      7  C   UNL     1      -6.126   0.983   4.438  0.00  0.00    +0.055 A 
ATOM      8  O   UNL     1      -8.267  -0.318   4.555  0.00  0.00    -0.453 OA
ATOM      9  C   UNL     1      -8.514  -1.588   5.186  0.00  0.00    +0.466 C 
ATOM     10  O   UNL     1      -7.687  -1.551   6.364  0.00  0.00    -0.453 OA
ENDBRANCH   1   2
BRANCH   1  11
ATOM     11  C   UNL     1      -3.665   3.239   5.504  0.00  0.00    +0.239 C 
ATOM     12  O   UNL     1      -2.538   3.428   5.910  0.00  0.00    -0.273 OA
ATOM     13  N   UNL     1      -4.686   3.982   5.976  0.00  0.00    -0.308 N 
ATOM     14  H   UNL     1      -5.587   3.831   5.652  0.00  0.00    +0.149 HD
BRANCH  13  15
ATOM     15  C   UNL     1      -4.433   5.018   6.981  0.00  0.00    +0.030 C 
ATOM     16  C   UNL     1      -3.977   4.362   8.286  0.00  0.00    +0.031 C 
ATOM     17  C   UNL     1      -3.340   5.963   6.476  0.00  0.00    +0.031 C 
BRANCH  15  18
ATOM     18  C   UNL     1      -5.718   5.811   7.230  0.00  0.00    +0.031 C 
BRANCH  18  19
ATOM     19  C   UNL     1      -6.551   5.848   5.947  0.00  0.00    -0.036 C 
ATOM     20  C   UNL     1      -7.343   4.546   5.816  0.00  0.00    +0.010 C 
ATOM     21  C   UNL     1      -7.519   7.031   6.003  0.00  0.00    +0.010 C 
ATOM     22  C   UNL     1      -5.623   6.005   4.741  0.00  0.00    +0.010 C 
ENDBRANCH  18  19
ENDBRANCH  15  18
ENDBRANCH  13  15
ENDBRANCH   1  11
BRANCH   1  25
ATOM     23  C   UNL     1      -1.666   2.220   3.560  0.00  0.00    +0.225 C 
ATOM     24  O   UNL     1      -1.776   3.420   3.422  0.00  0.00    -0.275 OA
ATOM     25  N   UNL     1      -2.665   1.512   4.123  0.00  0.00    -0.255 N 
BRANCH  25  26
ATOM     26  C   UNL     1      -2.498   0.146   4.376  0.00  0.00    +0.037 A 
ATOM     27  C   UNL     1      -3.214  -0.790   3.641  0.00  0.00    +0.023 A 
ATOM     28  C   UNL     1      -3.048  -2.138   3.893  0.00  0.00    +0.002 A 
ATOM     29  C   UNL     1      -2.169  -2.556   4.876  0.00  0.00    +0.000 A 
ATOM     30  C   UNL     1      -1.455  -1.626   5.610  0.00  0.00    +0.002 A 
ATOM     31  C   UNL     1      -1.613  -0.277   5.358  0.00  0.00    +0.023 A 
ENDBRANCH  25  26
BRANCH  23  32
ATOM     32  C   UNL     1      -0.412   1.520   3.102  0.00  0.00    +0.131 C 
BRANCH  32  39
ATOM     33  C   UNL     1       1.399   3.171   4.633  0.00  0.00    +0.044 C 
ATOM     34  C   UNL     1       1.352   3.296   3.132  0.00  0.00    -0.047 A 
ATOM     35  C   UNL     1       2.179   4.196   2.487  0.00  0.00    +0.003 A 
ATOM     36  C   UNL     1       2.136   4.311   1.111  0.00  0.00    +0.000 A 
ATOM     37  C   UNL     1       1.266   3.525   0.378  0.00  0.00    +0.000 A 
ATOM     38  C   UNL     1       0.439   2.624   1.023  0.00  0.00    +0.004 A 
ATOM     39  C   UNL     1       0.486   2.506   2.400  0.00  0.00    -0.036 A 
ENDBRANCH  32  39
ENDBRANCH  23  32
ENDBRANCH   1  25
TORSDOF 9
