REMARK  Name = ZINC14971727
REMARK  12 active torsions:
REMARK  status: ('A' for Active; 'I' for Inactive)
REMARK    1  A    between atoms: C_1  and  C_2
REMARK    2  A    between atoms: C_2  and  C_4
REMARK    3  A    between atoms: C_2  and  C_10
REMARK    4  A    between atoms: C_15  and  C_18
REMARK    5  A    between atoms: C_18  and  C_29
REMARK    6  A    between atoms: N_21  and  C_25
REMARK    7  A    between atoms: C_25  and  C_26
REMARK    8  A    between atoms: C_26  and  N_74
REMARK    9  A    between atoms: C_27  and  N_74
REMARK   10  A    between atoms: C_28  and  N_74
REMARK   11  A    between atoms: C_29  and  C_30
REMARK   12  A    between atoms: C_30  and  C_31
REMARK                            x       y       z     vdW  Elec       q    Type
REMARK                         _______ _______ _______ _____ _____    ______ ____
ROOT
ATOM      1  C   UNL     1       5.981   9.000  -0.890  0.00  0.00    +0.116 C 
ATOM      2  C   UNL     1       4.913   9.685  -0.060  0.00  0.00    +0.247 C 
ATOM      3  O   UNL     1       4.435   9.295   0.984  0.00  0.00    -0.273 OA
ATOM      4  N   UNL     1       4.607  10.817  -0.723  0.00  0.00    -0.226 N 
ATOM      5  C   UNL     1       5.325  10.942  -1.845  0.00  0.00    +0.309 C 
ATOM      6  O   UNL     1       5.225  11.881  -2.610  0.00  0.00    -0.252 OA
ATOM      7  N   UNL     1       6.169   9.911  -2.032  0.00  0.00    -0.285 N 
ATOM      8  H   UNL     1       6.783   9.792  -2.773  0.00  0.00    +0.151 HD
ENDROOT
BRANCH   1  14
ATOM      9  C   UNL     1       2.527   4.794  -1.207  0.00  0.00    +0.223 C 
ATOM     10  O   UNL     1       1.573   4.866  -1.952  0.00  0.00    -0.275 OA
ATOM     11  N   UNL     1       3.650   5.489  -1.480  0.00  0.00    -0.301 N 
ATOM     12  C   UNL     1       4.849   5.330  -0.647  0.00  0.00    +0.108 C 
ATOM     13  C   UNL     1       5.305   6.706  -0.164  0.00  0.00    +0.025 C 
ATOM     14  C   UNL     1       5.494   7.631  -1.369  0.00  0.00    +0.024 C 
ATOM     15  C   UNL     1       4.161   7.792  -2.104  0.00  0.00    +0.025 C 
ATOM     16  C   UNL     1       3.694   6.424  -2.612  0.00  0.00    +0.108 C 
BRANCH   9  18
ATOM     17  C   UNL     1       0.998   3.761   0.449  0.00  0.00    +0.022 C 
ATOM     18  C   UNL     1       2.458   3.927   0.023  0.00  0.00    +0.102 C 
BRANCH  18  19
ATOM     19  C   UNL     1       3.050   2.575  -0.281  0.00  0.00    -0.036 A 
ATOM     20  C   UNL     1       4.143   2.122   0.434  0.00  0.00    +0.004 A 
ATOM     21  C   UNL     1       4.685   0.881   0.155  0.00  0.00    +0.000 A 
ATOM     22  C   UNL     1       4.138   0.096  -0.843  0.00  0.00    +0.000 A 
ATOM     23  C   UNL     1       3.042   0.547  -1.554  0.00  0.00    +0.000 A 
ATOM     24  C   UNL     1       2.499   1.788  -1.275  0.00  0.00    +0.004 A 
ENDBRANCH  18  19
ENDBRANCH   9  18
ENDBRANCH   1  14
BRANCH   4  25
ATOM     25  C   UNL     1       3.610  11.791  -0.272  0.00  0.00    +0.099 C 
BRANCH  25  26
ATOM     26  C   UNL     1       4.285  12.836   0.619  0.00  0.00    -0.060 C 
BRANCH  26  29
ATOM     27  C   UNL     1       3.840  14.690   2.112  0.00  0.00    -0.097 C 
ATOM     28  C   UNL     1       2.768  14.598  -0.057  0.00  0.00    -0.097 C 
ATOM     29  N   UNL     1       3.264  13.799   1.083  0.00  0.00    +0.377 N 
ATOM     30  H   UNL     1       2.479  13.280   1.494  0.00  0.00    -0.083 HD
ENDBRANCH  26  29
ENDBRANCH  25  26
ENDBRANCH   4  25
BRANCH   1  31
ATOM     31  C   UNL     1       7.277   8.858  -0.090  0.00  0.00    +0.040 C 
BRANCH  31  32
ATOM     32  C   UNL     1       7.741  10.240   0.377  0.00  0.00    +0.038 C 
BRANCH  32  33
ATOM     33  C   UNL     1       9.018  10.100   1.165  0.00  0.00    -0.047 A 
ATOM     34  C   UNL     1       8.969   9.916   2.534  0.00  0.00    +0.003 A 
ATOM     35  C   UNL     1      10.140   9.784   3.256  0.00  0.00    +0.000 A 
ATOM     36  C   UNL     1      11.361   9.846   2.611  0.00  0.00    +0.000 A 
ATOM     37  C   UNL     1      11.410  10.035   1.243  0.00  0.00    +0.000 A 
ATOM     38  C   UNL     1      10.239  10.163   0.520  0.00  0.00    +0.003 A 
ENDBRANCH  32  33
ENDBRANCH  31  32
ENDBRANCH   1  31
TORSDOF 9
