REMARK  Name = ZINC10058402
REMARK  10 active torsions:
REMARK  status: ('A' for Active; 'I' for Inactive)
REMARK    1  A    between atoms: C_1  and  C_2
REMARK    2  A    between atoms: C_8  and  N_10
REMARK    3  A    between atoms: C_11  and  C_13
REMARK    4  A    between atoms: C_13  and  S_14
REMARK    5  A    between atoms: S_14  and  C_15
REMARK    6  A    between atoms: N_28  and  C_29
REMARK    7  A    between atoms: C_29  and  C_30
REMARK    8  A    between atoms: C_30  and  C_31
REMARK    9  A    between atoms: C_31  and  C_32
REMARK   10  A    between atoms: C_31  and  C_33
REMARK                            x       y       z     vdW  Elec       q    Type
REMARK                         _______ _______ _______ _____ _____    ______ ____
ROOT
ATOM      1  C   UNL     1      -0.410   5.332   0.035  0.00  0.00    +0.198 A 
ATOM      2  N   UNL     1      -1.718   5.408   0.047  0.00  0.00    -0.120 NA
ATOM      3  N   UNL     1      -2.228   4.105   0.045  0.00  0.00    -0.109 NA
ATOM      4  C   UNL     1      -1.214   3.269   0.031  0.00  0.00    +0.240 A 
ATOM      5  N   UNL     1      -0.063   4.008   0.024  0.00  0.00    -0.256 N 
ATOM      6  C   UNL     1       1.181   3.381   0.009  0.00  0.00    +0.064 A 
ATOM      7  C   UNL     1       2.353   4.121   0.001  0.00  0.00    +0.027 A 
ATOM      8  C   UNL     1       3.574   3.475  -0.014  0.00  0.00    +0.002 A 
ATOM      9  C   UNL     1       3.638   2.091  -0.023  0.00  0.00    +0.001 A 
ATOM     10  C   UNL     1       2.482   1.339  -0.015  0.00  0.00    +0.015 A 
ATOM     11  C   UNL     1       1.244   1.980   0.001  0.00  0.00    +0.064 A 
ATOM     12  C   UNL     1      -0.014   1.212   0.009  0.00  0.00    +0.263 A 
ATOM     13  O   UNL     1       0.002  -0.004   0.002  0.00  0.00    -0.267 OA
ATOM     14  N   UNL     1      -1.185   1.883   0.018  0.00  0.00    -0.277 N 
ENDROOT
BRANCH   1  15
ATOM     15  S   UNL     1       0.707   6.695   0.032  0.00  0.00    -0.076 S 
BRANCH  15  16
ATOM     16  C   UNL     1      -0.376   8.150   0.049  0.00  0.00    +0.173 C 
BRANCH  16  18
ATOM     17  N   UNL     1      -0.130  10.611   0.060  0.00  0.00    -0.312 N 
ATOM     18  C   UNL     1       0.464   9.402   0.049  0.00  0.00    +0.224 C 
ATOM     19  O   UNL     1       1.674   9.320   0.037  0.00  0.00    -0.275 OA
ATOM     20  H   UNL     1      -1.097  10.677   0.069  0.00  0.00    +0.149 HD
BRANCH  17  27
ATOM     21  C   UNL     1      -0.485  12.616   2.121  0.00  0.00    +0.009 C 
ATOM     22  C   UNL     1      -0.109  12.977   0.682  0.00  0.00    +0.006 C 
ATOM     23  C   UNL     1       0.743  14.247   0.682  0.00  0.00    +0.005 C 
ATOM     24  C   UNL     1       1.119  14.608  -0.757  0.00  0.00    +0.000 C 
ATOM     25  C   UNL     1       1.915  13.460  -1.380  0.00  0.00    +0.002 C 
ATOM     26  C   UNL     1       1.062  12.189  -1.379  0.00  0.00    +0.022 C 
ATOM     27  C   UNL     1       0.687  11.828   0.059  0.00  0.00    +0.076 C 
ENDBRANCH  17  27
ENDBRANCH  16  18
ENDBRANCH  15  16
ENDBRANCH   1  15
BRANCH  14  28
ATOM     28  C   UNL     1      -2.444   1.134   0.019  0.00  0.00    +0.128 C 
BRANCH  28  29
ATOM     29  C   UNL     1      -2.876   0.865   1.462  0.00  0.00    +0.025 C 
BRANCH  29  30
ATOM     30  C   UNL     1      -4.191   0.084   1.463  0.00  0.00    -0.016 C 
ATOM     31  C   UNL     1      -3.965  -1.297   0.845  0.00  0.00    +0.007 C 
ATOM     32  C   UNL     1      -4.688  -0.077   2.901  0.00  0.00    +0.007 C 
ENDBRANCH  29  30
ENDBRANCH  28  29
ENDBRANCH  14  28
TORSDOF 7
