REMARK  Name = ZINC22613809
REMARK  8 active torsions:
REMARK  status: ('A' for Active; 'I' for Inactive)
REMARK    1  A    between atoms: C_1  and  C_2
REMARK    2  A    between atoms: C_2  and  C_3
REMARK    3  A    between atoms: C_2  and  C_4
REMARK    4  A    between atoms: C_4  and  C_6
REMARK    5  A    between atoms: C_4  and  S_12
REMARK    6  A    between atoms: S_12  and  C_13
REMARK    7  A    between atoms: C_17  and  C_20
REMARK    8  A    between atoms: N_27  and  C_28
REMARK                            x       y       z     vdW  Elec       q    Type
REMARK                         _______ _______ _______ _____ _____    ______ ____
ROOT
ATOM      1  C   UNL     1      -3.341   7.037  -2.997  0.00  0.00    +0.178 A 
ATOM      2  N   UNL     1      -2.896   7.785  -2.008  0.00  0.00    -0.215 NA
ATOM      3  C   UNL     1      -2.553   7.243  -0.845  0.00  0.00    +0.117 A 
ATOM      4  C   UNL     1      -2.639   5.860  -0.612  0.00  0.00    +0.081 A 
ATOM      5  C   UNL     1      -2.227   5.431   0.722  0.00  0.00    +0.010 A 
ATOM      6  C   UNL     1      -1.796   6.368   1.602  0.00  0.00    +0.057 A 
ATOM      7  S   UNL     1      -1.928   7.890   0.685  0.00  0.00    -0.076 S 
ATOM      8  C   UNL     1      -3.130   5.074  -1.699  0.00  0.00    +0.268 A 
ATOM      9  O   UNL     1      -3.242   3.865  -1.585  0.00  0.00    -0.267 OA
ATOM     10  N   UNL     1      -3.462   5.683  -2.852  0.00  0.00    -0.255 N 
ENDROOT
BRANCH  10  11
ATOM     11  C   UNL     1      -3.939   4.916  -3.923  0.00  0.00    +0.052 A 
ATOM     12  C   UNL     1      -5.301   4.688  -4.063  0.00  0.00    +0.026 A 
ATOM     13  C   UNL     1      -5.769   3.936  -5.123  0.00  0.00    +0.002 A 
ATOM     14  C   UNL     1      -4.881   3.401  -6.038  0.00  0.00    +0.000 A 
ATOM     15  C   UNL     1      -3.523   3.622  -5.898  0.00  0.00    +0.002 A 
ATOM     16  C   UNL     1      -3.050   4.378  -4.844  0.00  0.00    +0.026 A 
ENDBRANCH  10  11
BRANCH   5  17
ATOM     17  C   UNL     1      -2.273   4.004   1.103  0.00  0.00    +0.021 A 
ATOM     18  C   UNL     1      -1.298   3.232   1.676  0.00  0.00    +0.016 A 
ATOM     19  C   UNL     1      -1.575   1.908   1.943  0.00  0.00    +0.008 A 
ATOM     20  C   UNL     1      -2.799   1.412   1.633  0.00  0.00    +0.046 A 
ATOM     21  S   UNL     1      -3.612   2.836   0.928  0.00  0.00    -0.097 S 
ENDBRANCH   5  17
BRANCH   1  22
ATOM     22  S   UNL     1      -3.788   7.792  -4.526  0.00  0.00    -0.074 S 
BRANCH  22  23
ATOM     23  C   UNL     1      -3.486   9.529  -4.119  0.00  0.00    +0.143 C 
BRANCH  23  24
ATOM     24  C   UNL     1      -2.005   9.759  -3.966  0.00  0.00    +0.234 C 
ATOM     25  O   UNL     1      -1.217   9.030  -4.530  0.00  0.00    -0.274 OA
ATOM     26  N   UNL     1      -1.555  10.775  -3.203  0.00  0.00    -0.239 N 
ATOM     27  C   UNL     1      -0.230  10.981  -3.067  0.00  0.00    +0.303 C 
ATOM     28  O   UNL     1       0.559  10.251  -3.632  0.00  0.00    -0.253 OA
ATOM     29  N   UNL     1       0.219  11.997  -2.303  0.00  0.00    -0.313 N 
ATOM     30  H   UNL     1      -2.270  11.437  -2.691  0.00  0.00    +0.159 HD
ATOM     31  H   UNL     1       1.300  12.165  -2.192  0.00  0.00    +0.146 HD
ATOM     32  H   UNL     1      -0.496  12.659  -1.792  0.00  0.00    +0.146 HD
ENDBRANCH  23  24
BRANCH  23  34
ATOM     33  C   UNL     1      -5.534  10.196  -5.385  0.00  0.00    +0.009 C 
ATOM     34  C   UNL     1      -4.027  10.417  -5.241  0.00  0.00    +0.005 C 
ATOM     35  C   UNL     1      -3.757  11.885  -4.904  0.00  0.00    +0.009 C 
ENDBRANCH  23  34
ENDBRANCH  22  23
ENDBRANCH   1  22
TORSDOF 6
