REMARK  Name = ZINC40717761
REMARK  3 active torsions:
REMARK  status: ('A' for Active; 'I' for Inactive)
REMARK    1  A    between atoms: C_1  and  C_2
REMARK    2  A    between atoms: N_6  and  C_8
REMARK    3  A    between atoms: C_13  and  N_14
REMARK                            x       y       z     vdW  Elec       q    Type
REMARK                         _______ _______ _______ _____ _____    ______ ____
ROOT
ATOM      1  C   UNL     1       2.446  -2.467   1.506  0.00  0.00    +0.053 A 
ATOM      2  C   UNL     1       3.780  -2.110   1.593  0.00  0.00    +0.053 A 
ATOM      3  C   UNL     1       4.652  -2.876   2.367  0.00  0.00    +0.080 A 
ATOM      4  C   UNL     1       4.161  -4.010   3.054  0.00  0.00    +0.067 A 
ATOM      5  C   UNL     1       2.813  -4.360   2.959  0.00  0.00    +0.040 A 
ATOM      6  C   UNL     1       1.961  -3.589   2.193  0.00  0.00    +0.047 A 
ATOM      7  C   UNL     1       5.108  -4.792   3.858  0.00  0.00    +0.259 A 
ATOM      8  O   UNL     1       4.750  -5.779   4.474  0.00  0.00    -0.267 OA
ATOM      9  N   UNL     1       6.394  -4.373   3.889  0.00  0.00    -0.313 N 
ATOM     10  H   UNL     1       7.048  -4.866   4.410  0.00  0.00    +0.170 HD
ATOM     11  C   UNL     1       6.781  -3.269   3.195  0.00  0.00    +0.199 A 
ATOM     12  N   UNL     1       5.967  -2.558   2.477  0.00  0.00    -0.237 NA
ENDROOT
BRANCH   1  17
ATOM     13  C   UNL     1      -0.019   1.526   0.010  0.00  0.00    +0.009 C 
ATOM     14  C   UNL     1       0.002  -0.004   0.002  0.00  0.00    +0.005 C 
ATOM     15  C   UNL     1       0.806  -0.535  -1.214  0.00  0.00    +0.023 C 
ATOM     16  C   UNL     1       1.279  -1.916  -0.695  0.00  0.00    +0.105 C 
ATOM     17  N   UNL     1       1.575  -1.701   0.733  0.00  0.00    -0.328 N 
ATOM     18  C   UNL     1       0.795  -0.546   1.210  0.00  0.00    +0.108 C 
ENDBRANCH   1  17
BRANCH   6  19
ATOM     19  N   UNL     1       0.607  -3.933   2.099  0.00  0.00    -0.357 N 
ATOM     20  H   UNL     1       0.007  -3.395   1.559  0.00  0.00    +0.142 HD
ATOM     21  H   UNL     1       0.269  -4.708   2.573  0.00  0.00    +0.142 HD
ENDBRANCH   6  19
TORSDOF 2
