REMARK  Name = ZINC34027229
REMARK  15 active torsions:
REMARK  status: ('A' for Active; 'I' for Inactive)
REMARK    1  A    between atoms: C_1  and  C_2
REMARK    2  A    between atoms: C_3  and  C_26
REMARK    3  A    between atoms: C_7  and  N_11
REMARK    4  A    between atoms: C_12  and  C_14
REMARK    5  A    between atoms: C_14  and  C_18
REMARK    6  A    between atoms: N_15  and  O_16
REMARK    7  A    between atoms: O_16  and  C_17
REMARK    8  A    between atoms: C_26  and  O_28
REMARK    9  A    between atoms: O_28  and  C_29
REMARK   10  A    between atoms: C_29  and  O_30
REMARK   11  A    between atoms: O_30  and  C_31
REMARK   12  A    between atoms: C_31  and  C_33
REMARK   13  A    between atoms: C_33  and  C_34
REMARK   14  A    between atoms: C_33  and  C_35
REMARK   15  A    between atoms: C_33  and  C_36
REMARK                            x       y       z     vdW  Elec       q    Type
REMARK                         _______ _______ _______ _____ _____    ______ ____
ROOT
ATOM      1  C   UNL     1      -2.883   0.260   1.083  0.00  0.00    +0.042 C 
ATOM      2  C   UNL     1      -2.474  -1.166   0.819  0.00  0.00    -0.034 C 
ATOM      3  C   UNL     1      -3.421  -1.964   0.352  0.00  0.00    +0.122 C 
ATOM      4  N   UNL     1      -3.139  -3.300   0.025  0.00  0.00    -0.249 N 
ATOM      5  C   UNL     1      -1.952  -4.092   0.442  0.00  0.00    +0.169 C 
ATOM      6  C   UNL     1      -2.265  -4.995  -0.732  0.00  0.00    +0.191 C 
ATOM      7  C   UNL     1      -3.595  -4.293  -0.725  0.00  0.00    +0.244 C 
ATOM      8  O   UNL     1      -4.675  -4.541  -1.218  0.00  0.00    -0.273 OA
ATOM      9  S   UNL     1      -0.510  -2.991   0.239  0.00  0.00    -0.131 S 
ATOM     10  C   UNL     1      -1.047  -1.502   1.111  0.00  0.00    +0.103 C 
ENDROOT
BRANCH   6  11
ATOM     11  N   UNL     1      -1.453  -4.730  -1.923  0.00  0.00    -0.296 N 
ATOM     12  C   UNL     1      -1.243  -5.707  -2.826  0.00  0.00    +0.268 C 
ATOM     13  O   UNL     1      -1.727  -6.808  -2.654  0.00  0.00    -0.268 OA
ATOM     14  H   UNL     1      -1.066  -3.851  -2.060  0.00  0.00    +0.150 HD
BRANCH  12  15
ATOM     15  C   UNL     1      -0.421  -5.439  -4.030  0.00  0.00    +0.190 C 
ATOM     16  N   UNL     1       0.098  -4.259  -4.215  0.00  0.00    -0.078 NA
BRANCH  15  17
ATOM     17  C   UNL     1      -0.191  -6.512  -5.022  0.00  0.00    +0.107 A 
ATOM     18  C   UNL     1       0.462  -6.243  -6.195  0.00  0.00    +0.078 A 
ATOM     19  S   UNL     1       0.447  -7.857  -6.963  0.00  0.00    -0.060 S 
ATOM     20  C   UNL     1      -0.418  -8.720  -5.659  0.00  0.00    +0.156 A 
ATOM     21  N   UNL     1      -0.612  -7.753  -4.783  0.00  0.00    -0.223 NA
ATOM     22  N   UNL     1      -0.785 -10.054  -5.586  0.00  0.00    -0.338 N 
ATOM     23  H   UNL     1      -0.570 -10.656  -6.315  0.00  0.00    +0.144 HD
ATOM     24  H   UNL     1      -1.257 -10.385  -4.806  0.00  0.00    +0.144 HD
ENDBRANCH  15  17
BRANCH  16  25
ATOM     25  O   UNL     1       0.999  -4.041  -5.286  0.00  0.00    -0.396 OA
ATOM     26  C   UNL     1       1.490  -2.702  -5.369  0.00  0.00    +0.313 C 
ENDBRANCH  16  25
ENDBRANCH  12  15
ENDBRANCH   6  11
BRANCH   3  27
ATOM     27  C   UNL     1      -4.789  -1.443   0.173  0.00  0.00    +0.356 C 
ATOM     28  O   UNL     1      -5.664  -2.170  -0.255  0.00  0.00    -0.243 OA
BRANCH  27  29
ATOM     29  O   UNL     1      -5.069  -0.162   0.485  0.00  0.00    -0.423 OA
BRANCH  29  30
ATOM     30  C   UNL     1      -6.415   0.275   0.287  0.00  0.00    +0.473 C 
BRANCH  30  31
ATOM     31  O   UNL     1      -7.245  -0.258   1.321  0.00  0.00    -0.427 OA
BRANCH  31  32
ATOM     32  C   UNL     1      -7.146   0.308   2.534  0.00  0.00    +0.315 C 
ATOM     33  O   UNL     1      -6.379   1.225   2.712  0.00  0.00    -0.250 OA
BRANCH  32  34
ATOM     34  C   UNL     1      -7.990  -0.200   3.674  0.00  0.00    +0.059 C 
ATOM     35  C   UNL     1      -7.686   0.611   4.935  0.00  0.00    +0.022 C 
ATOM     36  C   UNL     1      -9.471  -0.052   3.318  0.00  0.00    +0.022 C 
ATOM     37  C   UNL     1      -7.672  -1.675   3.927  0.00  0.00    +0.022 C 
ENDBRANCH  32  34
ENDBRANCH  31  32
ENDBRANCH  30  31
ENDBRANCH  29  30
ENDBRANCH  27  29
ENDBRANCH   3  27
TORSDOF 10
