REMARK  Name = ZINC35368919
REMARK  2 active torsions:
REMARK  status: ('A' for Active; 'I' for Inactive)
REMARK    1  A    between atoms: C_6  and  C_7
REMARK    2  A    between atoms: C_7  and  C_9
REMARK                            x       y       z     vdW  Elec       q    Type
REMARK                         _______ _______ _______ _____ _____    ______ ____
ROOT
ATOM      1  C   UNL     1      -0.017   1.394  -0.013  0.00  0.00    +0.014 A 
ATOM      2  C   UNL     1       1.164   2.102  -0.022  0.00  0.00    +0.028 A 
ATOM      3  C   UNL     1       2.379   1.428  -0.018  0.00  0.00    +0.067 A 
ATOM      4  C   UNL     1       2.405   0.029  -0.004  0.00  0.00    +0.067 A 
ATOM      5  C   UNL     1       1.221  -0.685   0.005  0.00  0.00    +0.039 A 
ATOM      6  C   UNL     1       0.002  -0.004   0.001  0.00  0.00    +0.027 A 
ATOM      7  N   UNL     1       3.747  -0.347  -0.003  0.00  0.00    -0.306 N 
ATOM      8  H   UNL     1       4.082  -1.258   0.006  0.00  0.00    +0.170 HD
ATOM      9  C   UNL     1       4.498   0.770  -0.015  0.00  0.00    +0.325 A 
ATOM     10  O   UNL     1       5.715   0.795  -0.018  0.00  0.00    -0.247 OA
ATOM     11  N   UNL     1       3.701   1.854  -0.024  0.00  0.00    -0.306 N 
ATOM     12  H   UNL     1       3.999   2.777  -0.035  0.00  0.00    +0.170 HD
ENDROOT
BRANCH   6  13
ATOM     13  C   UNL     1      -1.266  -0.760   0.011  0.00  0.00    +0.228 C 
ATOM     14  O   UNL     1      -2.326  -0.170   0.118  0.00  0.00    -0.283 OA
BRANCH  13  15
ATOM     15  C   UNL     1      -1.250  -2.219  -0.108  0.00  0.00    +0.176 A 
ATOM     16  C   UNL     1      -2.354  -3.038  -0.216  0.00  0.00    +0.054 A 
ATOM     17  C   UNL     1      -1.871  -4.350  -0.305  0.00  0.00    +0.057 A 
ATOM     18  C   UNL     1      -0.519  -4.284  -0.249  0.00  0.00    +0.171 A 
ATOM     19  O   UNL     1      -0.150  -3.002  -0.136  0.00  0.00    -0.445 OA
ATOM     20 BR   UNL     1       0.656  -5.763  -0.324  0.00  0.00    -0.008 Br
ENDBRANCH  13  15
ENDBRANCH   6  13
TORSDOF 2
