REMARK  Name = ZINC00887246
REMARK  9 active torsions:
REMARK  status: ('A' for Active; 'I' for Inactive)
REMARK    1  A    between atoms: C_4  and  N_11
REMARK    2  A    between atoms: C_5  and  C_7
REMARK    3  A    between atoms: N_11  and  C_12
REMARK    4  A    between atoms: C_12  and  C_14
REMARK    5  A    between atoms: C_12  and  C_19
REMARK    6  A    between atoms: N_21  and  C_22
REMARK    7  A    between atoms: C_27  and  C_29
REMARK    8  A    between atoms: C_29  and  N_30
REMARK    9  A    between atoms: C_32  and  C_35
REMARK                            x       y       z     vdW  Elec       q    Type
REMARK                         _______ _______ _______ _____ _____    ______ ____
ROOT
ATOM      1  N   UNL     1       3.595  -0.655  -0.047  0.00  0.00    -0.250 N 
ATOM      2  C   UNL     1       4.224  -0.744  -1.235  0.00  0.00    +0.244 C 
ATOM      3  O   UNL     1       5.394  -1.062  -1.280  0.00  0.00    -0.273 OA
ENDROOT
BRANCH   1   7
ATOM      4  C   UNL     1      -0.423   0.436   0.104  0.00  0.00    +0.001 A 
ATOM      5  C   UNL     1       0.559   1.392   0.293  0.00  0.00    +0.002 A 
ATOM      6  C   UNL     1       1.892   1.033   0.243  0.00  0.00    +0.024 A 
ATOM      7  C   UNL     1       2.245  -0.288   0.004  0.00  0.00    +0.049 A 
ATOM      8  C   UNL     1       1.257  -1.245  -0.185  0.00  0.00    +0.076 A 
ATOM      9  C   UNL     1      -0.074  -0.880  -0.134  0.00  0.00    +0.014 A 
BRANCH   8  10
ATOM     10  C   UNL     1       1.636  -2.680  -0.445  0.00  0.00    +0.419 C 
ATOM     11  F   UNL     1       0.486  -3.420  -0.740  0.00  0.00    -0.166 F 
ATOM     12  F   UNL     1       2.520  -2.740  -1.527  0.00  0.00    -0.166 F 
ATOM     13  F   UNL     1       2.254  -3.213   0.692  0.00  0.00    -0.166 F 
ENDBRANCH   8  10
ENDBRANCH   1   7
BRANCH   1  14
ATOM     14  C   UNL     1       4.323  -0.942   1.191  0.00  0.00    +0.233 C 
BRANCH  14  15
ATOM     15  C   UNL     1       3.531  -1.913   2.027  0.00  0.00    +0.135 A 
ATOM     16  C   UNL     1       4.023  -2.999   2.650  0.00  0.00    +0.047 A 
ATOM     17  C   UNL     1       2.938  -3.618   3.313  0.00  0.00    +0.041 A 
ATOM     18  C   UNL     1       1.848  -2.873   3.055  0.00  0.00    +0.195 A 
ATOM     19  O   UNL     1       2.214  -1.839   2.281  0.00  0.00    -0.465 OA
ENDBRANCH  14  15
BRANCH  14  20
ATOM     20  C   UNL     1       4.525   0.337   1.963  0.00  0.00    +0.242 C 
ATOM     21  O   UNL     1       4.102   1.384   1.522  0.00  0.00    -0.273 OA
ATOM     22  N   UNL     1       5.176   0.316   3.143  0.00  0.00    -0.311 N 
ATOM     23  H   UNL     1       5.514  -0.522   3.496  0.00  0.00    +0.149 HD
BRANCH  22  24
ATOM     24  C   UNL     1       5.372   1.559   3.893  0.00  0.00    +0.073 C 
ATOM     25  C   UNL     1       6.671   2.253   3.437  0.00  0.00    +0.022 C 
ATOM     26  C   UNL     1       7.259   2.854   4.737  0.00  0.00    +0.002 C 
ATOM     27  C   UNL     1       6.939   1.766   5.792  0.00  0.00    +0.002 C 
ATOM     28  C   UNL     1       5.542   1.249   5.391  0.00  0.00    +0.022 C 
ENDBRANCH  22  24
ENDBRANCH  14  20
ENDBRANCH   1  14
BRANCH   2  29
ATOM     29  C   UNL     1       3.475  -0.449  -2.509  0.00  0.00    +0.264 C 
BRANCH  29  30
ATOM     30  N   UNL     1       4.373  -0.615  -3.654  0.00  0.00    -0.154 N 
ATOM     31  N   UNL     1       5.112   0.311  -4.162  0.00  0.00    -0.129 NA
ATOM     32  C   UNL     1       5.777  -0.214  -5.174  0.00  0.00    +0.211 A 
ATOM     33  N   UNL     1       5.405  -1.501  -5.252  0.00  0.00    -0.107 NA
ATOM     34  N   UNL     1       4.553  -1.710  -4.306  0.00  0.00    -0.045 NA
BRANCH  32  35
ATOM     35  C   UNL     1       6.744   0.481  -6.051  0.00  0.00    +0.060 A 
ATOM     36  C   UNL     1       7.455  -0.011  -7.113  0.00  0.00    +0.019 A 
ATOM     37  C   UNL     1       8.306   0.834  -7.790  0.00  0.00    +0.008 A 
ATOM     38  C   UNL     1       8.415   2.126  -7.386  0.00  0.00    +0.046 A 
ATOM     39  S   UNL     1       7.283   2.183  -6.007  0.00  0.00    -0.093 S 
ENDBRANCH  32  35
ENDBRANCH  29  30
ENDBRANCH   2  29
TORSDOF 9
