REMARK  Name = ZINC47438959
REMARK  6 active torsions:
REMARK  status: ('A' for Active; 'I' for Inactive)
REMARK    1  A    between atoms: C_1  and  C_2
REMARK    2  A    between atoms: C_5  and  N_8
REMARK    3  A    between atoms: C_12  and  S_13
REMARK    4  A    between atoms: S_13  and  C_14
REMARK    5  A    between atoms: C_14  and  C_15
REMARK    6  A    between atoms: C_19  and  C_21
REMARK                            x       y       z     vdW  Elec       q    Type
REMARK                         _______ _______ _______ _____ _____    ______ ____
ROOT
ATOM      1  N   UNL     1       0.075  -4.173   0.006  0.00  0.00    -0.259 N 
ATOM      2  C   UNL     1      -0.888  -4.994   0.528  0.00  0.00    +0.225 A 
ATOM      3  N   UNL     1      -0.534  -6.233   0.293  0.00  0.00    -0.112 NA
ATOM      4  N   UNL     1       0.685  -6.214  -0.397  0.00  0.00    -0.120 NA
ATOM      5  C   UNL     1       1.036  -4.962  -0.568  0.00  0.00    +0.198 A 
ATOM      6  N   UNL     1      -2.037  -4.585   1.192  0.00  0.00    -0.299 N 
ATOM      7  C   UNL     1      -2.395  -3.162   1.261  0.00  0.00    +0.108 C 
ATOM      8  C   UNL     1      -3.828  -2.988   0.747  0.00  0.00    +0.019 C 
ATOM      9  C   UNL     1      -4.763  -3.910   1.533  0.00  0.00    +0.003 C 
ATOM     10  C   UNL     1      -4.346  -5.366   1.317  0.00  0.00    +0.019 C 
ATOM     11  C   UNL     1      -2.922  -5.568   1.832  0.00  0.00    +0.108 C 
ENDROOT
BRANCH   1  16
ATOM     12  C   UNL     1       0.071   1.501   0.167  0.00  0.00    +0.044 C 
ATOM     13  C   UNL     1       0.072  -0.006   0.124  0.00  0.00    -0.050 A 
ATOM     14  C   UNL     1      -0.184  -0.662  -1.065  0.00  0.00    +0.005 A 
ATOM     15  C   UNL     1      -0.184  -2.043  -1.108  0.00  0.00    +0.026 A 
ATOM     16  C   UNL     1       0.074  -2.771   0.045  0.00  0.00    +0.052 A 
ATOM     17  C   UNL     1       0.331  -2.109   1.238  0.00  0.00    +0.026 A 
ATOM     18  C   UNL     1       0.334  -0.728   1.273  0.00  0.00    +0.005 A 
ENDBRANCH   1  16
BRANCH   5  19
ATOM     19  S   UNL     1       2.489  -4.396  -1.387  0.00  0.00    -0.081 S 
BRANCH  19  20
ATOM     20  C   UNL     1       3.322  -5.920  -1.907  0.00  0.00    +0.112 C 
BRANCH  20  21
ATOM     21  C   UNL     1       4.598  -5.574  -2.630  0.00  0.00    -0.036 A 
ATOM     22  C   UNL     1       4.585  -5.381  -4.000  0.00  0.00    +0.004 A 
ATOM     23  C   UNL     1       5.752  -5.062  -4.672  0.00  0.00    +0.001 A 
ATOM     24  C   UNL     1       6.938  -4.935  -3.978  0.00  0.00    +0.013 A 
ATOM     25  C   UNL     1       6.958  -5.128  -2.596  0.00  0.00    +0.037 A 
ATOM     26  C   UNL     1       5.776  -5.444  -1.924  0.00  0.00    +0.017 A 
BRANCH  25  27
ATOM     27  C   UNL     1       8.225  -4.994  -1.846  0.00  0.00    +0.242 C 
ATOM     28  O   UNL     1       8.240  -5.163  -0.643  0.00  0.00    -0.270 OA
ATOM     29  N   UNL     1       9.364  -4.684  -2.497  0.00  0.00    -0.325 N 
ATOM     30  H   UNL     1       9.352  -4.550  -3.458  0.00  0.00    +0.145 HD
ATOM     31  H   UNL     1      10.195  -4.597  -2.006  0.00  0.00    +0.145 HD
ENDBRANCH  25  27
ENDBRANCH  20  21
ENDBRANCH  19  20
ENDBRANCH   5  19
TORSDOF 5
