REMARK  Name = ZINC03322296
REMARK  5 active torsions:
REMARK  status: ('A' for Active; 'I' for Inactive)
REMARK    1  A    between atoms: C_4  and  C_7
REMARK    2  A    between atoms: C_7  and  N_8
REMARK    3  A    between atoms: C_17  and  C_19
REMARK    4  A    between atoms: N_21  and  C_22
REMARK    5  A    between atoms: C_23  and  C_31
REMARK                            x       y       z     vdW  Elec       q    Type
REMARK                         _______ _______ _______ _____ _____    ______ ____
ROOT
ATOM      1  N   UNL     1       4.327   6.864  -0.004  0.00  0.00    -0.224 N 
ATOM      2  C   UNL     1       3.772   8.093   0.007  0.00  0.00    +0.275 A 
ATOM      3  O   UNL     1       4.470   9.091   0.006  0.00  0.00    -0.266 OA
ATOM      4  C   UNL     1       2.307   8.200   0.022  0.00  0.00    +0.050 A 
ATOM      5  C   UNL     1       1.638   9.420   0.034  0.00  0.00    +0.014 A 
ATOM      6  C   UNL     1       0.260   9.435   0.047  0.00  0.00    +0.001 A 
ATOM      7  C   UNL     1      -0.463   8.249   0.047  0.00  0.00    +0.001 A 
ATOM      8  C   UNL     1       0.181   7.030   0.035  0.00  0.00    +0.011 A 
ATOM      9  C   UNL     1       1.571   6.992   0.022  0.00  0.00    +0.020 A 
ATOM     10  C   UNL     1       2.335   5.734   0.009  0.00  0.00    +0.154 A 
ATOM     11  N   UNL     1       3.645   5.781   0.002  0.00  0.00    -0.163 NA
ENDROOT
BRANCH  10  12
ATOM     12  C   UNL     1       1.634   4.436   0.009  0.00  0.00    +0.269 C 
ATOM     13  O   UNL     1       0.419   4.400   0.021  0.00  0.00    -0.268 OA
ATOM     14  N   UNL     1       2.342   3.288  -0.003  0.00  0.00    -0.274 N 
ATOM     15  H   UNL     1       3.311   3.316  -0.013  0.00  0.00    +0.156 HD
BRANCH  14  16
ATOM     16  C   UNL     1       1.684   2.069  -0.003  0.00  0.00    +0.085 A 
ATOM     17  C   UNL     1       2.232   0.794  -0.015  0.00  0.00    +0.068 A 
ATOM     18  C   UNL     1       1.312  -0.332  -0.012  0.00  0.00    -0.023 A 
ATOM     19  C   UNL     1       0.002  -0.004   0.002  0.00  0.00    -0.004 A 
ATOM     20  S   UNL     1      -0.022   1.766   0.012  0.00  0.00    -0.077 S 
ATOM     21  C   UNL     1      -1.164  -0.944   0.007  0.00  0.00    +0.043 C 
ATOM     22  C   UNL     1      -0.660  -2.341  -0.384  0.00  0.00    +0.005 C 
ATOM     23  C   UNL     1       0.590  -2.663   0.440  0.00  0.00    +0.005 C 
ATOM     24  C   UNL     1       1.757  -1.789  -0.024  0.00  0.00    +0.037 C 
BRANCH  17  25
ATOM     25  C   UNL     1       3.683   0.590  -0.030  0.00  0.00    +0.244 C 
ATOM     26  O   UNL     1       4.276   0.510  -1.090  0.00  0.00    -0.270 OA
ATOM     27  N   UNL     1       4.362   0.490   1.130  0.00  0.00    -0.325 N 
ATOM     28  H   UNL     1       3.890   0.553   1.975  0.00  0.00    +0.145 HD
ATOM     29  H   UNL     1       5.322   0.355   1.120  0.00  0.00    +0.145 HD
ENDBRANCH  17  25
ENDBRANCH  14  16
ENDBRANCH  10  12
BRANCH   1  30
ATOM     30  C   UNL     1       5.788   6.763  -0.019  0.00  0.00    +0.182 C 
BRANCH  30  34
ATOM     31  C   UNL     1       7.248   6.643   3.994  0.00  0.00    +0.000 A 
ATOM     32  C   UNL     1       6.929   5.468   3.340  0.00  0.00    +0.000 A 
ATOM     33  C   UNL     1       6.456   5.507   2.041  0.00  0.00    +0.005 A 
ATOM     34  C   UNL     1       6.303   6.721   1.397  0.00  0.00    -0.026 A 
ATOM     35  C   UNL     1       6.627   7.895   2.050  0.00  0.00    +0.005 A 
ATOM     36  C   UNL     1       7.095   7.857   3.350  0.00  0.00    +0.000 A 
ENDBRANCH  30  34
ENDBRANCH   1  30
TORSDOF 5
