REMARK  Name = ZINC12599541
REMARK  5 active torsions:
REMARK  status: ('A' for Active; 'I' for Inactive)
REMARK    1  A    between atoms: C_7  and  N_22
REMARK    2  A    between atoms: C_10  and  N_11
REMARK    3  A    between atoms: N_12  and  C_13
REMARK    4  A    between atoms: C_13  and  C_15
REMARK    5  A    between atoms: C_20  and  N_21
REMARK                            x       y       z     vdW  Elec       q    Type
REMARK                         _______ _______ _______ _____ _____    ______ ____
ROOT
ATOM      1  C   UNL     1      -0.020   1.355  -0.132  0.00  0.00    +0.001 A 
ATOM      2  C   UNL     1       1.162   2.088  -0.110  0.00  0.00    +0.001 A 
ATOM      3  C   UNL     1       2.375   1.458  -0.105  0.00  0.00    +0.012 A 
ATOM      4  C   UNL     1       2.430   0.064  -0.123  0.00  0.00    +0.029 A 
ATOM      5  C   UNL     1       1.226  -0.687  -0.145  0.00  0.00    +0.023 A 
ATOM      6  C   UNL     1      -0.001  -0.009  -0.149  0.00  0.00    +0.012 A 
ATOM      7  C   UNL     1       1.585  -2.051  -0.160  0.00  0.00    +0.103 A 
ATOM      8  N   UNL     1       2.925  -2.173  -0.147  0.00  0.00    -0.326 N 
ATOM      9  H   UNL     1       3.408  -3.014  -0.154  0.00  0.00    +0.169 HD
ATOM     10  C   UNL     1       3.515  -0.916  -0.125  0.00  0.00    +0.160 A 
ENDROOT
BRANCH   7  11
ATOM     11  N   UNL     1       0.705  -3.092  -0.182  0.00  0.00    -0.344 N 
ATOM     12  H   UNL     1      -0.250  -2.920  -0.190  0.00  0.00    +0.144 HD
ATOM     13  H   UNL     1       1.033  -4.005  -0.191  0.00  0.00    +0.144 HD
ENDBRANCH   7  11
BRANCH  10  14
ATOM     14  N   UNL     1       4.809  -0.656  -0.109  0.00  0.00    -0.138 NA
ATOM     15  N   UNL     1       5.662  -1.624  -0.113  0.00  0.00    -0.074 NA
BRANCH  15  16
ATOM     16  C   UNL     1       6.973  -1.360  -0.097  0.00  0.00    +0.287 C 
ATOM     17  O   UNL     1       7.362  -0.203  -0.079  0.00  0.00    -0.266 OA
BRANCH  16  18
ATOM     18  C   UNL     1       7.950  -2.468  -0.102  0.00  0.00    +0.061 A 
ATOM     19  C   UNL     1       7.512  -3.790   0.001  0.00  0.00    +0.015 A 
ATOM     20  C   UNL     1       8.428  -4.820  -0.004  0.00  0.00    +0.001 A 
ATOM     21  C   UNL     1       9.783  -4.551  -0.111  0.00  0.00    +0.002 A 
ATOM     22  C   UNL     1      10.231  -3.249  -0.214  0.00  0.00    +0.023 A 
ATOM     23  C   UNL     1       9.322  -2.199  -0.215  0.00  0.00    +0.037 A 
BRANCH  23  24
ATOM     24  N   UNL     1       9.770  -0.887  -0.324  0.00  0.00    -0.357 N 
ATOM     25  H   UNL     1       9.142  -0.152  -0.242  0.00  0.00    +0.142 HD
ATOM     26  H   UNL     1      10.710  -0.707  -0.483  0.00  0.00    +0.142 HD
ENDBRANCH  23  24
ENDBRANCH  16  18
ENDBRANCH  15  16
ENDBRANCH  10  14
TORSDOF 5
