REMARK  Name = ZINC35968370
REMARK  11 active torsions:
REMARK  status: ('A' for Active; 'I' for Inactive)
REMARK    1  A    between atoms: C_1  and  C_2
REMARK    2  A    between atoms: C_2  and  C_3
REMARK    3  A    between atoms: C_2  and  C_4
REMARK    4  A    between atoms: C_4  and  C_6
REMARK    5  A    between atoms: C_4  and  N_15
REMARK    6  A    between atoms: N_8  and  C_9
REMARK    7  A    between atoms: C_9  and  C_10
REMARK    8  A    between atoms: C_21  and  C_28
REMARK    9  A    between atoms: N_26  and  C_27
REMARK   10  A    between atoms: C_32  and  O_34
REMARK   11  A    between atoms: O_34  and  C_35
REMARK                            x       y       z     vdW  Elec       q    Type
REMARK                         _______ _______ _______ _____ _____    ______ ____
ROOT
ATOM      1  N   UNL     1      -2.011  -1.683   0.475  0.00  0.00    -0.280 N 
ATOM      2  C   UNL     1      -2.596  -2.134   1.747  0.00  0.00    +0.160 C 
ATOM      3  C   UNL     1      -2.639  -3.642   1.641  0.00  0.00    +0.042 C 
ATOM      4  C   UNL     1      -2.127  -3.953   0.433  0.00  0.00    +0.058 C 
ATOM      5  C   UNL     1      -1.760  -2.781  -0.260  0.00  0.00    +0.247 C 
ATOM      6  O   UNL     1      -1.275  -2.766  -1.377  0.00  0.00    -0.270 OA
ATOM      7  C   UNL     1      -2.049  -5.419   0.057  0.00  0.00    +0.142 C 
ATOM      8  N   UNL     1      -2.542  -6.389   1.049  0.00  0.00    -0.288 N 
ATOM      9  C   UNL     1      -3.026  -5.923   2.217  0.00  0.00    +0.307 C 
ATOM     10  O   UNL     1      -3.435  -6.716   3.043  0.00  0.00    -0.252 OA
ATOM     11  N   UNL     1      -3.072  -4.614   2.498  0.00  0.00    -0.260 N 
ATOM     12  C   UNL     1      -3.616  -4.202   3.794  0.00  0.00    +0.139 C 
ATOM     13  H   UNL     1      -2.518  -7.341   0.866  0.00  0.00    +0.151 HD
ENDROOT
BRANCH   7  14
ATOM     14  C   UNL     1      -2.835  -5.615  -1.214  0.00  0.00    -0.019 A 
ATOM     15  C   UNL     1      -4.214  -5.711  -1.165  0.00  0.00    +0.006 A 
ATOM     16  C   UNL     1      -4.938  -5.891  -2.329  0.00  0.00    +0.004 A 
ATOM     17  C   UNL     1      -4.286  -5.975  -3.544  0.00  0.00    +0.046 A 
ATOM     18  C   UNL     1      -2.903  -5.879  -3.596  0.00  0.00    +0.129 A 
ATOM     19  C   UNL     1      -2.179  -5.693  -2.426  0.00  0.00    +0.052 A 
BRANCH  18  20
ATOM     20  O   UNL     1      -2.259  -5.962  -4.789  0.00  0.00    -0.456 OA
BRANCH  20  21
ATOM     21  C   UNL     1      -1.657  -7.138  -5.110  0.00  0.00    +0.128 A 
ATOM     22  C   UNL     1      -1.774  -8.231  -4.263  0.00  0.00    +0.046 A 
ATOM     23  C   UNL     1      -1.162  -9.425  -4.591  0.00  0.00    +0.004 A 
ATOM     24  C   UNL     1      -0.433  -9.531  -5.762  0.00  0.00    +0.000 A 
ATOM     25  C   UNL     1      -0.315  -8.443  -6.607  0.00  0.00    +0.004 A 
ATOM     26  C   UNL     1      -0.931  -7.248  -6.287  0.00  0.00    +0.046 A 
ENDBRANCH  20  21
ENDBRANCH  18  20
ENDBRANCH   7  14
BRANCH   1  27
ATOM     27  C   UNL     1      -1.756  -0.295   0.080  0.00  0.00    +0.165 C 
BRANCH  27  28
ATOM     28  C   UNL     1      -2.540   0.024  -1.167  0.00  0.00    +0.234 C 
ATOM     29  O   UNL     1      -3.046  -0.871  -1.811  0.00  0.00    -0.274 OA
ATOM     30  N   UNL     1      -2.678   1.303  -1.567  0.00  0.00    -0.307 N 
ATOM     31  H   UNL     1      -2.316   2.022  -1.026  0.00  0.00    +0.149 HD
BRANCH  30  32
ATOM     32  C   UNL     1      -3.373   1.608  -2.820  0.00  0.00    +0.178 C 
BRANCH  32  33
ATOM     33  C   UNL     1      -3.391   3.099  -3.035  0.00  0.00    +0.122 A 
ATOM     34  C   UNL     1      -2.457   3.810  -3.694  0.00  0.00    +0.046 A 
ATOM     35  C   UNL     1      -2.869   5.162  -3.655  0.00  0.00    +0.041 A 
ATOM     36  C   UNL     1      -4.029   5.197  -2.975  0.00  0.00    +0.195 A 
ATOM     37  O   UNL     1      -4.343   3.944  -2.607  0.00  0.00    -0.466 OA
ENDBRANCH  32  33
ENDBRANCH  30  32
ENDBRANCH  27  28
BRANCH  27  39
ATOM     38  C   UNL     1       0.022   1.364  -0.493  0.00  0.00    +0.009 C 
ATOM     39  C   UNL     1      -0.262  -0.110  -0.195  0.00  0.00    +0.012 C 
ATOM     40  C   UNL     1       0.540  -0.546   1.033  0.00  0.00    +0.009 C 
ENDBRANCH  27  39
ENDBRANCH   1  27
TORSDOF 8
