REMARK  Name = ZINC61699512
REMARK  7 active torsions:
REMARK  status: ('A' for Active; 'I' for Inactive)
REMARK    1  A    between atoms: C_1  and  C_2
REMARK    2  A    between atoms: C_5  and  N_20
REMARK    3  A    between atoms: C_6  and  O_8
REMARK    4  A    between atoms: O_8  and  C_9
REMARK    5  A    between atoms: C_12  and  C_16
REMARK    6  A    between atoms: C_16  and  C_18
REMARK    7  A    between atoms: C_16  and  N_19
REMARK                            x       y       z     vdW  Elec       q    Type
REMARK                         _______ _______ _______ _____ _____    ______ ____
ROOT
ATOM      1  C   UNL     1       0.038  -1.977   3.458  0.00  0.00    +0.142 A 
ATOM      2  C   UNL     1      -0.046  -0.599   3.315  0.00  0.00    +0.047 A 
ATOM      3  C   UNL     1      -0.059   0.210   4.434  0.00  0.00    +0.005 A 
ATOM      4  C   UNL     1       0.012  -0.351   5.696  0.00  0.00    -0.061 A 
ATOM      5  C   UNL     1       0.096  -1.723   5.842  0.00  0.00    +0.021 A 
ATOM      6  C   UNL     1       0.103  -2.538   4.726  0.00  0.00    +0.060 A 
ATOM      7 BR   UNL     1       0.210  -4.415   4.926  0.00  0.00    -0.046 Br
ENDROOT
BRANCH   4   8
ATOM      8  C   UNL     1      -0.003   0.536   6.915  0.00  0.00    -0.047 C 
ATOM      9  C   UNL     1       1.426   0.716   7.432  0.00  0.00    -0.009 C 
BRANCH   8  10
ATOM     10  N   UNL     1      -0.828  -0.084   7.961  0.00  0.00    +0.382 N 
ATOM     11  H   UNL     1      -1.770  -0.203   7.620  0.00  0.00    -0.089 HD
ATOM     12  H   UNL     1      -0.442  -0.984   8.204  0.00  0.00    -0.089 HD
ATOM     13  H   UNL     1      -0.838   0.510   8.777  0.00  0.00    -0.089 HD
ENDBRANCH   8  10
ENDBRANCH   4   8
BRANCH   1  14
ATOM     14  O   UNL     1       0.052  -2.776   2.358  0.00  0.00    -0.453 OA
BRANCH  14  20
ATOM     15  C   UNL     1      -4.806  -3.019   2.765  0.00  0.00    +0.044 C 
ATOM     16  C   UNL     1      -3.518  -3.431   2.101  0.00  0.00    -0.047 A 
ATOM     17  C   UNL     1      -3.539  -4.331   1.051  0.00  0.00    +0.006 A 
ATOM     18  C   UNL     1      -2.359  -4.711   0.439  0.00  0.00    +0.037 A 
ATOM     19  C   UNL     1      -1.155  -4.191   0.875  0.00  0.00    +0.168 A 
ATOM     20  C   UNL     1      -1.131  -3.288   1.927  0.00  0.00    +0.159 A 
ATOM     21  C   UNL     1      -2.318  -2.904   2.537  0.00  0.00    +0.052 A 
BRANCH  19  22
ATOM     22  N   UNL     1       0.108  -4.598   0.220  0.00  0.00    +0.060 N 
ATOM     23  O   UNL     1       0.087  -5.386  -0.698  0.00  0.00    -0.126 OA
ATOM     24  O   UNL     1       1.161  -4.144   0.601  0.00  0.00    -0.126 OA
ENDBRANCH  19  22
ENDBRANCH  14  20
ENDBRANCH   1  14
TORSDOF 5
