REMARK  Name = ZINC11591646
REMARK  5 active torsions:
REMARK  status: ('A' for Active; 'I' for Inactive)
REMARK    1  A    between atoms: C_1  and  C_2
REMARK    2  A    between atoms: C_2  and  C_3
REMARK    3  A    between atoms: C_2  and  C_4
REMARK    4  A    between atoms: C_7  and  C_10
REMARK    5  A    between atoms: C_10  and  N_11
REMARK                            x       y       z     vdW  Elec       q    Type
REMARK                         _______ _______ _______ _____ _____    ______ ____
ROOT
ATOM      1  N   UNL     1       2.714   4.795   1.221  0.00  0.00    -0.220 N 
ATOM      2  C   UNL     1       1.577   4.092   1.399  0.00  0.00    +0.252 C 
ATOM      3  O   UNL     1       0.987   3.902   2.441  0.00  0.00    -0.272 OA
ATOM      4  C   UNL     1       1.192   3.592   0.026  0.00  0.00    +0.144 C 
ATOM      5  C   UNL     1      -0.168   4.150  -0.380  0.00  0.00    +0.081 C 
ATOM      6  C   UNL     1      -1.252   3.395   0.402  0.00  0.00    +0.232 C 
ATOM      7  O   UNL     1      -1.217   2.022   0.014  0.00  0.00    -0.492 OA
ATOM      8  C   UNL     1      -0.017   1.386   0.010  0.00  0.00    +0.126 A 
ATOM      9  C   UNL     1       1.177   2.089   0.002  0.00  0.00    +0.027 A 
ATOM     10  C   UNL     1       2.379   1.403  -0.023  0.00  0.00    +0.010 A 
ATOM     11  C   UNL     1       2.394   0.021  -0.032  0.00  0.00    +0.001 A 
ATOM     12  C   UNL     1       1.204  -0.682  -0.018  0.00  0.00    +0.004 A 
ATOM     13  C   UNL     1       0.002  -0.004   0.002  0.00  0.00    +0.046 A 
ATOM     14  N   UNL     1       2.247   4.112  -0.852  0.00  0.00    -0.281 N 
ATOM     15  C   UNL     1       3.092   4.804  -0.063  0.00  0.00    +0.310 C 
ATOM     16  O   UNL     1       4.086   5.372  -0.471  0.00  0.00    -0.252 OA
ATOM     17  H   UNL     1       2.322   3.983  -1.810  0.00  0.00    +0.152 HD
ENDROOT
BRANCH   1  18
ATOM     18  C   UNL     1       3.445   5.467   2.299  0.00  0.00    +0.153 C 
BRANCH  18  22
ATOM     19  C   UNL     1       6.316   2.777   3.963  0.00  0.00    -0.045 A 
ATOM     20  C   UNL     1       6.666   3.594   2.904  0.00  0.00    +0.004 A 
ATOM     21  C   UNL     1       5.737   4.464   2.365  0.00  0.00    +0.005 A 
ATOM     22  C   UNL     1       4.457   4.518   2.886  0.00  0.00    -0.030 A 
ATOM     23  C   UNL     1       4.109   3.705   3.949  0.00  0.00    +0.005 A 
ATOM     24  C   UNL     1       5.037   2.832   4.484  0.00  0.00    +0.004 A 
BRANCH  19  26
ATOM     25  C   UNL     1       7.545   2.163   6.027  0.00  0.00    +0.012 C 
ATOM     26  C   UNL     1       7.329   1.829   4.550  0.00  0.00    +0.013 C 
ATOM     27  C   UNL     1       6.817   0.393   4.422  0.00  0.00    +0.012 C 
ENDBRANCH  19  26
ENDBRANCH  18  22
ENDBRANCH   1  18
TORSDOF 3
