REMARK  Name = ZINC03638755
REMARK  11 active torsions:
REMARK  status: ('A' for Active; 'I' for Inactive)
REMARK    1  A    between atoms: C_1  and  C_2
REMARK    2  A    between atoms: C_5  and  C_35
REMARK    3  A    between atoms: C_6  and  C_8
REMARK    4  A    between atoms: C_8  and  N_9
REMARK    5  A    between atoms: C_12  and  C_20
REMARK    6  A    between atoms: N_22  and  C_23
REMARK    7  A    between atoms: C_23  and  C_24
REMARK    8  A    between atoms: C_24  and  C_26
REMARK    9  A    between atoms: C_24  and  C_27
REMARK   10  A    between atoms: C_27  and  N_28
REMARK   11  A    between atoms: C_31  and  C_34
REMARK                            x       y       z     vdW  Elec       q    Type
REMARK                         _______ _______ _______ _____ _____    ______ ____
ROOT
ATOM      1  N   UNL     1       2.035  -5.527   3.239  0.00  0.00    -0.265 N 
ATOM      2  C   UNL     1       1.900  -6.697   2.496  0.00  0.00    +0.051 A 
ATOM      3  C   UNL     1       1.345  -6.636   1.227  0.00  0.00    +0.037 A 
ATOM      4  C   UNL     1       1.198  -7.800   0.470  0.00  0.00    +0.039 A 
ATOM      5  C   UNL     1       1.609  -9.032   0.988  0.00  0.00    +0.014 A 
ATOM      6  C   UNL     1       2.162  -9.093   2.248  0.00  0.00    +0.017 A 
ATOM      7  C   UNL     1       2.311  -7.936   3.000  0.00  0.00    +0.030 A 
ATOM      8  S   UNL     1       3.030  -8.009   4.611  0.00  0.00    -0.114 S 
ATOM      9  C   UNL     1       3.823  -6.380   4.764  0.00  0.00    +0.170 C 
ATOM     10  C   UNL     1       2.878  -5.328   4.248  0.00  0.00    +0.230 C 
ATOM     11  O   UNL     1       2.883  -4.241   4.785  0.00  0.00    -0.274 OA
ENDROOT
BRANCH   4  12
ATOM     12  C   UNL     1       0.608  -7.730  -0.880  0.00  0.00    +0.244 C 
ATOM     13  O   UNL     1       0.159  -6.678  -1.294  0.00  0.00    -0.270 OA
ATOM     14  N   UNL     1       0.565  -8.832  -1.655  0.00  0.00    -0.311 N 
ATOM     15  H   UNL     1       0.923  -9.671  -1.325  0.00  0.00    +0.149 HD
BRANCH  14  16
ATOM     16  C   UNL     1      -0.021  -8.762  -2.996  0.00  0.00    +0.106 C 
BRANCH  16  17
ATOM     17  C   UNL     1       0.056 -10.140  -3.658  0.00  0.00    -0.014 C 
ATOM     18  C   UNL     1      -0.820 -11.127  -2.884  0.00  0.00    +0.007 C 
BRANCH  17  19
ATOM     19  C   UNL     1      -0.442 -10.040  -5.101  0.00  0.00    -0.074 C 
BRANCH  19  20
ATOM     20  N   UNL     1      -0.240 -11.327  -5.779  0.00  0.00    +0.380 N 
ATOM     21  C   UNL     1      -0.875 -11.287  -7.102  0.00  0.00    -0.079 C 
ATOM     22  C   UNL     1      -0.738 -12.652  -7.779  0.00  0.00    -0.016 C 
ATOM     23  C   UNL     1       0.748 -12.992  -7.934  0.00  0.00    -0.018 C 
ATOM     24  C   UNL     1       1.415 -12.958  -6.557  0.00  0.00    -0.016 C 
ATOM     25  C   UNL     1       1.198 -11.582  -5.925  0.00  0.00    -0.079 C 
ATOM     26  C   UNL     1       0.892 -14.390  -8.539  0.00  0.00    +0.007 C 
ATOM     27  H   UNL     1      -0.657 -12.064  -5.230  0.00  0.00    -0.082 HD
ENDBRANCH  19  20
ENDBRANCH  17  19
ENDBRANCH  16  17
ENDBRANCH  14  16
ENDBRANCH   4  12
BRANCH   1  28
ATOM     28  C   UNL     1       1.168  -4.405   2.870  0.00  0.00    +0.149 C 
BRANCH  28  34
ATOM     29  C   UNL     1      -3.553  -6.040   2.596  0.00  0.00    +0.044 C 
ATOM     30  C   UNL     1      -2.447  -5.371   3.370  0.00  0.00    -0.050 A 
ATOM     31  C   UNL     1      -2.676  -4.925   4.659  0.00  0.00    +0.003 A 
ATOM     32  C   UNL     1      -1.661  -4.311   5.368  0.00  0.00    +0.004 A 
ATOM     33  C   UNL     1      -0.417  -4.143   4.789  0.00  0.00    -0.046 A 
ATOM     34  C   UNL     1      -0.188  -4.589   3.501  0.00  0.00    -0.027 A 
ATOM     35  C   UNL     1      -1.202  -5.207   2.793  0.00  0.00    +0.008 A 
ATOM     36  C   UNL     1       0.689  -3.472   5.562  0.00  0.00    +0.044 C 
ENDBRANCH  28  34
ENDBRANCH   1  28
TORSDOF 7
