REMARK  Name = ZINC37010908
REMARK  8 active torsions:
REMARK  status: ('A' for Active; 'I' for Inactive)
REMARK    1  A    between atoms: C_1  and  C_2
REMARK    2  A    between atoms: C_2  and  C_3
REMARK    3  A    between atoms: C_3  and  C_5
REMARK    4  A    between atoms: C_3  and  C_6
REMARK    5  A    between atoms: N_8  and  C_9
REMARK    6  A    between atoms: C_12  and  S_17
REMARK    7  A    between atoms: C_13  and  C_16
REMARK    8  A    between atoms: S_17  and  N_20
REMARK                            x       y       z     vdW  Elec       q    Type
REMARK                         _______ _______ _______ _____ _____    ______ ____
ROOT
ATOM      1  C   UNL     1      -2.617  -4.107  -0.344  0.00  0.00    +0.071 A 
ATOM      2  C   UNL     1      -1.474  -4.785  -0.750  0.00  0.00    +0.065 A 
ATOM      3  C   UNL     1      -1.519  -6.151  -0.957  0.00  0.00    +0.050 A 
ATOM      4  C   UNL     1      -2.700  -6.843  -0.759  0.00  0.00    +0.111 A 
ATOM      5  C   UNL     1      -3.839  -6.172  -0.354  0.00  0.00    -0.004 A 
ATOM      6  C   UNL     1      -3.800  -4.806  -0.140  0.00  0.00    +0.068 A 
ATOM      7 CL   UNL     1      -5.228  -3.966   0.375  0.00  0.00    -0.081 Cl
ATOM      8  C   UNL     1      -5.124  -6.930  -0.141  0.00  0.00    +0.047 C 
ATOM      9 CL   UNL     1       0.009  -3.917  -0.999  0.00  0.00    -0.082 Cl
ENDROOT
BRANCH   1  12
ATOM     10  C   UNL     1      -2.869  -1.879  -1.142  0.00  0.00    +0.220 C 
ATOM     11  O   UNL     1      -3.081  -2.314  -2.254  0.00  0.00    -0.275 OA
ATOM     12  N   UNL     1      -2.574  -2.724  -0.133  0.00  0.00    -0.283 N 
ATOM     13  H   UNL     1      -2.333  -2.372   0.738  0.00  0.00    +0.155 HD
BRANCH  10  14
ATOM     14  C   UNL     1      -2.934  -0.395  -0.888  0.00  0.00    +0.072 C 
ATOM     15  C   UNL     1      -1.577   0.095  -0.379  0.00  0.00    +0.017 C 
BRANCH  14  17
ATOM     16  C   UNL     1      -3.472   1.822  -1.906  0.00  0.00    +0.004 C 
ATOM     17  C   UNL     1      -3.284   0.330  -2.189  0.00  0.00    +0.009 C 
ENDBRANCH  14  17
ENDBRANCH  10  14
ENDBRANCH   1  12
BRANCH   4  18
ATOM     18  S   UNL     1      -2.754  -8.584  -1.024  0.00  0.00    +0.056 S 
ATOM     19  O   UNL     1      -3.889  -8.836  -1.841  0.00  0.00    -0.153 OA
ATOM     20  O   UNL     1      -1.442  -8.978  -1.402  0.00  0.00    -0.153 OA
BRANCH  18  21
ATOM     21  N   UNL     1      -3.057  -9.293   0.441  0.00  0.00    -0.204 NA
ATOM     22  H   UNL     1      -3.541 -10.133   0.482  0.00  0.00    +0.144 HD
ATOM     23  H   UNL     1      -2.752  -8.869   1.258  0.00  0.00    +0.144 HD
ENDBRANCH  18  21
ENDBRANCH   4  18
TORSDOF 5
