REMARK  Name = ZINC14910704
REMARK  6 active torsions:
REMARK  status: ('A' for Active; 'I' for Inactive)
REMARK    1  A    between atoms: C_1  and  C_2
REMARK    2  A    between atoms: C_4  and  C_24
REMARK    3  A    between atoms: C_5  and  C_9
REMARK    4  A    between atoms: C_7  and  C_8
REMARK    5  A    between atoms: C_10  and  C_23
REMARK    6  A    between atoms: C_15  and  C_17
REMARK                            x       y       z     vdW  Elec       q    Type
REMARK                         _______ _______ _______ _____ _____    ______ ____
ROOT
ATOM      1  C   UNL     1       0.186   0.157   2.408  0.00  0.00    +0.083 A 
ATOM      2  C   UNL     1       0.385  -0.459   3.612  0.00  0.00    +0.016 A 
ATOM      3  S   UNL     1       0.370   0.950   4.712  0.00  0.00    -0.057 S 
ATOM      4  C   UNL     1       0.103   2.204   3.466  0.00  0.00    +0.165 A 
ATOM      5  N   UNL     1       0.055   1.475   2.366  0.00  0.00    -0.224 NA
ATOM      6  N   UNL     1      -0.016   3.579   3.615  0.00  0.00    -0.258 N 
ATOM      7  C   UNL     1       0.069   4.134   4.840  0.00  0.00    +0.287 C 
ATOM      8  O   UNL     1       0.251   3.429   5.816  0.00  0.00    -0.266 OA
ATOM      9  C   UNL     1       0.567  -1.922   3.925  0.00  0.00    +0.054 C 
ATOM     10  H   UNL     1      -0.161   4.140   2.837  0.00  0.00    +0.157 HD
ENDROOT
BRANCH   1  15
ATOM     11  C   UNL     1      -0.059  -2.942  -2.439  0.00  0.00    +0.044 C 
ATOM     12  C   UNL     1       0.005  -2.131  -1.171  0.00  0.00    -0.047 A 
ATOM     13  C   UNL     1      -0.975  -1.192  -0.903  0.00  0.00    +0.007 A 
ATOM     14  C   UNL     1      -0.919  -0.443   0.255  0.00  0.00    -0.041 A 
ATOM     15  C   UNL     1       0.123  -0.641   1.160  0.00  0.00    +0.004 A 
ATOM     16  C   UNL     1       1.105  -1.591   0.887  0.00  0.00    +0.014 A 
ATOM     17  C   UNL     1       1.041  -2.331  -0.277  0.00  0.00    -0.047 A 
ATOM     18  C   UNL     1       2.103  -3.359  -0.573  0.00  0.00    +0.044 C 
ATOM     19  C   UNL     1      -1.985   0.583   0.542  0.00  0.00    +0.044 C 
ENDBRANCH   1  15
BRANCH   7  20
ATOM     20  C   UNL     1      -0.056   5.583   4.997  0.00  0.00    +0.217 C 
ATOM     21  C   UNL     1      -0.256   6.344   3.912  0.00  0.00    +0.238 C 
ATOM     22  O   UNL     1      -0.371   7.686   3.999  0.00  0.00    -0.492 OA
ATOM     23  C   UNL     1      -0.651   8.227   5.295  0.00  0.00    +0.269 C 
ATOM     24  C   UNL     1       0.274   7.538   6.309  0.00  0.00    +0.270 C 
ATOM     25  O   UNL     1       0.027   6.127   6.243  0.00  0.00    -0.481 OA
ENDBRANCH   7  20
TORSDOF 2
