REMARK  Name = ZINC21223042
REMARK  9 active torsions:
REMARK  status: ('A' for Active; 'I' for Inactive)
REMARK    1  A    between atoms: C_1  and  C_2
REMARK    2  A    between atoms: C_2  and  C_3
REMARK    3  A    between atoms: C_2  and  O_4
REMARK    4  A    between atoms: O_4  and  C_5
REMARK    5  A    between atoms: C_8  and  C_11
REMARK    6  A    between atoms: C_16  and  C_26
REMARK    7  A    between atoms: C_30  and  O_33
REMARK    8  A    between atoms: C_31  and  O_32
REMARK    9  A    between atoms: O_33  and  C_34
REMARK                            x       y       z     vdW  Elec       q    Type
REMARK                         _______ _______ _______ _____ _____    ______ ____
ROOT
ATOM      1  C   UNL     1      -6.213   4.086   0.519  0.00  0.00    +0.032 C 
ATOM      2  C   UNL     1      -6.623   5.114  -0.534  0.00  0.00    +0.059 C 
ATOM      3  C   UNL     1      -8.138   5.199  -0.613  0.00  0.00    +0.017 C 
ATOM      4  C   UNL     1      -8.894   4.113  -0.380  0.00  0.00    +0.037 C 
ATOM      5  C   UNL     1     -10.403   4.057  -0.428  0.00  0.00    +0.140 C 
ATOM      6  N   UNL     1     -11.029   5.224  -1.011  0.00  0.00    -0.331 N 
ATOM      7  C   UNL     1     -10.930   6.473  -0.400  0.00  0.00    +0.049 A 
ATOM      8  C   UNL     1     -12.036   7.093   0.161  0.00  0.00    +0.025 A 
ATOM      9  C   UNL     1     -11.871   8.279   0.855  0.00  0.00    +0.002 A 
ATOM     10  C   UNL     1     -10.615   8.842   0.990  0.00  0.00    +0.002 A 
ATOM     11  C   UNL     1      -9.512   8.236   0.413  0.00  0.00    +0.025 A 
ATOM     12  C   UNL     1      -9.678   7.060  -0.297  0.00  0.00    +0.052 A 
ATOM     13  N   UNL     1      -8.623   6.424  -0.941  0.00  0.00    -0.316 N 
ATOM     14  C   UNL     1      -8.286   2.881  -0.040  0.00  0.00    +0.163 C 
ATOM     15  O   UNL     1      -8.993   1.909   0.141  0.00  0.00    -0.292 OA
ATOM     16  C   UNL     1      -6.801   2.733   0.104  0.00  0.00    +0.088 C 
ATOM     17  H   UNL     1     -11.594   5.134  -1.950  0.00  0.00    +0.147 HD
ATOM     18  H   UNL     1      -8.176   6.988  -1.773  0.00  0.00    +0.152 HD
ENDROOT
BRANCH   1  22
ATOM     19  C   UNL     1      -1.952   3.818   0.701  0.00  0.00    +0.121 A 
ATOM     20  C   UNL     1      -2.616   3.536  -0.484  0.00  0.00    +0.046 A 
ATOM     21  C   UNL     1      -3.994   3.618  -0.539  0.00  0.00    +0.007 A 
ATOM     22  C   UNL     1      -4.710   3.992   0.583  0.00  0.00    -0.043 A 
ATOM     23  C   UNL     1      -4.051   4.279   1.764  0.00  0.00    +0.007 A 
ATOM     24  C   UNL     1      -2.673   4.193   1.825  0.00  0.00    +0.046 A 
BRANCH  19  25
ATOM     25  O   UNL     1      -0.597   3.733   0.759  0.00  0.00    -0.489 OA
BRANCH  25  27
ATOM     26  C   UNL     1       0.123   1.947  -0.701  0.00  0.00    +0.051 C 
ATOM     27  C   UNL     1       0.089   3.458  -0.464  0.00  0.00    +0.167 C 
ATOM     28  C   UNL     1       1.519   3.994  -0.379  0.00  0.00    +0.051 C 
ENDBRANCH  25  27
ENDBRANCH  19  25
ENDBRANCH   1  22
BRANCH   5  29
ATOM     29  C   UNL     1     -10.920   3.889   0.978  0.00  0.00    +0.022 A 
ATOM     30  C   UNL     1     -10.133   4.261   2.053  0.00  0.00    +0.009 A 
ATOM     31  C   UNL     1     -10.607   4.114   3.343  0.00  0.00    +0.004 A 
ATOM     32  C   UNL     1     -11.864   3.584   3.565  0.00  0.00    +0.049 A 
ATOM     33  C   UNL     1     -12.655   3.205   2.493  0.00  0.00    +0.162 A 
ATOM     34  C   UNL     1     -12.181   3.358   1.193  0.00  0.00    +0.164 A 
BRANCH  34  35
ATOM     35  O   UNL     1     -12.953   2.987   0.137  0.00  0.00    -0.503 OA
ATOM     36  H   UNL     1     -13.954   2.565   0.310  0.00  0.00    +0.292 HD
ENDBRANCH  34  35
BRANCH  33  37
ATOM     37  O   UNL     1     -13.892   2.683   2.709  0.00  0.00    -0.491 OA
ATOM     38  C   UNL     1     -14.313   2.555   4.069  0.00  0.00    +0.277 C 
ENDBRANCH  33  37
ENDBRANCH   5  29
TORSDOF 6
