REMARK  Name = ZINC14456827
REMARK  7 active torsions:
REMARK  status: ('A' for Active; 'I' for Inactive)
REMARK    1  A    between atoms: C_1  and  C_2
REMARK    2  A    between atoms: C_5  and  C_7
REMARK    3  A    between atoms: C_18  and  N_23
REMARK    4  A    between atoms: C_24  and  C_26
REMARK    5  A    between atoms: C_26  and  C_27
REMARK    6  A    between atoms: C_27  and  C_28
REMARK    7  A    between atoms: C_27  and  C_29
REMARK                            x       y       z     vdW  Elec       q    Type
REMARK                         _______ _______ _______ _____ _____    ______ ____
ROOT
ATOM      1  C   UNL     1       2.707   1.223  -0.085  0.00  0.00    +0.111 C 
ATOM      2  C   UNL     1       3.442   1.279  -1.411  0.00  0.00    +0.029 C 
ATOM      3  C   UNL     1       4.941   0.940  -1.230  0.00  0.00    +0.033 C 
ATOM      4  C   UNL     1       5.596   1.711  -2.371  0.00  0.00    -0.030 C 
ATOM      5  C   UNL     1       4.817   2.680  -2.783  0.00  0.00    -0.023 C 
ATOM      6  C   UNL     1       3.532   2.712  -1.966  0.00  0.00    +0.049 C 
ATOM      7  C   UNL     1       3.712   3.738  -0.881  0.00  0.00    -0.018 A 
ATOM      8  C   UNL     1       3.967   5.049  -1.260  0.00  0.00    +0.029 A 
ATOM      9  C   UNL     1       4.146   6.035  -0.302  0.00  0.00    +0.034 A 
ATOM     10  C   UNL     1       4.072   5.717   1.048  0.00  0.00    +0.025 A 
ATOM     11  C   UNL     1       3.816   4.415   1.429  0.00  0.00    +0.025 A 
ATOM     12  C   UNL     1       3.634   3.430   0.466  0.00  0.00    +0.031 A 
ATOM     13  N   UNL     1       3.371   2.107   0.881  0.00  0.00    -0.336 N 
ATOM     14  H   UNL     1       3.606   1.793   1.768  0.00  0.00    +0.147 HD
ENDROOT
BRANCH   1  19
ATOM     15  C   UNL     1      -2.271   3.833  -0.795  0.00  0.00    +0.051 C 
ATOM     16  C   UNL     1      -1.087   2.917  -0.619  0.00  0.00    -0.013 A 
ATOM     17  C   UNL     1      -1.053   1.562  -0.591  0.00  0.00    +0.011 A 
ATOM     18  C   UNL     1       0.161   0.925  -0.412  0.00  0.00    +0.013 A 
ATOM     19  C   UNL     1       1.283   1.674  -0.281  0.00  0.00    +0.010 A 
ATOM     20  S   UNL     1       0.635   3.334  -0.402  0.00  0.00    -0.097 S 
ENDBRANCH   1  19
BRANCH   9  21
ATOM     21  N   UNL     1       4.402   7.355  -0.697  0.00  0.00    -0.285 N 
ATOM     22  C   UNL     1       5.198   8.140   0.056  0.00  0.00    +0.217 C 
ATOM     23  O   UNL     1       5.769   7.678   1.021  0.00  0.00    -0.275 OA
ATOM     24  H   UNL     1       4.007   7.703  -1.511  0.00  0.00    +0.155 HD
BRANCH  22  25
ATOM     25  C   UNL     1       5.379   9.593  -0.303  0.00  0.00    +0.099 C 
BRANCH  25  26
ATOM     26  C   UNL     1       6.324  10.253   0.704  0.00  0.00    -0.008 C 
ATOM     27  C   UNL     1       7.716   9.629   0.581  0.00  0.00    +0.008 C 
ATOM     28  C   UNL     1       6.410  11.753   0.415  0.00  0.00    +0.008 C 
ENDBRANCH  25  26
ENDBRANCH  22  25
ENDBRANCH   9  21
TORSDOF 4
