REMARK  Name = ZINC39686158
REMARK  8 active torsions:
REMARK  status: ('A' for Active; 'I' for Inactive)
REMARK    1  A    between atoms: C_1  and  C_2
REMARK    2  A    between atoms: C_7  and  C_8
REMARK    3  A    between atoms: C_12  and  C_21
REMARK    4  A    between atoms: N_23  and  C_24
REMARK    5  A    between atoms: C_30  and  C_32
REMARK    6  A    between atoms: C_32  and  C_33
REMARK    7  A    between atoms: C_33  and  C_34
REMARK    8  A    between atoms: C_33  and  C_35
REMARK                            x       y       z     vdW  Elec       q    Type
REMARK                         _______ _______ _______ _____ _____    ______ ____
ROOT
ATOM      1  C   UNL     1       0.118   0.198   2.409  0.00  0.00    +0.247 C 
ATOM      2  O   UNL     1      -0.024   1.404   2.355  0.00  0.00    -0.270 OA
ATOM      3  N   UNL     1       0.321  -0.404   3.598  0.00  0.00    -0.296 N 
ATOM      4  C   UNL     1       0.602  -1.836   3.854  0.00  0.00    +0.121 C 
ATOM      5  C   UNL     1       1.656  -1.831   4.984  0.00  0.00    +0.100 C 
ATOM      6  C   UNL     1       1.461  -0.482   5.696  0.00  0.00    -0.004 C 
ATOM      7  C   UNL     1       0.321   0.218   4.943  0.00  0.00    +0.115 C 
ATOM      8  C   UNL     1       2.736   0.351   5.606  0.00  0.00    -0.010 C 
ATOM      9  C   UNL     1       2.537   1.663   6.370  0.00  0.00    -0.082 C 
ATOM     10  N   UNL     1       2.217   1.371   7.773  0.00  0.00    +0.379 N 
ATOM     11  C   UNL     1       0.942   0.649   7.856  0.00  0.00    -0.082 C 
ATOM     12  C   UNL     1       1.074  -0.706   7.155  0.00  0.00    -0.010 C 
ATOM     13  H   UNL     1       2.950   0.804   8.172  0.00  0.00    -0.086 HD
ATOM     14  H   UNL     1       2.147   2.236   8.288  0.00  0.00    -0.086 HD
ENDROOT
BRANCH   1  21
ATOM     15  C   UNL     1      -2.144   0.459   0.624  0.00  0.00    +0.044 C 
ATOM     16  C   UNL     1      -1.019  -0.491   0.302  0.00  0.00    -0.038 A 
ATOM     17  C   UNL     1      -1.058  -1.242  -0.854  0.00  0.00    +0.004 A 
ATOM     18  C   UNL     1      -0.025  -2.115  -1.151  0.00  0.00    +0.000 A 
ATOM     19  C   UNL     1       1.051  -2.240  -0.291  0.00  0.00    +0.001 A 
ATOM     20  C   UNL     1       1.102  -1.494   0.868  0.00  0.00    +0.013 A 
ATOM     21  C   UNL     1       0.067  -0.608   1.171  0.00  0.00    +0.040 A 
ENDBRANCH   1  21
BRANCH   5  22
ATOM     22  C   UNL     1       1.408  -2.972   5.938  0.00  0.00    +0.218 C 
ATOM     23  O   UNL     1       0.273  -3.329   6.174  0.00  0.00    -0.275 OA
ATOM     24  N   UNL     1       2.447  -3.595   6.528  0.00  0.00    -0.312 N 
ATOM     25  H   UNL     1       3.355  -3.309   6.338  0.00  0.00    +0.149 HD
BRANCH  24  26
ATOM     26  C   UNL     1       2.207  -4.703   7.455  0.00  0.00    +0.076 C 
ATOM     27  C   UNL     1       1.933  -4.147   8.854  0.00  0.00    +0.041 C 
ATOM     28  C   UNL     1       1.647  -5.307   9.813  0.00  0.00    +0.109 C 
ATOM     29  N   UNL     1       2.765  -6.259   9.750  0.00  0.00    -0.301 N 
ATOM     30  C   UNL     1       3.170  -6.786   8.440  0.00  0.00    +0.109 C 
ATOM     31  C   UNL     1       3.439  -5.610   7.496  0.00  0.00    +0.041 C 
ATOM     32  C   UNL     1       3.406  -6.640  10.872  0.00  0.00    +0.216 C 
ATOM     33  O   UNL     1       3.062  -6.197  11.948  0.00  0.00    -0.276 OA
BRANCH  32  34
ATOM     34  C   UNL     1       4.551  -7.617  10.791  0.00  0.00    +0.099 C 
BRANCH  34  35
ATOM     35  C   UNL     1       5.098  -7.880  12.196  0.00  0.00    -0.008 C 
ATOM     36  C   UNL     1       6.175  -8.964  12.129  0.00  0.00    +0.008 C 
ATOM     37  C   UNL     1       5.704  -6.591  12.755  0.00  0.00    +0.008 C 
ENDBRANCH  34  35
ENDBRANCH  32  34
ENDBRANCH  24  26
ENDBRANCH   5  22
TORSDOF 5
