REMARK  Name = ZINC50001328
REMARK  6 active torsions:
REMARK  status: ('A' for Active; 'I' for Inactive)
REMARK    1  A    between atoms: C_4  and  N_25
REMARK    2  A    between atoms: C_5  and  C_7
REMARK    3  A    between atoms: C_7  and  N_8
REMARK    4  A    between atoms: C_9  and  C_11
REMARK    5  A    between atoms: C_14  and  N_20
REMARK    6  A    between atoms: C_15  and  N_17
REMARK                            x       y       z     vdW  Elec       q    Type
REMARK                         _______ _______ _______ _____ _____    ______ ____
ROOT
ATOM      1  N   UNL     1       1.485  -2.680   1.333  0.00  0.00    -0.307 N 
ATOM      2  C   UNL     1       1.548  -4.005   1.568  0.00  0.00    +0.244 C 
ATOM      3  O   UNL     1       1.389  -4.792   0.654  0.00  0.00    -0.270 OA
ATOM      4  H   UNL     1       1.612  -2.052   2.062  0.00  0.00    +0.149 HD
ENDROOT
BRANCH   2   5
ATOM      5  C   UNL     1       1.809  -4.502   2.932  0.00  0.00    +0.039 A 
ATOM      6  C   UNL     1       1.986  -3.598   3.984  0.00  0.00    +0.015 A 
ATOM      7  C   UNL     1       2.229  -4.064   5.256  0.00  0.00    +0.026 A 
ATOM      8  C   UNL     1       2.299  -5.434   5.495  0.00  0.00    +0.060 A 
ATOM      9  C   UNL     1       2.123  -6.336   4.450  0.00  0.00    +0.148 A 
ATOM     10  C   UNL     1       1.874  -5.876   3.177  0.00  0.00    +0.047 A 
BRANCH   8  11
ATOM     11  N   UNL     1       2.545  -5.902   6.781  0.00  0.00    -0.328 N 
ATOM     12  C   UNL     1       3.872  -6.162   7.359  0.00  0.00    +0.105 C 
ATOM     13  C   UNL     1       3.651  -6.691   8.792  0.00  0.00    +0.020 C 
ATOM     14  C   UNL     1       2.199  -7.234   8.743  0.00  0.00    +0.020 C 
ATOM     15  C   UNL     1       1.519  -6.213   7.793  0.00  0.00    +0.105 C 
ENDBRANCH   8  11
BRANCH   9  16
ATOM     16  N   UNL     1       2.199  -7.792   4.709  0.00  0.00    +0.058 N 
ATOM     17  O   UNL     1       2.046  -8.576   3.801  0.00  0.00    -0.126 OA
ATOM     18  O   UNL     1       2.413  -8.196   5.827  0.00  0.00    -0.126 OA
ENDBRANCH   9  16
ENDBRANCH   2   5
BRANCH   1  19
ATOM     19  C   UNL     1       1.226  -2.187  -0.022  0.00  0.00    +0.141 C 
BRANCH  19  24
ATOM     20  C   UNL     1      -0.017   1.378   0.010  0.00  0.00    +0.000 A 
ATOM     21  C   UNL     1       1.170   2.089   0.002  0.00  0.00    +0.002 A 
ATOM     22  C   UNL     1       2.377   1.420  -0.013  0.00  0.00    +0.023 A 
ATOM     23  C   UNL     1       2.400   0.031  -0.021  0.00  0.00    +0.034 A 
ATOM     24  C   UNL     1       1.207  -0.680  -0.013  0.00  0.00    -0.009 A 
ATOM     25  C   UNL     1       0.002  -0.004   0.002  0.00  0.00    +0.007 A 
BRANCH  23  26
ATOM     26  N   UNL     1       3.620  -0.649  -0.036  0.00  0.00    -0.330 N 
ATOM     27  C   UNL     1       4.359  -1.055  -1.241  0.00  0.00    +0.105 C 
ATOM     28  C   UNL     1       5.629  -1.796  -0.771  0.00  0.00    +0.020 C 
ATOM     29  C   UNL     1       5.250  -2.262   0.660  0.00  0.00    +0.020 C 
ATOM     30  C   UNL     1       4.382  -1.074   1.152  0.00  0.00    +0.105 C 
ENDBRANCH  23  26
ENDBRANCH  19  24
ENDBRANCH   1  19
TORSDOF 6
