REMARK  Name = ZINC14534149
REMARK  15 active torsions:
REMARK  status: ('A' for Active; 'I' for Inactive)
REMARK    1  A    between atoms: C_1  and  C_2
REMARK    2  A    between atoms: C_2  and  C_3
REMARK    3  A    between atoms: C_3  and  C_4
REMARK    4  A    between atoms: C_4  and  C_5
REMARK    5  A    between atoms: C_8  and  C_11
REMARK    6  A    between atoms: C_11  and  N_12
REMARK    7  A    between atoms: N_20  and  C_29
REMARK    8  A    between atoms: N_23  and  C_24
REMARK    9  A    between atoms: C_24  and  C_25
REMARK   10  A    between atoms: C_25  and  C_26
REMARK   11  A    between atoms: C_26  and  C_27
REMARK   12  A    between atoms: C_26  and  C_28
REMARK   13  A    between atoms: C_29  and  C_30
REMARK   14  A    between atoms: C_34  and  O_36
REMARK   15  A    between atoms: O_36  and  C_37
REMARK                            x       y       z     vdW  Elec       q    Type
REMARK                         _______ _______ _______ _____ _____    ______ ____
ROOT
ATOM      1  N   UNL     1      -6.614  -3.271   2.310  0.00  0.00    +0.384 N 
ATOM      2  C   UNL     1      -6.269  -4.635   1.892  0.00  0.00    -0.076 C 
ATOM      3  C   UNL     1      -5.979  -5.492   3.128  0.00  0.00    +0.017 C 
ATOM      4  C   UNL     1      -7.210  -5.510   4.029  0.00  0.00    +0.112 C 
ATOM      5  C   UNL     1      -7.628  -4.087   4.386  0.00  0.00    +0.017 C 
ATOM      6  C   UNL     1      -7.851  -3.287   3.099  0.00  0.00    -0.076 C 
ATOM      7  C   UNL     1      -6.939  -6.312   5.280  0.00  0.00    +0.247 C 
ATOM      8  O   UNL     1      -6.102  -6.088   6.128  0.00  0.00    -0.273 OA
ATOM      9  N   UNL     1      -7.824  -7.329   5.254  0.00  0.00    -0.220 N 
ATOM     10  C   UNL     1      -8.607  -7.275   4.169  0.00  0.00    +0.312 C 
ATOM     11  O   UNL     1      -9.481  -8.083   3.925  0.00  0.00    -0.252 OA
ATOM     12  N   UNL     1      -8.315  -6.224   3.378  0.00  0.00    -0.271 N 
ATOM     13  H   UNL     1      -5.864  -2.894   2.870  0.00  0.00    -0.081 HD
ENDROOT
BRANCH   1  14
ATOM     14  C   UNL     1      -6.804  -2.430   1.121  0.00  0.00    -0.021 C 
BRANCH  14  18
ATOM     15  C   UNL     1      -3.544  -1.616  -0.213  0.00  0.00    +0.107 A 
ATOM     16  N   UNL     1      -4.524  -1.429   0.629  0.00  0.00    -0.239 NA
ATOM     17  H   UNL     1      -3.332  -2.980  -1.766  0.00  0.00    +0.166 HD
ATOM     18  C   UNL     1      -5.501  -2.312   0.375  0.00  0.00    +0.043 A 
ATOM     19  C   UNL     1      -5.112  -3.075  -0.664  0.00  0.00    +0.105 A 
ATOM     20  N   UNL     1      -3.873  -2.631  -1.041  0.00  0.00    -0.348 N 
BRANCH  15  21
ATOM     21  C   UNL     1      -2.262  -0.826  -0.258  0.00  0.00    +0.074 C 
BRANCH  21  22
ATOM     22  C   UNL     1      -2.584   0.664  -0.382  0.00  0.00    +0.007 C 
BRANCH  22  24
ATOM     23  C   UNL     1      -1.605   2.956  -0.552  0.00  0.00    +0.004 C 
ATOM     24  C   UNL     1      -1.282   1.466  -0.428  0.00  0.00    -0.003 C 
ENDBRANCH  22  24
ENDBRANCH  21  22
ENDBRANCH  15  21
ENDBRANCH  14  18
ENDBRANCH   1  14
BRANCH  12  25
ATOM     25  C   UNL     1      -8.971  -5.865   2.118  0.00  0.00    +0.110 C 
BRANCH  25  26
ATOM     26  C   UNL     1     -10.420  -5.458   2.396  0.00  0.00    +0.022 C 
BRANCH  26  27
ATOM     27  C   UNL     1     -11.066  -4.958   1.102  0.00  0.00    -0.016 C 
ATOM     28  C   UNL     1     -11.154  -6.109   0.098  0.00  0.00    +0.007 C 
ATOM     29  C   UNL     1     -12.472  -4.435   1.403  0.00  0.00    +0.007 C 
ENDBRANCH  26  27
ENDBRANCH  25  26
ENDBRANCH  12  25
BRANCH   9  30
ATOM     30  C   UNL     1      -7.919  -8.365   6.286  0.00  0.00    +0.153 C 
BRANCH  30  31
ATOM     31  C   UNL     1      -8.886  -7.924   7.354  0.00  0.00    -0.026 A 
ATOM     32  C   UNL     1      -8.431  -7.200   8.441  0.00  0.00    +0.005 A 
ATOM     33  C   UNL     1      -9.316  -6.794   9.423  0.00  0.00    +0.004 A 
ATOM     34  C   UNL     1     -10.657  -7.111   9.320  0.00  0.00    +0.045 A 
ATOM     35  C   UNL     1     -11.116  -7.836   8.230  0.00  0.00    +0.120 A 
ATOM     36  C   UNL     1     -10.226  -8.238   7.244  0.00  0.00    +0.050 A 
BRANCH  35  37
ATOM     37  O   UNL     1     -12.434  -8.149   8.127  0.00  0.00    -0.495 OA
ATOM     38  C   UNL     1     -13.292  -7.698   9.177  0.00  0.00    +0.277 C 
ENDBRANCH  35  37
ENDBRANCH  30  31
ENDBRANCH   9  30
TORSDOF 11
