REMARK  Name = ZINC15731193
REMARK  7 active torsions:
REMARK  status: ('A' for Active; 'I' for Inactive)
REMARK    1  A    between atoms: C_1  and  C_2
REMARK    2  A    between atoms: C_9  and  S_15
REMARK    3  A    between atoms: S_15  and  N_18
REMARK    4  A    between atoms: N_18  and  C_19
REMARK    5  A    between atoms: C_19  and  C_20
REMARK    6  A    between atoms: C_23  and  C_25
REMARK    7  A    between atoms: C_25  and  N_60
REMARK                            x       y       z     vdW  Elec       q    Type
REMARK                         _______ _______ _______ _____ _____    ______ ____
ROOT
ATOM      1  S   UNL     1      -8.284   7.880   2.106  0.00  0.00    +0.059 S 
ATOM      2  O   UNL     1      -9.603   7.849   1.577  0.00  0.00    -0.153 OA
ATOM      3  O   UNL     1      -7.931   7.216   3.312  0.00  0.00    -0.153 OA
ENDROOT
BRANCH   1  11
ATOM      4  C   UNL     1      -9.538  16.366   1.268  0.00  0.00    +0.018 C 
ATOM      5  C   UNL     1      -8.556  15.194   1.337  0.00  0.00    +0.082 C 
ATOM      6  C   UNL     1      -8.150  14.986   2.767  0.00  0.00    +0.087 C 
ATOM      7  S   UNL     1      -6.732  13.918   2.967  0.00  0.00    -0.123 S 
ATOM      8  C   UNL     1      -7.234  12.274   2.657  0.00  0.00    +0.029 A 
ATOM      9  C   UNL     1      -6.595  11.274   3.405  0.00  0.00    +0.018 A 
ATOM     10  C   UNL     1      -6.908   9.945   3.250  0.00  0.00    +0.030 A 
ATOM     11  C   UNL     1      -7.870   9.578   2.326  0.00  0.00    +0.107 A 
ATOM     12  C   UNL     1      -8.505  10.546   1.586  0.00  0.00    +0.053 A 
ATOM     13  C   UNL     1      -8.204  11.910   1.737  0.00  0.00    +0.049 A 
ATOM     14  N   UNL     1      -8.922  12.746   0.922  0.00  0.00    -0.284 N 
ATOM     15  C   UNL     1      -9.203  13.989   0.751  0.00  0.00    +0.221 C 
ATOM     16  O   UNL     1     -10.130  14.212   0.002  0.00  0.00    -0.275 OA
ATOM     17  H   UNL     1      -9.372  12.220   0.242  0.00  0.00    +0.155 HD
ENDBRANCH   1  11
BRANCH   1  18
ATOM     18  N   UNL     1      -7.287   7.282   0.927  0.00  0.00    -0.183 NA
ATOM     19  H   UNL     1      -7.660   6.982   0.083  0.00  0.00    +0.148 HD
BRANCH  18  20
ATOM     20  C   UNL     1      -5.843   7.206   1.158  0.00  0.00    +0.180 C 
BRANCH  20  21
ATOM     21  C   UNL     1      -5.214   6.311   0.121  0.00  0.00    +0.121 A 
ATOM     22  C   UNL     1      -4.737   6.704  -1.073  0.00  0.00    +0.046 A 
ATOM     23  C   UNL     1      -4.243   5.547  -1.718  0.00  0.00    +0.043 A 
ATOM     24  C   UNL     1      -4.448   4.515  -0.879  0.00  0.00    +0.089 A 
ATOM     25  O   UNL     1      -5.042   4.983   0.231  0.00  0.00    -0.465 OA
BRANCH  24  26
ATOM     26  C   UNL     1      -4.080   3.078  -1.143  0.00  0.00    -0.003 C 
BRANCH  26  33
ATOM     27  C   UNL     1      -2.232   1.506  -1.110  0.00  0.00    -0.078 C 
ATOM     28  C   UNL     1      -0.733   1.583  -1.257  0.00  0.00    -0.019 C 
ATOM     29  C   UNL     1      -0.013   1.086   0.008  0.00  0.00    -0.002 C 
ATOM     30  C   UNL     1      -0.710   1.571   1.295  0.00  0.00    -0.002 C 
ATOM     31  C   UNL     1      -1.159   3.006   1.206  0.00  0.00    -0.019 C 
ATOM     32  C   UNL     1      -2.623   3.045   0.717  0.00  0.00    -0.078 C 
ATOM     33  N   UNL     1      -2.693   2.865  -0.690  0.00  0.00    +0.384 N 
ATOM     34  H   UNL     1      -2.087   3.565  -1.135  0.00  0.00    -0.081 HD
ENDBRANCH  26  33
ENDBRANCH  24  26
ENDBRANCH  20  21
ENDBRANCH  18  20
ENDBRANCH   1  18
TORSDOF 6
