REMARK  Name = ZINC36346293
REMARK  14 active torsions:
REMARK  status: ('A' for Active; 'I' for Inactive)
REMARK    1  A    between atoms: C_1  and  C_2
REMARK    2  A    between atoms: C_3  and  C_21
REMARK    3  A    between atoms: C_4  and  O_13
REMARK    4  A    between atoms: N_5  and  C_7
REMARK    5  A    between atoms: O_13  and  C_14
REMARK    6  A    between atoms: C_21  and  N_22
REMARK    7  A    between atoms: N_22  and  C_23
REMARK    8  A    between atoms: N_22  and  C_34
REMARK    9  A    between atoms: C_23  and  C_24
REMARK   10  A    between atoms: C_24  and  C_26
REMARK   11  A    between atoms: C_24  and  O_33
REMARK   12  A    between atoms: C_26  and  C_27
REMARK   13  A    between atoms: C_34  and  C_35
REMARK   14  A    between atoms: C_34  and  C_36
REMARK                            x       y       z     vdW  Elec       q    Type
REMARK                         _______ _______ _______ _____ _____    ______ ____
ROOT
ATOM      1  C   UNL     1       2.812   2.484  -0.957  0.00  0.00    +0.068 C 
ATOM      2  C   UNL     1       1.995   1.442  -0.238  0.00  0.00    +0.065 A 
ATOM      3  C   UNL     1       1.137   0.517  -0.841  0.00  0.00    +0.021 A 
ATOM      4  C   UNL     1       0.588  -0.246   0.141  0.00  0.00    +0.225 A 
ATOM      5  N   UNL     1       1.091   0.191   1.327  0.00  0.00    -0.200 N 
ATOM      6  N   UNL     1       1.973   1.245   1.055  0.00  0.00    -0.168 NA
ENDROOT
BRANCH   5   7
ATOM      7  C   UNL     1       0.785  -0.324   2.594  0.00  0.00    +0.069 A 
ATOM      8  C   UNL     1      -0.524  -0.656   2.913  0.00  0.00    +0.028 A 
ATOM      9  C   UNL     1      -0.822  -1.164   4.162  0.00  0.00    +0.002 A 
ATOM     10  C   UNL     1       0.182  -1.341   5.096  0.00  0.00    +0.000 A 
ATOM     11  C   UNL     1       1.488  -1.011   4.781  0.00  0.00    +0.002 A 
ATOM     12  C   UNL     1       1.793  -0.509   3.532  0.00  0.00    +0.028 A 
ENDBRANCH   5   7
BRANCH   4  13
ATOM     13  O   UNL     1      -0.299  -1.259  -0.029  0.00  0.00    -0.438 OA
BRANCH  13  14
ATOM     14  C   UNL     1      -1.619  -0.944  -0.108  0.00  0.00    +0.133 A 
ATOM     15  C   UNL     1      -2.030   0.371   0.058  0.00  0.00    +0.046 A 
ATOM     16  C   UNL     1      -3.372   0.690  -0.023  0.00  0.00    +0.006 A 
ATOM     17  C   UNL     1      -4.306  -0.300  -0.269  0.00  0.00    +0.038 A 
ATOM     18  C   UNL     1      -3.899  -1.613  -0.435  0.00  0.00    +0.127 A 
ATOM     19  C   UNL     1      -2.555  -1.936  -0.361  0.00  0.00    +0.084 A 
ATOM     20  F   UNL     1      -4.813  -2.578  -0.675  0.00  0.00    -0.205 F 
ENDBRANCH  13  14
ENDBRANCH   4  13
BRANCH   3  21
ATOM     21  C   UNL     1       0.868   0.389  -2.318  0.00  0.00    -0.035 C 
BRANCH  21  22
ATOM     22  N   UNL     1       2.120   0.073  -3.019  0.00  0.00    +0.386 N 
ATOM     23  H   UNL     1       2.836   0.727  -2.739  0.00  0.00    -0.081 HD
BRANCH  22  24
ATOM     24  C   UNL     1       2.542  -1.292  -2.677  0.00  0.00    -0.074 C 
ATOM     25  C   UNL     1       2.934  -1.349  -1.199  0.00  0.00    -0.014 C 
ATOM     26  C   UNL     1       1.388  -2.262  -2.938  0.00  0.00    -0.014 C 
ENDBRANCH  22  24
BRANCH  22  27
ATOM     27  C   UNL     1       1.908   0.172  -4.469  0.00  0.00    -0.046 C 
BRANCH  27  28
ATOM     28  C   UNL     1       3.244  -0.003  -5.193  0.00  0.00    +0.102 C 
BRANCH  28  29
ATOM     29  O   UNL     1       4.141   1.035  -4.793  0.00  0.00    -0.393 OA
ATOM     30  H   UNL     1       3.824   1.927  -4.990  0.00  0.00    +0.210 HD
ENDBRANCH  28  29
BRANCH  28  31
ATOM     31  C   UNL     1       3.019   0.072  -6.705  0.00  0.00    +0.064 C 
BRANCH  31  32
ATOM     32  C   UNL     1       4.312  -0.221  -7.420  0.00  0.00    -0.045 A 
ATOM     33  C   UNL     1       5.182   0.809  -7.726  0.00  0.00    +0.004 A 
ATOM     34  C   UNL     1       6.369   0.540  -8.383  0.00  0.00    +0.000 A 
ATOM     35  C   UNL     1       6.686  -0.759  -8.733  0.00  0.00    +0.000 A 
ATOM     36  C   UNL     1       5.816  -1.790  -8.426  0.00  0.00    +0.000 A 
ATOM     37  C   UNL     1       4.632  -1.521  -7.766  0.00  0.00    +0.004 A 
ENDBRANCH  31  32
ENDBRANCH  28  31
ENDBRANCH  27  28
ENDBRANCH  22  27
ENDBRANCH  21  22
ENDBRANCH   3  21
TORSDOF 11
