REMARK  Name = ZINC09411640
REMARK  9 active torsions:
REMARK  status: ('A' for Active; 'I' for Inactive)
REMARK    1  A    between atoms: C_1  and  C_2
REMARK    2  A    between atoms: C_2  and  C_3
REMARK    3  A    between atoms: C_3  and  C_33
REMARK    4  A    between atoms: N_6  and  C_10
REMARK    5  A    between atoms: C_10  and  C_11
REMARK    6  A    between atoms: C_18  and  C_19
REMARK    7  A    between atoms: C_18  and  C_26
REMARK    8  A    between atoms: C_18  and  N_65
REMARK    9  A    between atoms: C_33  and  C_34
REMARK                            x       y       z     vdW  Elec       q    Type
REMARK                         _______ _______ _______ _____ _____    ______ ____
ROOT
ATOM      1  C   UNL     1       5.412   1.131  -0.113  0.00  0.00    +0.233 C 
ATOM      2  O   UNL     1       6.003   0.875   0.915  0.00  0.00    -0.274 OA
ATOM      3  N   UNL     1       4.151   1.605  -0.065  0.00  0.00    -0.304 N 
ATOM      4  C   UNL     1       3.474   1.820   1.223  0.00  0.00    +0.089 C 
ATOM      5  C   UNL     1       2.108   1.127   1.176  0.00  0.00    -0.058 C 
ATOM      6  C   UNL     1       2.053   1.225  -1.247  0.00  0.00    -0.058 C 
ATOM      7  C   UNL     1       3.417   1.923  -1.299  0.00  0.00    +0.089 C 
ATOM      8  N   UNL     1       1.363   1.625  -0.001  0.00  0.00    +0.389 N 
ATOM      9  H   UNL     1       1.320   2.650   0.042  0.00  0.00    -0.080 HD
ENDROOT
BRANCH   1  10
ATOM     10  C   UNL     1       6.087   0.919  -1.443  0.00  0.00    +0.213 C 
BRANCH  10  14
ATOM     11  C   UNL     1       9.692   0.219  -0.884  0.00  0.00    +0.112 C 
ATOM     12  C   UNL     1       8.534   1.176  -1.087  0.00  0.00    +0.247 C 
ATOM     13  O   UNL     1       8.582   2.387  -1.115  0.00  0.00    -0.273 OA
ATOM     14  N   UNL     1       7.441   0.401  -1.226  0.00  0.00    -0.215 N 
ATOM     15  C   UNL     1       7.744  -0.899  -1.149  0.00  0.00    +0.310 C 
ATOM     16  O   UNL     1       6.925  -1.792  -1.250  0.00  0.00    -0.252 OA
ATOM     17  N   UNL     1       9.058  -1.109  -0.947  0.00  0.00    -0.285 N 
ATOM     18  H   UNL     1       9.501  -1.968  -0.860  0.00  0.00    +0.151 HD
BRANCH  11  20
ATOM     19  C   UNL     1       9.313   0.206   1.585  0.00  0.00    +0.006 C 
ATOM     20  C   UNL     1      10.346   0.439   0.481  0.00  0.00    +0.032 C 
ENDBRANCH  11  20
BRANCH  11  21
ATOM     21  C   UNL     1      10.719   0.378  -2.007  0.00  0.00    +0.032 C 
ATOM     22  C   UNL     1      10.026   0.207  -3.360  0.00  0.00    +0.006 C 
ENDBRANCH  11  21
ENDBRANCH  10  14
ENDBRANCH   1  10
BRANCH   8  23
ATOM     23  C   UNL     1      -0.013   1.086   0.008  0.00  0.00    -0.007 C 
BRANCH  23  24
ATOM     24  C   UNL     1      -0.742   1.585  -1.213  0.00  0.00    -0.057 A 
ATOM     25  C   UNL     1      -0.551   2.883  -1.648  0.00  0.00    +0.005 A 
ATOM     26  C   UNL     1      -1.215   3.341  -2.771  0.00  0.00    +0.038 A 
ATOM     27  C   UNL     1      -2.080   2.501  -3.453  0.00  0.00    +0.123 A 
ATOM     28  C   UNL     1      -2.274   1.203  -3.013  0.00  0.00    +0.038 A 
ATOM     29  C   UNL     1      -1.605   0.746  -1.893  0.00  0.00    +0.005 A 
ATOM     30  F   UNL     1      -2.733   2.949  -4.547  0.00  0.00    -0.205 F 
ENDBRANCH  23  24
BRANCH  23  31
ATOM     31  C   UNL     1      -0.718   1.572   1.248  0.00  0.00    -0.057 A 
ATOM     32  C   UNL     1      -0.510   2.862   1.700  0.00  0.00    +0.005 A 
ATOM     33  C   UNL     1      -1.160   3.310   2.834  0.00  0.00    +0.038 A 
ATOM     34  C   UNL     1      -2.012   2.463   3.524  0.00  0.00    +0.123 A 
ATOM     35  C   UNL     1      -2.215   1.170   3.073  0.00  0.00    +0.038 A 
ATOM     36  C   UNL     1      -1.568   0.726   1.935  0.00  0.00    +0.005 A 
ATOM     37  F   UNL     1      -2.644   2.899   4.635  0.00  0.00    -0.205 F 
ENDBRANCH  23  31
ENDBRANCH   8  23
TORSDOF 7
