REMARK  Name = ZINC30777630
REMARK  7 active torsions:
REMARK  status: ('A' for Active; 'I' for Inactive)
REMARK    1  A    between atoms: C_3  and  N_13
REMARK    2  A    between atoms: C_4  and  N_10
REMARK    3  A    between atoms: C_6  and  C_7
REMARK    4  A    between atoms: N_13  and  C_14
REMARK    5  A    between atoms: C_14  and  C_15
REMARK    6  A    between atoms: C_15  and  C_17
REMARK    7  A    between atoms: C_15  and  O_21
REMARK                            x       y       z     vdW  Elec       q    Type
REMARK                         _______ _______ _______ _____ _____    ______ ____
ROOT
ATOM      1  C   UNL     1      -1.202   1.729  -0.020  0.00  0.00    +0.015 A 
ATOM      2  C   UNL     1      -0.002   1.107  -0.276  0.00  0.00    +0.026 A 
ATOM      3  C   UNL     1       1.182   1.838  -0.251  0.00  0.00    +0.058 A 
ATOM      4  C   UNL     1       1.157   3.200   0.041  0.00  0.00    +0.148 A 
ATOM      5  C   UNL     1      -0.040   3.826   0.304  0.00  0.00    +0.047 A 
ATOM      6  C   UNL     1      -1.231   3.094   0.279  0.00  0.00    +0.039 A 
ENDROOT
BRANCH   6   7
ATOM      7  C   UNL     1      -2.515   3.763   0.561  0.00  0.00    +0.242 C 
ATOM      8  O   UNL     1      -2.539   4.951   0.817  0.00  0.00    -0.270 OA
ATOM      9  N   UNL     1      -3.662   3.056   0.536  0.00  0.00    -0.325 N 
ATOM     10  H   UNL     1      -4.620   3.554   0.747  0.00  0.00    +0.145 HD
ATOM     11  H   UNL     1      -3.641   1.980   0.305  0.00  0.00    +0.145 HD
ENDBRANCH   6   7
BRANCH   4  12
ATOM     12  N   UNL     1       2.418   3.974   0.068  0.00  0.00    +0.058 N 
ATOM     13  O   UNL     1       3.434   3.467   0.509  0.00  0.00    -0.126 OA
ATOM     14  O   UNL     1       2.440   5.117  -0.352  0.00  0.00    -0.126 OA
ENDBRANCH   4  12
BRANCH   3  15
ATOM     15  N   UNL     1       2.393   1.208  -0.516  0.00  0.00    -0.339 N 
ATOM     16  H   UNL     1       3.317   1.801  -0.592  0.00  0.00    +0.146 HD
BRANCH  15  17
ATOM     17  C   UNL     1       2.439  -0.245  -0.695  0.00  0.00    +0.142 C 
BRANCH  17  18
ATOM     18  C   UNL     1       3.879  -0.680  -0.973  0.00  0.00    +0.235 C 
BRANCH  18  19
ATOM     19  C   UNL     1       3.909  -2.178  -1.283  0.00  0.00    +0.417 C 
ATOM     20  F   UNL     1       3.118  -2.437  -2.407  0.00  0.00    -0.168 F 
ATOM     21  F   UNL     1       5.226  -2.575  -1.538  0.00  0.00    -0.168 F 
ATOM     22  F   UNL     1       3.410  -2.890  -0.187  0.00  0.00    -0.168 F 
ENDBRANCH  18  19
BRANCH  18  23
ATOM     23  O   UNL     1       4.687  -0.414   0.175  0.00  0.00    -0.381 OA
ATOM     24  H   UNL     1       5.759  -0.662   0.162  0.00  0.00    +0.210 HD
ENDBRANCH  18  23
ENDBRANCH  17  18
ENDBRANCH  15  17
ENDBRANCH   3  15
TORSDOF 7
