REMARK  Name = ZINC33502029
REMARK  9 active torsions:
REMARK  status: ('A' for Active; 'I' for Inactive)
REMARK    1  A    between atoms: C_1  and  C_2
REMARK    2  A    between atoms: C_2  and  C_3
REMARK    3  A    between atoms: C_3  and  C_4
REMARK    4  A    between atoms: C_4  and  C_6
REMARK    5  A    between atoms: C_4  and  N_24
REMARK    6  A    between atoms: N_12  and  C_20
REMARK    7  A    between atoms: C_15  and  C_18
REMARK    8  A    between atoms: C_18  and  C_19
REMARK    9  A    between atoms: C_20  and  C_21
REMARK                            x       y       z     vdW  Elec       q    Type
REMARK                         _______ _______ _______ _____ _____    ______ ____
ROOT
ATOM      1  C   UNL     1      -1.242   3.135   0.030  0.00  0.00    -0.060 A 
ATOM      2  C   UNL     1      -1.219   1.752   0.017  0.00  0.00    +0.005 A 
ATOM      3  C   UNL     1      -0.013   1.076   0.008  0.00  0.00    +0.048 A 
ATOM      4  C   UNL     1       1.176   1.785   0.000  0.00  0.00    +0.143 A 
ATOM      5  C   UNL     1       1.153   3.178   0.018  0.00  0.00    +0.079 A 
ATOM      6  C   UNL     1      -0.059   3.850   0.027  0.00  0.00    +0.029 A 
ATOM      7  N   UNL     1       2.361   3.888   0.033  0.00  0.00    -0.256 N 
ATOM      8  C   UNL     1       3.514   3.222   0.252  0.00  0.00    +0.261 C 
ATOM      9  O   UNL     1       4.577   3.799   0.162  0.00  0.00    -0.271 OA
ATOM     10  C   UNL     1       3.475   1.757   0.609  0.00  0.00    +0.259 C 
ATOM     11  O   UNL     1       2.368   1.132  -0.044  0.00  0.00    -0.478 OA
ENDROOT
BRANCH  10  12
ATOM     12  C   UNL     1       3.323   1.607   2.124  0.00  0.00    +0.051 C 
ATOM     13  C   UNL     1       3.409   0.126   2.501  0.00  0.00    +0.008 C 
ENDBRANCH  10  12
BRANCH   1  14
ATOM     14  C   UNL     1      -2.561   3.864   0.040  0.00  0.00    -0.044 C 
BRANCH  14  15
ATOM     15  N   UNL     1      -3.498   3.168   0.932  0.00  0.00    +0.383 N 
ATOM     16  H   UNL     1      -3.085   3.143   1.951  0.00  0.00    -0.089 HD
ATOM     17  H   UNL     1      -3.651   2.139   0.573  0.00  0.00    -0.089 HD
ATOM     18  H   UNL     1      -4.461   3.700   0.939  0.00  0.00    -0.089 HD
ENDBRANCH  14  15
BRANCH  14  19
ATOM     19  C   UNL     1      -3.136   3.898  -1.377  0.00  0.00    -0.012 C 
BRANCH  19  21
ATOM     20  C   UNL     1      -4.985   4.779  -2.808  0.00  0.00    +0.004 C 
ATOM     21  C   UNL     1      -4.410   4.745  -1.390  0.00  0.00    -0.005 C 
ENDBRANCH  19  21
ENDBRANCH  14  19
ENDBRANCH   1  14
BRANCH   7  22
ATOM     22  C   UNL     1       2.373   5.337  -0.186  0.00  0.00    +0.209 C 
BRANCH  22  23
ATOM     23  C   UNL     1       2.233   6.046   1.137  0.00  0.00    +0.228 C 
ATOM     24  O   UNL     1       2.135   5.404   2.161  0.00  0.00    -0.274 OA
ATOM     25  N   UNL     1       2.219   7.393   1.181  0.00  0.00    -0.328 N 
ATOM     26  H   UNL     1       2.118   7.910   2.146  0.00  0.00    +0.145 HD
ATOM     27  H   UNL     1       2.309   7.975   0.252  0.00  0.00    +0.145 HD
ENDBRANCH  22  23
ENDBRANCH   7  22
TORSDOF 7
