REMARK  Name = ZINC33273269
REMARK  5 active torsions:
REMARK  status: ('A' for Active; 'I' for Inactive)
REMARK    1  A    between atoms: C_6  and  S_7
REMARK    2  A    between atoms: S_7  and  N_10
REMARK    3  A    between atoms: C_13  and  C_16
REMARK    4  A    between atoms: C_19  and  C_21
REMARK    5  A    between atoms: N_23  and  C_24
REMARK                            x       y       z     vdW  Elec       q    Type
REMARK                         _______ _______ _______ _____ _____    ______ ____
ROOT
ATOM      1  C   UNL     1      -4.859  -0.237   0.315  0.00  0.00    +0.106 A 
ATOM      2  N   UNL     1      -3.779  -0.998   0.320  0.00  0.00    -0.146 NA
ATOM      3  N   UNL     1      -2.617  -0.512   0.233  0.00  0.00    -0.136 NA
ATOM      4  C   UNL     1      -2.446   0.803   0.130  0.00  0.00    +0.187 A 
ATOM      5  S   UNL     1      -4.150   1.345   0.176  0.00  0.00    -0.046 S 
ENDROOT
BRANCH   1   9
ATOM      6  N   UNL     1      -8.423  -2.498   0.639  0.00  0.00    -0.177 NA
ATOM      7  C   UNL     1      -8.151  -1.919  -0.684  0.00  0.00    +0.110 C 
ATOM      8  C   UNL     1      -6.667  -1.548  -0.764  0.00  0.00    +0.027 C 
ATOM      9  C   UNL     1      -6.310  -0.631   0.409  0.00  0.00    +0.049 C 
ATOM     10  C   UNL     1      -6.553  -1.370   1.727  0.00  0.00    +0.027 C 
ATOM     11  C   UNL     1      -8.036  -1.739   1.836  0.00  0.00    +0.110 C 
BRANCH   6  12
ATOM     12  S   UNL     1      -9.151  -3.979   0.778  0.00  0.00    +0.061 S 
ATOM     13  O   UNL     1      -9.767  -4.010   2.058  0.00  0.00    -0.153 OA
ATOM     14  O   UNL     1      -9.880  -4.188  -0.424  0.00  0.00    -0.153 OA
BRANCH  12  20
ATOM     15  C   UNL     1      -7.426  -5.753  -0.374  0.00  0.00    +0.030 A 
ATOM     16  C   UNL     1      -6.417  -6.698  -0.353  0.00  0.00    +0.022 A 
ATOM     17  C   UNL     1      -5.860  -7.087   0.852  0.00  0.00    +0.041 A 
ATOM     18  C   UNL     1      -6.309  -6.526   2.035  0.00  0.00    +0.022 A 
ATOM     19  C   UNL     1      -7.314  -5.577   2.011  0.00  0.00    +0.030 A 
ATOM     20  C   UNL     1      -7.870  -5.189   0.807  0.00  0.00    +0.106 A 
ATOM     21 CL   UNL     1      -4.598  -8.278   0.881  0.00  0.00    -0.084 Cl
ENDBRANCH  12  20
ENDBRANCH   6  12
ENDBRANCH   1   9
BRANCH   4  22
ATOM     22  C   UNL     1      -1.206   1.589   0.017  0.00  0.00    +0.275 C 
ATOM     23  O   UNL     1      -1.260   2.801  -0.067  0.00  0.00    -0.268 OA
ATOM     24  N   UNL     1      -0.011   0.966   0.007  0.00  0.00    -0.280 N 
ATOM     25  H   UNL     1       0.036  -0.133   0.011  0.00  0.00    +0.155 HD
BRANCH  24  26
ATOM     26  C   UNL     1       1.170   1.717  -0.008  0.00  0.00    +0.037 A 
ATOM     27  C   UNL     1       1.223   2.914  -0.709  0.00  0.00    +0.027 A 
ATOM     28  C   UNL     1       2.386   3.659  -0.721  0.00  0.00    +0.051 A 
ATOM     29  C   UNL     1       3.507   3.209  -0.042  0.00  0.00    +0.166 A 
ATOM     30  C   UNL     1       3.459   2.005   0.657  0.00  0.00    +0.168 A 
ATOM     31  C   UNL     1       2.291   1.262   0.673  0.00  0.00    +0.072 A 
ATOM     32  O   UNL     1       4.678   1.787   1.233  0.00  0.00    -0.453 OA
ATOM     33  C   UNL     1       5.591   2.660   0.544  0.00  0.00    +0.466 C 
ATOM     34  O   UNL     1       4.756   3.744   0.096  0.00  0.00    -0.453 OA
ENDBRANCH  24  26
ENDBRANCH   4  22
TORSDOF 5
