REMARK  Name = ZINC20374845
REMARK  2 active torsions:
REMARK  status: ('A' for Active; 'I' for Inactive)
REMARK    1  A    between atoms: C_3  and  N_22
REMARK    2  A    between atoms: C_4  and  C_8
REMARK                            x       y       z     vdW  Elec       q    Type
REMARK                         _______ _______ _______ _____ _____    ______ ____
ROOT
ATOM      1  C   UNL     1      -0.429  -2.143   0.028  0.00  0.00    +0.141 A 
ATOM      2  N   UNL     1       0.937  -2.034   0.053  0.00  0.00    -0.338 N 
ATOM      3  H   UNL     1       1.561  -2.939   0.063  0.00  0.00    +0.167 HD
ATOM      4  C   UNL     1       1.238  -0.683   0.062  0.00  0.00    +0.070 A 
ATOM      5  C   UNL     1       2.425   0.035   0.087  0.00  0.00    +0.077 A 
ATOM      6  C   UNL     1       2.397   1.419   0.090  0.00  0.00    +0.164 A 
ATOM      7  C   UNL     1       1.177   2.096   0.067  0.00  0.00    +0.164 A 
ATOM      8  C   UNL     1      -0.010   1.392   0.042  0.00  0.00    +0.079 A 
ATOM      9  C   UNL     1       0.007  -0.006   0.040  0.00  0.00    +0.093 A 
ATOM     10  N   UNL     1      -0.969  -0.948   0.020  0.00  0.00    -0.228 NA
ATOM     11  O   UNL     1       1.139   3.458   0.063  0.00  0.00    -0.485 OA
ATOM     12  C   UNL     1       2.333   4.136   0.469  0.00  0.00    +0.270 C 
ATOM     13  C   UNL     1       3.523   3.486  -0.250  0.00  0.00    +0.270 C 
ATOM     14  O   UNL     1       3.573   2.105   0.122  0.00  0.00    -0.485 OA
ENDROOT
BRANCH   1  18
ATOM     15  C   UNL     1      -2.590  -5.804  -0.018  0.00  0.00    +0.022 A 
ATOM     16  C   UNL     1      -3.273  -4.610   0.101  0.00  0.00    +0.025 A 
ATOM     17  C   UNL     1      -2.578  -3.409   0.117  0.00  0.00    +0.035 A 
ATOM     18  C   UNL     1      -1.179  -3.415   0.012  0.00  0.00    +0.039 A 
ATOM     19  C   UNL     1      -0.501  -4.628  -0.113  0.00  0.00    +0.033 A 
ATOM     20  C   UNL     1      -1.208  -5.814  -0.122  0.00  0.00    +0.042 A 
ATOM     21 CL   UNL     1      -0.362  -7.322  -0.271  0.00  0.00    -0.084 Cl
BRANCH  17  22
ATOM     22  N   UNL     1      -3.266  -2.204   0.237  0.00  0.00    -0.357 N 
ATOM     23  H   UNL     1      -2.712  -1.254   0.250  0.00  0.00    +0.142 HD
ATOM     24  H   UNL     1      -4.363  -2.203   0.320  0.00  0.00    +0.142 HD
ENDBRANCH  17  22
ENDBRANCH   1  18
TORSDOF 2
