REMARK  Name = ZINC61420061
REMARK  4 active torsions:
REMARK  status: ('A' for Active; 'I' for Inactive)
REMARK    1  A    between atoms: C_1  and  C_2
REMARK    2  A    between atoms: C_2  and  C_3
REMARK    3  A    between atoms: C_2  and  S_15
REMARK    4  A    between atoms: S_15  and  C_16
REMARK                            x       y       z     vdW  Elec       q    Type
REMARK                         _______ _______ _______ _____ _____    ______ ____
ROOT
ATOM      1  C   UNL     1      -0.019   1.526   0.010  0.00  0.00    +0.027 C 
ATOM      2  C   UNL     1       0.002  -0.004   0.002  0.00  0.00    +0.119 C 
ENDROOT
BRANCH   2   3
ATOM      3  C   UNL     1       0.731  -0.503   1.223  0.00  0.00    +0.124 A 
ATOM      4  N   UNL     1       2.054  -0.793   1.110  0.00  0.00    -0.309 N 
ATOM      5  H   UNL     1       2.501  -0.675   0.258  0.00  0.00    +0.170 HD
ATOM      6  C   UNL     1       2.753  -1.244   2.178  0.00  0.00    +0.259 A 
ATOM      7  O   UNL     1       3.939  -1.506   2.091  0.00  0.00    -0.267 OA
ATOM      8  C   UNL     1       2.026  -1.404   3.445  0.00  0.00    +0.065 A 
ATOM      9  C   UNL     1       2.653  -1.862   4.602  0.00  0.00    +0.015 A 
ATOM     10  C   UNL     1       1.923  -1.994   5.763  0.00  0.00    +0.001 A 
ATOM     11  C   UNL     1       0.572  -1.675   5.788  0.00  0.00    +0.002 A 
ATOM     12  C   UNL     1      -0.067  -1.221   4.656  0.00  0.00    +0.028 A 
ATOM     13  C   UNL     1       0.652  -1.079   3.467  0.00  0.00    +0.078 A 
ATOM     14  N   UNL     1       0.064  -0.630   2.330  0.00  0.00    -0.233 NA
ENDBRANCH   2   3
BRANCH   2  15
ATOM     15  S   UNL     1       0.851  -0.589  -1.490  0.00  0.00    -0.056 S 
BRANCH  15  16
ATOM     16  C   UNL     1      -0.189  -0.057  -2.809  0.00  0.00    +0.259 A 
ATOM     17  N   UNL     1      -1.305   0.612  -2.662  0.00  0.00    -0.203 NA
ATOM     18  C   UNL     1      -1.837   0.850  -3.891  0.00  0.00    +0.112 A 
ATOM     19  C   UNL     1      -2.989   1.504  -4.333  0.00  0.00    +0.051 A 
ATOM     20  C   UNL     1      -3.257   1.578  -5.683  0.00  0.00    +0.043 A 
ATOM     21  C   UNL     1      -2.390   1.008  -6.603  0.00  0.00    +0.024 A 
ATOM     22  C   UNL     1      -1.248   0.359  -6.179  0.00  0.00    +0.050 A 
ATOM     23  C   UNL     1      -0.963   0.275  -4.826  0.00  0.00    +0.156 A 
ATOM     24  O   UNL     1       0.050  -0.273  -4.115  0.00  0.00    -0.431 OA
ATOM     25 CL   UNL     1      -4.689   2.391  -6.235  0.00  0.00    -0.083 Cl
ENDBRANCH  15  16
ENDBRANCH   2  15
TORSDOF 3
