REMARK  Name = ZINC20276248
REMARK  6 active torsions:
REMARK  status: ('A' for Active; 'I' for Inactive)
REMARK    1  A    between atoms: C_1  and  C_2
REMARK    2  A    between atoms: C_2  and  C_3
REMARK    3  A    between atoms: C_2  and  C_4
REMARK    4  A    between atoms: N_8  and  C_17
REMARK    5  A    between atoms: C_12  and  N_16
REMARK    6  A    between atoms: C_17  and  C_18
REMARK                            x       y       z     vdW  Elec       q    Type
REMARK                         _______ _______ _______ _____ _____    ______ ____
ROOT
ATOM      1  C   UNL     1       1.020  -0.555  -0.744  0.00  0.00    +0.262 C 
ATOM      2  C   UNL     1       2.339   0.074  -0.375  0.00  0.00    +0.261 C 
ATOM      3  O   UNL     1       3.357  -0.585  -0.406  0.00  0.00    -0.271 OA
ATOM      4  N   UNL     1       2.382   1.373  -0.010  0.00  0.00    -0.261 N 
ATOM      5  C   UNL     1       1.183   2.103   0.052  0.00  0.00    +0.079 A 
ATOM      6  C   UNL     1       1.201   3.487   0.106  0.00  0.00    +0.029 A 
ATOM      7  C   UNL     1       0.012   4.189   0.169  0.00  0.00    +0.025 A 
ATOM      8  C   UNL     1      -1.200   3.510   0.176  0.00  0.00    +0.028 A 
ATOM      9  C   UNL     1      -1.220   2.122   0.116  0.00  0.00    +0.070 A 
ATOM     10  C   UNL     1      -0.031   1.418   0.059  0.00  0.00    +0.145 A 
ATOM     11  O   UNL     1      -0.032   0.059   0.004  0.00  0.00    -0.477 OA
ENDROOT
BRANCH   1  13
ATOM     12  C   UNL     1      -0.574  -1.000  -2.616  0.00  0.00    +0.011 C 
ATOM     13  C   UNL     1       0.763  -0.358  -2.240  0.00  0.00    +0.033 C 
ATOM     14  C   UNL     1       0.718   1.138  -2.557  0.00  0.00    +0.011 C 
ENDBRANCH   1  13
BRANCH   8  15
ATOM     15  N   UNL     1      -2.401   4.224   0.239  0.00  0.00    -0.358 N 
ATOM     16  H   UNL     1      -3.360   3.686   0.246  0.00  0.00    +0.142 HD
ATOM     17  H   UNL     1      -2.385   5.323   0.283  0.00  0.00    +0.142 HD
ENDBRANCH   8  15
BRANCH   4  18
ATOM     18  C   UNL     1       3.659   2.012   0.317  0.00  0.00    +0.150 C 
BRANCH  18  19
ATOM     19  C   UNL     1       3.851   2.016   1.812  0.00  0.00    -0.011 A 
ATOM     20  C   UNL     1       3.463   3.116   2.555  0.00  0.00    +0.006 A 
ATOM     21  C   UNL     1       3.634   3.118   3.927  0.00  0.00    +0.000 A 
ATOM     22  C   UNL     1       4.202   2.025   4.555  0.00  0.00    +0.001 A 
ATOM     23  C   UNL     1       4.595   0.928   3.813  0.00  0.00    +0.020 A 
ATOM     24  C   UNL     1       4.419   0.923   2.440  0.00  0.00    +0.046 A 
ATOM     25 CL   UNL     1       4.913  -0.455   1.506  0.00  0.00    -0.083 Cl
ENDBRANCH  18  19
ENDBRANCH   4  18
TORSDOF 4
