REMARK  Name = ZINC39666848
REMARK  11 active torsions:
REMARK  status: ('A' for Active; 'I' for Inactive)
REMARK    1  A    between atoms: C_1  and  C_2
REMARK    2  A    between atoms: C_2  and  C_3
REMARK    3  A    between atoms: C_3  and  C_4
REMARK    4  A    between atoms: C_3  and  C_6
REMARK    5  A    between atoms: C_4  and  C_5
REMARK    6  A    between atoms: C_6  and  N_7
REMARK    7  A    between atoms: C_8  and  C_10
REMARK    8  A    between atoms: C_21  and  C_23
REMARK    9  A    between atoms: C_28  and  O_29
REMARK   10  A    between atoms: O_29  and  C_30
REMARK   11  A    between atoms: C_33  and  C_36
REMARK                            x       y       z     vdW  Elec       q    Type
REMARK                         _______ _______ _______ _____ _____    ______ ____
ROOT
ATOM      1  C   UNL     1      -0.070  -4.156   3.105  0.00  0.00    +0.100 C 
ATOM      2  C   UNL     1      -0.538  -3.638   4.483  0.00  0.00    +0.121 C 
ATOM      3  N   UNL     1      -1.409  -4.715   5.012  0.00  0.00    -0.296 N 
ATOM      4  C   UNL     1      -0.726  -5.969   4.614  0.00  0.00    +0.115 C 
ATOM      5  C   UNL     1      -0.191  -5.686   3.196  0.00  0.00    -0.004 C 
ATOM      6  C   UNL     1      -1.175  -6.202   2.150  0.00  0.00    -0.010 C 
ATOM      7  C   UNL     1      -1.235  -7.730   2.223  0.00  0.00    -0.082 C 
ATOM      8  N   UNL     1       0.102  -8.287   1.983  0.00  0.00    +0.379 N 
ATOM      9  C   UNL     1       1.020  -7.860   3.046  0.00  0.00    -0.082 C 
ATOM     10  C   UNL     1       1.176  -6.338   3.008  0.00  0.00    -0.010 C 
ATOM     11  C   UNL     1      -2.561  -4.583   5.699  0.00  0.00    +0.252 C 
ATOM     12  O   UNL     1      -3.113  -5.566   6.154  0.00  0.00    -0.270 OA
ATOM     13  H   UNL     1       0.048  -9.294   1.971  0.00  0.00    -0.086 HD
ATOM     14  H   UNL     1       0.446  -7.960   1.092  0.00  0.00    -0.086 HD
ENDROOT
BRANCH  11  15
ATOM     15  C   UNL     1      -3.152  -3.246   5.898  0.00  0.00    +0.099 A 
ATOM     16  C   UNL     1      -2.334  -2.130   6.110  0.00  0.00    +0.020 A 
ATOM     17  C   UNL     1      -2.938  -0.898   6.292  0.00  0.00    +0.021 A 
ATOM     18  C   UNL     1      -4.318  -0.805   6.259  0.00  0.00    +0.114 A 
ATOM     19  N   UNL     1      -5.069  -1.870   6.059  0.00  0.00    -0.220 NA
ATOM     20  C   UNL     1      -4.544  -3.070   5.874  0.00  0.00    +0.233 A 
BRANCH  20  21
ATOM     21  O   UNL     1      -5.354  -4.135   5.665  0.00  0.00    -0.437 OA
BRANCH  21  22
ATOM     22  C   UNL     1      -6.688  -3.907   5.540  0.00  0.00    +0.130 A 
ATOM     23  C   UNL     1      -7.545  -4.205   6.590  0.00  0.00    +0.046 A 
ATOM     24  C   UNL     1      -8.900  -3.972   6.460  0.00  0.00    +0.007 A 
ATOM     25  C   UNL     1      -9.403  -3.443   5.285  0.00  0.00    -0.050 A 
ATOM     26  C   UNL     1      -8.551  -3.146   4.238  0.00  0.00    +0.007 A 
ATOM     27  C   UNL     1      -7.194  -3.372   4.364  0.00  0.00    +0.046 A 
ATOM     28  C   UNL     1     -10.882  -3.190   5.147  0.00  0.00    +0.044 C 
ENDBRANCH  21  22
ENDBRANCH  20  21
ENDBRANCH  11  15
BRANCH   1  30
ATOM     29  N   UNL     1      -0.512  -3.568   0.743  0.00  0.00    -0.315 N 
ATOM     30  C   UNL     1      -0.961  -3.623   2.013  0.00  0.00    +0.218 C 
ATOM     31  O   UNL     1      -2.083  -3.244   2.277  0.00  0.00    -0.275 OA
ATOM     32  H   UNL     1       0.384  -3.872   0.532  0.00  0.00    +0.149 HD
BRANCH  29  33
ATOM     33  C   UNL     1      -1.379  -3.050  -0.318  0.00  0.00    +0.107 C 
BRANCH  33  34
ATOM     34  C   UNL     1      -0.633  -3.096  -1.653  0.00  0.00    +0.006 C 
BRANCH  34  36
ATOM     35  C   UNL     1       0.511  -4.595  -3.292  0.00  0.00    +0.004 C 
ATOM     36  C   UNL     1      -0.356  -4.553  -2.032  0.00  0.00    +0.002 C 
ENDBRANCH  34  36
BRANCH  34  37
ATOM     37  C   UNL     1      -1.490  -2.442  -2.739  0.00  0.00    +0.002 C 
ATOM     38  C   UNL     1      -1.654  -0.952  -2.430  0.00  0.00    +0.004 C 
ENDBRANCH  34  37
ENDBRANCH  33  34
ENDBRANCH  29  33
ENDBRANCH   1  30
TORSDOF 8
