REMARK  Name = ZINC06817541
REMARK  8 active torsions:
REMARK  status: ('A' for Active; 'I' for Inactive)
REMARK    1  A    between atoms: C_1  and  N_2
REMARK    2  A    between atoms: C_5  and  C_7
REMARK    3  A    between atoms: N_9  and  C_10
REMARK    4  A    between atoms: C_10  and  C_11
REMARK    5  A    between atoms: C_11  and  N_12
REMARK    6  A    between atoms: N_12  and  C_13
REMARK    7  A    between atoms: N_12  and  C_19
REMARK    8  A    between atoms: C_13  and  C_14
REMARK                            x       y       z     vdW  Elec       q    Type
REMARK                         _______ _______ _______ _____ _____    ______ ____
ROOT
ATOM      1  C   UNL     1       0.098   1.129  -1.723  0.00  0.00    +0.265 C 
ATOM      2  O   UNL     1       1.162   0.614  -2.009  0.00  0.00    -0.268 OA
ATOM      3  N   UNL     1      -0.112   1.593  -0.475  0.00  0.00    -0.312 N 
ATOM      4  H   UNL     1      -1.074   2.058  -0.216  0.00  0.00    +0.149 HD
ENDROOT
BRANCH   1   9
ATOM      5  C   UNL     1      -4.213   2.224  -3.837  0.00  0.00    +0.173 C 
ATOM      6  N   UNL     1      -2.847   1.723  -3.667  0.00  0.00    -0.266 N 
ATOM      7  C   UNL     1      -2.114   1.134  -4.627  0.00  0.00    +0.079 A 
ATOM      8  C   UNL     1      -0.892   0.816  -4.066  0.00  0.00    +0.047 A 
ATOM      9  C   UNL     1      -0.964   1.247  -2.743  0.00  0.00    +0.154 A 
ATOM     10  N   UNL     1      -2.166   1.776  -2.570  0.00  0.00    -0.166 NA
ATOM     11  C   UNL     1       0.188   0.146  -4.865  0.00  0.00    +0.269 C 
ATOM     12  O   UNL     1      -0.411  -0.600  -5.928  0.00  0.00    -0.487 OA
ATOM     13  C   UNL     1      -1.434  -0.076  -6.646  0.00  0.00    +0.130 A 
ATOM     14  C   UNL     1      -2.362   0.794  -6.040  0.00  0.00    +0.042 A 
ATOM     15  C   UNL     1      -3.436   1.292  -6.758  0.00  0.00    +0.013 A 
ATOM     16  C   UNL     1      -3.592   0.939  -8.086  0.00  0.00    +0.001 A 
ATOM     17  C   UNL     1      -2.676   0.096  -8.690  0.00  0.00    +0.004 A 
ATOM     18  C   UNL     1      -1.604  -0.409  -7.979  0.00  0.00    +0.046 A 
ENDBRANCH   1   9
BRANCH   3  19
ATOM     19  C   UNL     1       0.942   1.476   0.537  0.00  0.00    +0.086 C 
BRANCH  19  20
ATOM     20  C   UNL     1       0.450   2.075   1.856  0.00  0.00    -0.059 C 
BRANCH  20  21
ATOM     21  N   UNL     1       1.455   1.845   2.903  0.00  0.00    +0.387 N 
ATOM     22  H   UNL     1       1.648   0.764   2.955  0.00  0.00    -0.081 HD
BRANCH  21  23
ATOM     23  C   UNL     1       2.720   2.515   2.573  0.00  0.00    -0.068 C 
ATOM     24  C   UNL     1       2.457   3.709   1.632  0.00  0.00    -0.015 C 
ATOM     25  C   UNL     1       3.665   3.702   0.663  0.00  0.00    -0.002 C 
ATOM     26  C   UNL     1       3.910   2.190   0.432  0.00  0.00    -0.002 C 
ATOM     27  C   UNL     1       3.644   1.549   1.810  0.00  0.00    -0.015 C 
ENDBRANCH  21  23
BRANCH  21  28
ATOM     28  C   UNL     1       0.957   2.279   4.215  0.00  0.00    -0.003 C 
BRANCH  28  29
ATOM     29  C   UNL     1       1.863   1.749   5.296  0.00  0.00    +0.089 A 
ATOM     30  C   UNL     1       2.867   2.426   5.883  0.00  0.00    +0.042 A 
ATOM     31  C   UNL     1       3.446   1.555   6.835  0.00  0.00    +0.041 A 
ATOM     32  C   UNL     1       2.768   0.396   6.767  0.00  0.00    +0.195 A 
ATOM     33  O   UNL     1       1.810   0.519   5.833  0.00  0.00    -0.470 OA
ENDBRANCH  28  29
ENDBRANCH  21  28
ENDBRANCH  20  21
ENDBRANCH  19  20
ENDBRANCH   3  19
TORSDOF 7
