REMARK  Name = ZINC15218244
REMARK  9 active torsions:
REMARK  status: ('A' for Active; 'I' for Inactive)
REMARK    1  A    between atoms: C_1  and  C_2
REMARK    2  A    between atoms: C_2  and  C_3
REMARK    3  A    between atoms: C_2  and  C_4
REMARK    4  A    between atoms: C_2  and  C_5
REMARK    5  A    between atoms: C_13  and  C_25
REMARK    6  A    between atoms: C_15  and  C_21
REMARK    7  A    between atoms: C_15  and  C_23
REMARK    8  A    between atoms: C_16  and  N_20
REMARK    9  A    between atoms: C_17  and  C_18
REMARK                            x       y       z     vdW  Elec       q    Type
REMARK                         _______ _______ _______ _____ _____    ______ ____
ROOT
ATOM      1  C   UNL     1      -2.198   5.394   3.162  0.00  0.00    -0.001 C 
ATOM      2  C   UNL     1      -3.153   6.441   3.752  0.00  0.00    +0.031 C 
ATOM      3  C   UNL     1      -3.549   7.379   2.642  0.00  0.00    -0.021 C 
ATOM      4  C   UNL     1      -3.650   6.956   1.397  0.00  0.00    -0.029 C 
ATOM      5  C   UNL     1      -3.442   5.531   0.978  0.00  0.00    +0.031 C 
ATOM      6  C   UNL     1      -2.944   4.621   2.076  0.00  0.00    +0.013 C 
ATOM      7  C   UNL     1      -2.515   5.519  -0.239  0.00  0.00    +0.068 C 
ATOM      8  C   UNL     1      -3.200   6.248  -1.395  0.00  0.00    +0.188 C 
ATOM      9  C   UNL     1      -3.711   7.593  -0.973  0.00  0.00    +0.054 C 
ATOM     10  C   UNL     1      -3.937   7.939   0.319  0.00  0.00    +0.074 C 
ENDROOT
BRANCH   7  11
ATOM     11  C   UNL     1      -2.229   4.094  -0.640  0.00  0.00    -0.016 A 
ATOM     12  C   UNL     1      -3.115   3.087  -0.697  0.00  0.00    +0.087 A 
ATOM     13  N   UNL     1      -2.490   1.939  -1.100  0.00  0.00    -0.360 N 
ATOM     14  H   UNL     1      -3.064   1.005  -1.196  0.00  0.00    +0.165 HD
ATOM     15  C   UNL     1      -1.155   2.187  -1.327  0.00  0.00    +0.047 A 
ATOM     16  C   UNL     1      -0.932   3.548  -1.049  0.00  0.00    +0.003 A 
ATOM     17  C   UNL     1       0.346   4.089  -1.196  0.00  0.00    +0.010 A 
ATOM     18  C   UNL     1       1.377   3.292  -1.608  0.00  0.00    +0.001 A 
ATOM     19  C   UNL     1       1.163   1.948  -1.883  0.00  0.00    +0.002 A 
ATOM     20  C   UNL     1      -0.091   1.394  -1.746  0.00  0.00    +0.026 A 
ENDBRANCH   7  11
BRANCH   1  22
ATOM     21  C   UNL     1      -1.437   7.323   1.768  0.00  0.00    +0.011 C 
ATOM     22  C   UNL     1      -0.980   6.092   2.554  0.00  0.00    -0.035 C 
ATOM     23  C   UNL     1      -0.029   6.524   3.672  0.00  0.00    +0.011 C 
ATOM     24  C   UNL     1      -0.256   5.127   1.613  0.00  0.00    +0.011 C 
ENDBRANCH   1  22
BRANCH   9  25
ATOM     25  N   UNL     1      -3.961   8.522  -1.944  0.00  0.00    -0.358 N 
ATOM     26  H   UNL     1      -4.337   9.518  -1.669  0.00  0.00    +0.142 HD
ATOM     27  H   UNL     1      -3.786   8.273  -3.001  0.00  0.00    +0.142 HD
ENDBRANCH   9  25
BRANCH  10  28
ATOM     28  C   UNL     1      -4.446   9.238   0.641  0.00  0.00    +0.101 C 
ATOM     29  N   UNL     1      -4.850  10.269   0.897  0.00  0.00    -0.191 NA
ENDBRANCH  10  28
BRANCH   8  30
ATOM     30  C   UNL     1      -2.235   6.421  -2.493  0.00  0.00    +0.091 C 
ATOM     31  N   UNL     1      -1.490   6.554  -3.340  0.00  0.00    -0.194 NA
ENDBRANCH   8  30
BRANCH   8  32
ATOM     32  C   UNL     1      -4.329   5.436  -1.874  0.00  0.00    +0.091 C 
ATOM     33  N   UNL     1      -5.201   4.809  -2.244  0.00  0.00    -0.194 NA
ENDBRANCH   8  32
TORSDOF 6
