REMARK  Name = ZINC39757049
REMARK  16 active torsions:
REMARK  status: ('A' for Active; 'I' for Inactive)
REMARK    1  A    between atoms: C_1  and  C_2
REMARK    2  A    between atoms: C_2  and  N_3
REMARK    3  A    between atoms: C_4  and  C_20
REMARK    4  A    between atoms: C_7  and  S_8
REMARK    5  A    between atoms: S_8  and  C_9
REMARK    6  A    between atoms: C_9  and  C_11
REMARK    7  A    between atoms: C_9  and  C_12
REMARK    8  A    between atoms: C_12  and  N_14
REMARK    9  A    between atoms: C_20  and  C_22
REMARK   10  A    between atoms: C_20  and  N_26
REMARK   11  A    between atoms: C_22  and  C_23
REMARK   12  A    between atoms: C_23  and  S_24
REMARK   13  A    between atoms: S_24  and  C_25
REMARK   14  A    between atoms: C_27  and  C_29
REMARK   15  A    between atoms: C_32  and  O_35
REMARK   16  A    between atoms: O_35  and  C_36
REMARK                            x       y       z     vdW  Elec       q    Type
REMARK                         _______ _______ _______ _____ _____    ______ ____
ROOT
ATOM      1  N   UNL     1       0.688  -0.476  -1.203  0.00  0.00    -0.305 N 
ATOM      2  C   UNL     1       0.126  -0.748  -2.420  0.00  0.00    +0.155 A 
ATOM      3  N   UNL     1       1.084  -1.140  -3.211  0.00  0.00    -0.132 NA
ATOM      4  N   UNL     1       2.205  -1.136  -2.582  0.00  0.00    -0.122 NA
ATOM      5  C   UNL     1       2.021  -0.732  -1.347  0.00  0.00    +0.192 A 
ENDROOT
BRANCH   1   7
ATOM      6  C   UNL     1      -0.019   1.526   0.010  0.00  0.00    +0.027 C 
ATOM      7  C   UNL     1       0.002  -0.004   0.002  0.00  0.00    +0.122 C 
ENDBRANCH   1   7
BRANCH   5   8
ATOM      8  S   UNL     1       3.261  -0.556  -0.107  0.00  0.00    -0.073 S 
BRANCH   8   9
ATOM      9  C   UNL     1       4.792  -1.052  -0.943  0.00  0.00    +0.139 C 
ATOM     10  C   UNL     1       4.712  -2.533  -1.318  0.00  0.00    +0.029 C 
BRANCH   9  11
ATOM     11  C   UNL     1       5.963  -0.830  -0.021  0.00  0.00    +0.251 C 
ATOM     12  O   UNL     1       5.796  -0.827   1.183  0.00  0.00    -0.272 OA
BRANCH  11  13
ATOM     13  N   UNL     1       7.180  -0.637  -0.525  0.00  0.00    -0.158 NA
ATOM     14  C   UNL     1       8.211  -0.441   0.288  0.00  0.00    +0.146 C 
ATOM     15  N   UNL     1       9.493  -0.229  -0.088  0.00  0.00    -0.325 N 
ATOM     16  C   UNL     1      10.519  -0.030   0.915  0.00  0.00    +0.114 C 
ATOM     17  C   UNL     1       9.927  -0.100   2.339  0.00  0.00    +0.095 C 
ATOM     18  S   UNL     1       8.157  -0.407   1.963  0.00  0.00    -0.092 S 
ATOM     19  H   UNL     1       9.726  -0.210  -1.029  0.00  0.00    +0.148 HD
ENDBRANCH  11  13
ENDBRANCH   9  11
ENDBRANCH   8   9
ENDBRANCH   5   8
BRANCH   2  20
ATOM     20  C   UNL     1      -1.332  -0.617  -2.780  0.00  0.00    +0.142 C 
BRANCH  20  21
ATOM     21  N   UNL     1      -1.456   0.048  -4.080  0.00  0.00    -0.301 N 
ATOM     22  C   UNL     1      -2.583   0.720  -4.388  0.00  0.00    +0.245 C 
ATOM     23  O   UNL     1      -3.497   0.774  -3.587  0.00  0.00    -0.270 OA
ATOM     24  H   UNL     1      -0.727   0.004  -4.718  0.00  0.00    +0.150 HD
BRANCH  22  25
ATOM     25  C   UNL     1      -2.708   1.389  -5.697  0.00  0.00    +0.037 A 
ATOM     26  C   UNL     1      -1.662   1.323  -6.621  0.00  0.00    +0.016 A 
ATOM     27  C   UNL     1      -1.783   1.948  -7.842  0.00  0.00    +0.046 A 
ATOM     28  C   UNL     1      -2.944   2.645  -8.156  0.00  0.00    +0.120 A 
ATOM     29  C   UNL     1      -3.987   2.714  -7.240  0.00  0.00    +0.046 A 
ATOM     30  C   UNL     1      -3.876   2.086  -6.019  0.00  0.00    +0.016 A 
BRANCH  28  31
ATOM     31  O   UNL     1      -3.059   3.261  -9.360  0.00  0.00    -0.495 OA
ATOM     32  C   UNL     1      -4.279   3.960  -9.617  0.00  0.00    +0.277 C 
ENDBRANCH  28  31
ENDBRANCH  22  25
ENDBRANCH  20  21
BRANCH  20  33
ATOM     33  C   UNL     1      -1.965  -2.007  -2.856  0.00  0.00    +0.041 C 
BRANCH  33  34
ATOM     34  C   UNL     1      -3.470  -1.870  -3.098  0.00  0.00    +0.071 C 
BRANCH  34  35
ATOM     35  S   UNL     1      -4.221  -3.519  -3.187  0.00  0.00    -0.164 S 
ATOM     36  C   UNL     1      -5.981  -3.184  -3.473  0.00  0.00    +0.084 C 
ENDBRANCH  34  35
ENDBRANCH  33  34
ENDBRANCH  20  33
ENDBRANCH   2  20
TORSDOF 12
