REMARK  Name = ZINC02712534
REMARK  7 active torsions:
REMARK  status: ('A' for Active; 'I' for Inactive)
REMARK    1  A    between atoms: C_3  and  C_6
REMARK    2  A    between atoms: N_8  and  C_9
REMARK    3  A    between atoms: C_10  and  N_28
REMARK    4  A    between atoms: C_12  and  S_17
REMARK    5  A    between atoms: S_17  and  C_18
REMARK    6  A    between atoms: C_18  and  C_19
REMARK    7  A    between atoms: N_21  and  C_22
REMARK                            x       y       z     vdW  Elec       q    Type
REMARK                         _______ _______ _______ _____ _____    ______ ____
ROOT
ATOM      1  C   UNL     1      -6.178   3.548   0.053  0.00  0.00    +0.139 A 
ATOM      2  C   UNL     1      -4.866   4.011   0.058  0.00  0.00    +0.146 A 
ATOM      3  N   UNL     1      -3.854   3.136   0.052  0.00  0.00    -0.207 NA
ATOM      4  C   UNL     1      -4.075   1.838   0.041  0.00  0.00    +0.171 A 
ATOM      5  N   UNL     1      -5.339   1.333   0.030  0.00  0.00    -0.300 N 
ATOM      6  H   UNL     1      -5.481   0.343   0.014  0.00  0.00    +0.171 HD
ATOM      7  C   UNL     1      -6.402   2.164   0.041  0.00  0.00    +0.275 A 
ATOM      8  O   UNL     1      -7.540   1.719   0.036  0.00  0.00    -0.266 OA
ENDROOT
BRANCH   1  11
ATOM      9  C   UNL     1      -8.154   4.438  -0.947  0.00  0.00    +0.284 C 
ATOM     10  O   UNL     1      -8.079   3.590  -1.818  0.00  0.00    -0.266 OA
ATOM     11  N   UNL     1      -7.259   4.451   0.060  0.00  0.00    -0.272 N 
ATOM     12  H   UNL     1      -7.358   5.083   0.789  0.00  0.00    +0.155 HD
BRANCH   9  15
ATOM     13  C   UNL     1     -10.989   6.643  -1.603  0.00  0.00    +0.042 A 
ATOM     14  C   UNL     1     -10.187   5.545  -1.952  0.00  0.00    +0.054 A 
ATOM     15  C   UNL     1      -9.220   5.444  -0.994  0.00  0.00    +0.189 A 
ATOM     16  O   UNL     1      -9.420   6.430  -0.095  0.00  0.00    -0.458 OA
ATOM     17  C   UNL     1     -10.482   7.158  -0.462  0.00  0.00    +0.196 A 
ENDBRANCH   9  15
ENDBRANCH   1  11
BRANCH   2  18
ATOM     18  N   UNL     1      -4.609   5.370   0.070  0.00  0.00    -0.341 N 
ATOM     19  H   UNL     1      -3.694   5.691   0.073  0.00  0.00    +0.144 HD
ATOM     20  H   UNL     1      -5.344   6.003   0.074  0.00  0.00    +0.144 HD
ENDBRANCH   2  18
BRANCH   4  21
ATOM     21  S   UNL     1      -2.704   0.731   0.033  0.00  0.00    -0.078 S 
BRANCH  21  22
ATOM     22  C   UNL     1      -1.339   1.921   0.044  0.00  0.00    +0.173 C 
BRANCH  22  23
ATOM     23  C   UNL     1      -0.027   1.180   0.038  0.00  0.00    +0.224 C 
ATOM     24  O   UNL     1      -0.015  -0.033   0.028  0.00  0.00    -0.275 OA
ATOM     25  N   UNL     1       1.133   1.865   0.040  0.00  0.00    -0.312 N 
ATOM     26  H   UNL     1       1.124   2.835   0.048  0.00  0.00    +0.149 HD
BRANCH  25  27
ATOM     27  C   UNL     1       2.409   1.145   0.028  0.00  0.00    +0.073 C 
ATOM     28  C   UNL     1       2.797   0.772   1.461  0.00  0.00    +0.022 C 
ATOM     29  C   UNL     1       4.130   0.020   1.449  0.00  0.00    +0.002 C 
ATOM     30  C   UNL     1       5.214   0.913   0.842  0.00  0.00    +0.000 C 
ATOM     31  C   UNL     1       4.826   1.285  -0.590  0.00  0.00    +0.002 C 
ATOM     32  C   UNL     1       3.494   2.038  -0.578  0.00  0.00    +0.022 C 
ENDBRANCH  25  27
ENDBRANCH  22  23
ENDBRANCH  21  22
ENDBRANCH   4  21
TORSDOF 7
