REMARK  Name = ZINC08673288
REMARK  6 active torsions:
REMARK  status: ('A' for Active; 'I' for Inactive)
REMARK    1  A    between atoms: C_1  and  C_2
REMARK    2  A    between atoms: C_2  and  C_3
REMARK    3  A    between atoms: C_8  and  N_9
REMARK    4  A    between atoms: C_10  and  C_26
REMARK    5  A    between atoms: C_11  and  C_14
REMARK    6  A    between atoms: C_16  and  C_19
REMARK                            x       y       z     vdW  Elec       q    Type
REMARK                         _______ _______ _______ _____ _____    ______ ____
ROOT
ATOM      1  N   UNL     1       2.833  -0.272  -0.108  0.00  0.00    -0.216 N 
ATOM      2  C   UNL     1       4.169  -0.410   0.055  0.00  0.00    +0.074 A 
ATOM      3  C   UNL     1       4.463   0.048   1.307  0.00  0.00    +0.173 A 
ATOM      4  N   UNL     1       3.323   0.456   1.890  0.00  0.00    -0.124 NA
ATOM      5  N   UNL     1       2.338   0.286   1.079  0.00  0.00    -0.060 NA
ATOM      6  C   UNL     1       5.145  -0.964  -0.952  0.00  0.00    +0.068 C 
ENDROOT
BRANCH   1  12
ATOM      7  C   UNL     1       0.933  -1.373  -1.119  0.00  0.00    -0.022 A 
ATOM      8  C   UNL     1       0.199  -1.704  -2.241  0.00  0.00    +0.006 A 
ATOM      9  C   UNL     1       0.618  -1.287  -3.491  0.00  0.00    +0.000 A 
ATOM     10  C   UNL     1       1.772  -0.537  -3.622  0.00  0.00    +0.002 A 
ATOM     11  C   UNL     1       2.510  -0.202  -2.503  0.00  0.00    +0.028 A 
ATOM     12  C   UNL     1       2.089  -0.615  -1.246  0.00  0.00    +0.070 A 
BRANCH   7  14
ATOM     13  C   UNL     1      -0.353  -0.721   0.899  0.00  0.00    +0.009 C 
ATOM     14  C   UNL     1       0.475  -1.827   0.243  0.00  0.00    +0.034 C 
ENDBRANCH   7  14
ENDBRANCH   1  12
BRANCH   3  15
ATOM     15  C   UNL     1       5.806   0.088   1.918  0.00  0.00    +0.281 A 
ATOM     16  N   UNL     1       6.091   0.523   3.124  0.00  0.00    -0.186 NA
ATOM     17  C   UNL     1       7.410   0.413   3.350  0.00  0.00    +0.205 A 
ATOM     18  N   UNL     1       7.981  -0.096   2.285  0.00  0.00    -0.056 NA
ATOM     19  O   UNL     1       6.949  -0.321   1.337  0.00  0.00    -0.331 OA
BRANCH  17  20
ATOM     20  C   UNL     1       8.107   0.804   4.600  0.00  0.00    +0.058 A 
ATOM     21  C   UNL     1       7.384   1.331   5.668  0.00  0.00    +0.014 A 
ATOM     22  C   UNL     1       8.037   1.693   6.829  0.00  0.00    +0.001 A 
ATOM     23  C   UNL     1       9.408   1.533   6.934  0.00  0.00    +0.003 A 
ATOM     24  C   UNL     1      10.132   1.012   5.879  0.00  0.00    +0.039 A 
ATOM     25  C   UNL     1       9.488   0.640   4.713  0.00  0.00    +0.134 A 
ATOM     26  F   UNL     1      10.195   0.125   3.683  0.00  0.00    -0.205 F 
ENDBRANCH  17  20
ENDBRANCH   3  15
TORSDOF 4
