REMARK  Name = ZINC16074929
REMARK  8 active torsions:
REMARK  status: ('A' for Active; 'I' for Inactive)
REMARK    1  A    between atoms: C_1  and  C_2
REMARK    2  A    between atoms: C_2  and  C_15
REMARK    3  A    between atoms: N_5  and  C_9
REMARK    4  A    between atoms: C_9  and  N_54
REMARK    5  A    between atoms: C_18  and  C_21
REMARK    6  A    between atoms: C_21  and  C_22
REMARK    7  A    between atoms: C_21  and  C_23
REMARK    8  A    between atoms: C_21  and  C_24
REMARK                            x       y       z     vdW  Elec       q    Type
REMARK                         _______ _______ _______ _____ _____    ______ ____
ROOT
ATOM      1  C   UNL     1      -0.538   4.953   4.890  0.00  0.00    +0.047 C 
ATOM      2  C   UNL     1      -0.196   3.487   5.162  0.00  0.00    +0.135 C 
ATOM      3  C   UNL     1       0.466   2.857   3.953  0.00  0.00    +0.249 C 
ATOM      4  O   UNL     1       1.514   3.183   3.438  0.00  0.00    -0.272 OA
ATOM      5  N   UNL     1      -0.354   1.859   3.568  0.00  0.00    -0.241 N 
ATOM      6  C   UNL     1      -1.427   1.768   4.362  0.00  0.00    +0.308 C 
ATOM      7  O   UNL     1      -2.306   0.941   4.218  0.00  0.00    -0.252 OA
ATOM      8  N   UNL     1      -1.423   2.692   5.339  0.00  0.00    -0.281 N 
ATOM      9  H   UNL     1      -2.097   2.813   6.026  0.00  0.00    +0.152 HD
ENDROOT
BRANCH   2  10
ATOM     10  C   UNL     1       0.695   3.365   6.372  0.00  0.00    -0.015 A 
ATOM     11  C   UNL     1       2.068   3.429   6.229  0.00  0.00    +0.006 A 
ATOM     12  C   UNL     1       2.884   3.322   7.340  0.00  0.00    +0.004 A 
ATOM     13  C   UNL     1       2.327   3.140   8.592  0.00  0.00    -0.042 A 
ATOM     14  C   UNL     1       0.954   3.071   8.734  0.00  0.00    +0.004 A 
ATOM     15  C   UNL     1       0.138   3.183   7.624  0.00  0.00    +0.006 A 
BRANCH  13  16
ATOM     16  C   UNL     1       3.217   3.017   9.802  0.00  0.00    -0.013 C 
ATOM     17  C   UNL     1       2.983   1.661  10.471  0.00  0.00    +0.015 C 
ATOM     18  C   UNL     1       4.681   3.127   9.371  0.00  0.00    +0.015 C 
ATOM     19  C   UNL     1       2.891   4.137  10.791  0.00  0.00    +0.015 C 
ENDBRANCH  13  16
ENDBRANCH   2  10
BRANCH   5  20
ATOM     20  C   UNL     1      -0.099   0.979   2.425  0.00  0.00    +0.043 C 
BRANCH  20  26
ATOM     21  C   UNL     1      -0.013   1.086   0.008  0.00  0.00    -0.077 C 
ATOM     22  C   UNL     1      -0.752   1.593  -1.232  0.00  0.00    -0.019 C 
ATOM     23  C   UNL     1      -0.788   3.123  -1.209  0.00  0.00    -0.004 C 
ATOM     24  C   UNL     1      -1.465   3.591   0.082  0.00  0.00    -0.019 C 
ATOM     25  C   UNL     1      -0.705   3.026   1.284  0.00  0.00    -0.077 C 
ATOM     26  N   UNL     1      -0.728   1.550   1.216  0.00  0.00    +0.390 N 
ATOM     27  H   UNL     1      -1.704   1.234   1.167  0.00  0.00    -0.079 HD
ENDBRANCH  20  26
ENDBRANCH   5  20
TORSDOF 4
