REMARK  Name = ZINC66001460
REMARK  7 active torsions:
REMARK  status: ('A' for Active; 'I' for Inactive)
REMARK    1  A    between atoms: C_1  and  C_2
REMARK    2  A    between atoms: C_2  and  C_3
REMARK    3  A    between atoms: C_2  and  N_9
REMARK    4  A    between atoms: C_3  and  C_4
REMARK    5  A    between atoms: N_9  and  S_10
REMARK    6  A    between atoms: S_10  and  C_13
REMARK    7  A    between atoms: C_16  and  N_18
REMARK                            x       y       z     vdW  Elec       q    Type
REMARK                         _______ _______ _______ _____ _____    ______ ____
ROOT
ATOM      1  S   UNL     1      -2.119  -0.907  -1.411  0.00  0.00    +0.065 S 
ATOM      2  O   UNL     1      -3.414  -1.386  -1.071  0.00  0.00    -0.153 OA
ATOM      3  O   UNL     1      -1.920   0.189  -2.293  0.00  0.00    -0.153 OA
ENDROOT
BRANCH   1   4
ATOM      4  C   UNL     1      -1.242  -2.272  -2.098  0.00  0.00    +0.145 A 
ATOM      5  C   UNL     1      -1.452  -3.599  -1.918  0.00  0.00    +0.038 A 
ATOM      6  C   UNL     1      -0.629  -4.502  -2.566  0.00  0.00    +0.042 A 
ATOM      7  C   UNL     1       0.363  -4.033  -3.361  0.00  0.00    +0.165 A 
ATOM      8  S   UNL     1       0.149  -2.267  -3.217  0.00  0.00    -0.045 S 
BRANCH   7   9
ATOM      9  N   UNL     1       1.362  -4.790  -4.149  0.00  0.00    +0.063 N 
ATOM     10  O   UNL     1       1.356  -5.998  -4.132  0.00  0.00    -0.126 OA
ATOM     11  O   UNL     1       2.184  -4.199  -4.810  0.00  0.00    -0.126 OA
ENDBRANCH   7   9
ENDBRANCH   1   4
BRANCH   1  12
ATOM     12  N   UNL     1      -1.372  -0.511   0.012  0.00  0.00    -0.186 NA
ATOM     13  H   UNL     1      -1.845  -0.615   0.853  0.00  0.00    +0.148 HD
BRANCH  12  15
ATOM     14  C   UNL     1      -0.019   1.526   0.010  0.00  0.00    +0.026 C 
ATOM     15  C   UNL     1       0.002  -0.004   0.002  0.00  0.00    +0.078 C 
BRANCH  15  16
ATOM     16  C   UNL     1       0.742  -0.511   1.242  0.00  0.00    +0.055 C 
BRANCH  16  17
ATOM     17  C   UNL     1       0.870  -2.011   1.172  0.00  0.00    -0.039 A 
ATOM     18  C   UNL     1      -0.111  -2.824   1.708  0.00  0.00    +0.011 A 
ATOM     19  C   UNL     1       0.035  -4.169   1.628  0.00  0.00    +0.045 A 
ATOM     20  S   UNL     1       1.596  -4.322   0.776  0.00  0.00    -0.105 S 
ATOM     21  C   UNL     1       1.946  -2.583   0.578  0.00  0.00    +0.048 A 
ENDBRANCH  16  17
ENDBRANCH  15  16
ENDBRANCH  12  15
ENDBRANCH   1  12
TORSDOF 6
