REMARK  Name = ZINC46542382
REMARK  7 active torsions:
REMARK  status: ('A' for Active; 'I' for Inactive)
REMARK    1  A    between atoms: C_5  and  O_7
REMARK    2  A    between atoms: O_7  and  C_8
REMARK    3  A    between atoms: C_11  and  N_14
REMARK    4  A    between atoms: N_14  and  S_15
REMARK    5  A    between atoms: S_15  and  C_18
REMARK    6  A    between atoms: C_22  and  S_24
REMARK    7  A    between atoms: S_24  and  N_27
REMARK                            x       y       z     vdW  Elec       q    Type
REMARK                         _______ _______ _______ _____ _____    ______ ____
ROOT
ATOM      1  N   UNL     1      -3.395  -5.055   0.145  0.00  0.00    -0.098 NA
ENDROOT
BRANCH   1   5
ATOM      2  C   UNL     1       0.096  -2.781   0.019  0.00  0.00    +0.129 A 
ATOM      3  C   UNL     1      -1.142  -2.154  -0.007  0.00  0.00    +0.048 A 
ATOM      4  C   UNL     1      -2.299  -2.907   0.034  0.00  0.00    +0.030 A 
ATOM      5  C   UNL     1      -2.224  -4.292   0.102  0.00  0.00    +0.075 A 
ATOM      6  C   UNL     1      -0.985  -4.919   0.128  0.00  0.00    +0.030 A 
ATOM      7  C   UNL     1       0.172  -4.165   0.082  0.00  0.00    +0.048 A 
BRANCH   2   8
ATOM      8  O   UNL     1       1.234  -2.039  -0.022  0.00  0.00    -0.455 OA
BRANCH   8  13
ATOM      9  C   UNL     1       1.718  -1.566   3.553  0.00  0.00    +0.004 A 
ATOM     10  C   UNL     1       2.870  -0.802   3.558  0.00  0.00    +0.002 A 
ATOM     11  C   UNL     1       3.477  -0.452   2.366  0.00  0.00    +0.024 A 
ATOM     12  C   UNL     1       2.931  -0.865   1.165  0.00  0.00    +0.083 A 
ATOM     13  C   UNL     1       1.774  -1.632   1.157  0.00  0.00    +0.147 A 
ATOM     14  C   UNL     1       1.168  -1.981   2.356  0.00  0.00    +0.048 A 
ATOM     15 CL   UNL     1       3.691  -0.425  -0.332  0.00  0.00    -0.080 Cl
ENDBRANCH   8  13
ENDBRANCH   2   8
ENDBRANCH   1   5
BRANCH   1  16
ATOM     16  S   UNL     1      -3.305  -6.707   0.226  0.00  0.00    +0.092 S 
ATOM     17  O   UNL     1      -2.738  -7.143  -1.002  0.00  0.00    -0.148 OA
ATOM     18  O   UNL     1      -2.728  -7.021   1.486  0.00  0.00    -0.148 OA
BRANCH  16  19
ATOM     19  C   UNL     1      -4.957  -7.317   0.264  0.00  0.00    +0.112 A 
ATOM     20  C   UNL     1      -5.603  -7.493   1.474  0.00  0.00    +0.029 A 
ATOM     21  C   UNL     1      -6.899  -7.972   1.503  0.00  0.00    +0.004 A 
ATOM     22  C   UNL     1      -7.550  -8.275   0.322  0.00  0.00    +0.028 A 
ATOM     23  C   UNL     1      -6.906  -8.099  -0.888  0.00  0.00    +0.107 A 
ATOM     24  C   UNL     1      -5.611  -7.616  -0.917  0.00  0.00    +0.057 A 
BRANCH  23  25
ATOM     25  S   UNL     1      -7.736  -8.487  -2.393  0.00  0.00    +0.056 S 
ATOM     26  O   UNL     1      -6.726  -8.751  -3.358  0.00  0.00    -0.153 OA
ATOM     27  O   UNL     1      -8.745  -9.433  -2.068  0.00  0.00    -0.153 OA
BRANCH  25  28
ATOM     28  N   UNL     1      -8.517  -7.113  -2.889  0.00  0.00    -0.204 NA
ATOM     29  H   UNL     1      -8.454  -6.302  -2.361  0.00  0.00    +0.144 HD
ATOM     30  H   UNL     1      -9.037  -7.120  -3.708  0.00  0.00    +0.144 HD
ENDBRANCH  25  28
ENDBRANCH  23  25
ENDBRANCH  16  19
ENDBRANCH   1  16
TORSDOF 7
