REMARK  Name = ZINC12206686
REMARK  7 active torsions:
REMARK  status: ('A' for Active; 'I' for Inactive)
REMARK    1  A    between atoms: C_1  and  C_2
REMARK    2  A    between atoms: N_8  and  C_11
REMARK    3  A    between atoms: C_15  and  C_17
REMARK    4  A    between atoms: N_19  and  C_20
REMARK    5  A    between atoms: C_25  and  C_26
REMARK    6  A    between atoms: C_26  and  C_27
REMARK    7  A    between atoms: C_26  and  C_28
REMARK                            x       y       z     vdW  Elec       q    Type
REMARK                         _______ _______ _______ _____ _____    ______ ____
ROOT
ATOM      1  C   UNL     1       2.390   1.419  -0.050  0.00  0.00    +0.060 A 
ATOM      2  C   UNL     1       2.399   0.029  -0.061  0.00  0.00    +0.027 A 
ATOM      3  C   UNL     1       1.211  -0.675  -0.045  0.00  0.00    +0.022 A 
ATOM      4  C   UNL     1       0.004  -0.003  -0.018  0.00  0.00    +0.053 A 
ATOM      5  C   UNL     1      -0.015   1.395  -0.007  0.00  0.00    +0.057 A 
ATOM      6  C   UNL     1       1.186   2.104  -0.024  0.00  0.00    +0.039 A 
ATOM      7 CL   UNL     1      -1.486  -0.892   0.003  0.00  0.00    -0.083 Cl
ENDROOT
BRANCH   1  14
ATOM      8  C   UNL     1       5.163   4.945  -0.932  0.00  0.00    +0.019 C 
ATOM      9  C   UNL     1       5.151   3.983   0.258  0.00  0.00    +0.097 C 
ATOM     10  C   UNL     1       6.184   2.849   0.024  0.00  0.00    +0.201 C 
ATOM     11  S   UNL     1       5.058   1.571  -0.670  0.00  0.00    +0.053 S 
ATOM     12  O   UNL     1       5.276   0.312  -0.048  0.00  0.00    -0.155 OA
ATOM     13  O   UNL     1       4.961   1.692  -2.082  0.00  0.00    -0.155 OA
ATOM     14  N   UNL     1       3.598   2.127  -0.067  0.00  0.00    -0.144 N 
ATOM     15  C   UNL     1       3.789   3.373   0.392  0.00  0.00    +0.243 C 
ATOM     16  O   UNL     1       2.881   3.990   0.907  0.00  0.00    -0.273 OA
ENDBRANCH   1  14
BRANCH   5  17
ATOM     17  C   UNL     1      -1.304   2.118   0.015  0.00  0.00    +0.250 C 
ATOM     18  O   UNL     1      -2.349   1.497   0.024  0.00  0.00    -0.270 OA
ATOM     19  N   UNL     1      -1.319   3.465   0.025  0.00  0.00    -0.281 N 
ATOM     20  H   UNL     1      -0.488   3.960   0.099  0.00  0.00    +0.155 HD
BRANCH  19  21
ATOM     21  C   UNL     1      -2.535   4.151  -0.070  0.00  0.00    +0.037 A 
ATOM     22  C   UNL     1      -3.630   3.546  -0.674  0.00  0.00    +0.023 A 
ATOM     23  C   UNL     1      -4.828   4.226  -0.766  0.00  0.00    +0.002 A 
ATOM     24  C   UNL     1      -4.939   5.507  -0.257  0.00  0.00    +0.000 A 
ATOM     25  C   UNL     1      -3.851   6.112   0.345  0.00  0.00    +0.006 A 
ATOM     26  C   UNL     1      -2.651   5.436   0.445  0.00  0.00    -0.024 A 
BRANCH  26  27
ATOM     27  C   UNL     1      -1.468   6.093   1.107  0.00  0.00    +0.015 C 
ATOM     28  C   UNL     1      -1.188   7.438   0.432  0.00  0.00    +0.012 C 
ATOM     29  C   UNL     1      -1.773   6.319   2.589  0.00  0.00    +0.012 C 
ENDBRANCH  26  27
ENDBRANCH  19  21
ENDBRANCH   5  17
TORSDOF 4
