REMARK  Name = ZINC25491595
REMARK  4 active torsions:
REMARK  status: ('A' for Active; 'I' for Inactive)
REMARK    1  A    between atoms: C_1  and  C_2
REMARK    2  A    between atoms: C_3  and  N_10
REMARK    3  A    between atoms: C_4  and  N_9
REMARK    4  A    between atoms: N_11  and  C_12
REMARK                            x       y       z     vdW  Elec       q    Type
REMARK                         _______ _______ _______ _____ _____    ______ ____
ROOT
ATOM      1  C   UNL     1      -5.959   1.642  -0.148  0.00  0.00    +0.068 C 
ATOM      2  C   UNL     1      -5.937   3.144  -0.028  0.00  0.00    +0.072 A 
ATOM      3  C   UNL     1      -4.722   3.831   0.074  0.00  0.00    +0.147 A 
ATOM      4  C   UNL     1      -4.759   5.239   0.178  0.00  0.00    +0.149 A 
ATOM      5  N   UNL     1      -5.938   5.850   0.179  0.00  0.00    -0.198 NA
ATOM      6  C   UNL     1      -7.062   5.154   0.085  0.00  0.00    +0.215 A 
ATOM      7  N   UNL     1      -7.066   3.831  -0.014  0.00  0.00    -0.218 NA
ATOM      8  N   UNL     1      -8.267   5.828   0.090  0.00  0.00    -0.327 N 
ATOM      9  H   UNL     1      -9.211   5.268   0.013  0.00  0.00    +0.145 HD
ATOM     10  H   UNL     1      -8.284   6.925   0.172  0.00  0.00    +0.145 HD
ENDROOT
BRANCH   4  11
ATOM     11  N   UNL     1      -3.590   5.968   0.277  0.00  0.00    -0.341 N 
ATOM     12  H   UNL     1      -3.631   7.064   0.357  0.00  0.00    +0.144 HD
ATOM     13  H   UNL     1      -2.619   5.452   0.276  0.00  0.00    +0.144 HD
ENDBRANCH   4  11
BRANCH   3  14
ATOM     14  N   UNL     1      -3.536   3.160   0.069  0.00  0.00    -0.144 NA
ATOM     15  N   UNL     1      -2.425   3.815   0.047  0.00  0.00    -0.149 NA
BRANCH  15  16
ATOM     16  C   UNL     1      -1.235   3.142   0.041  0.00  0.00    +0.086 A 
ATOM     17  C   UNL     1      -1.218   1.745   0.052  0.00  0.00    +0.029 A 
ATOM     18  C   UNL     1      -0.014   1.073   0.051  0.00  0.00    +0.002 A 
ATOM     19  C   UNL     1       1.176   1.778   0.028  0.00  0.00    +0.000 A 
ATOM     20  C   UNL     1       1.167   3.162   0.011  0.00  0.00    +0.002 A 
ATOM     21  C   UNL     1      -0.029   3.848   0.017  0.00  0.00    +0.029 A 
ENDBRANCH  15  16
ENDBRANCH   3  14
TORSDOF 3
