REMARK  Name = ZINC33154929
REMARK  7 active torsions:
REMARK  status: ('A' for Active; 'I' for Inactive)
REMARK    1  A    between atoms: C_1  and  C_2
REMARK    2  A    between atoms: C_2  and  C_3
REMARK    3  A    between atoms: C_3  and  O_4
REMARK    4  A    between atoms: O_4  and  C_5
REMARK    5  A    between atoms: C_10  and  C_11
REMARK    6  A    between atoms: N_12  and  N_13
REMARK    7  A    between atoms: C_22  and  C_26
REMARK                            x       y       z     vdW  Elec       q    Type
REMARK                         _______ _______ _______ _____ _____    ______ ____
ROOT
ATOM      1  N   UNL     1      -0.798   3.149  -0.952  0.00  0.00    -0.204 N 
ATOM      2  C   UNL     1      -1.873   3.957  -1.284  0.00  0.00    +0.256 A 
ATOM      3  N   UNL     1      -1.652   5.115  -1.893  0.00  0.00    -0.192 NA
ATOM      4  C   UNL     1      -2.686   5.886  -2.216  0.00  0.00    +0.163 A 
ATOM      5  C   UNL     1      -3.983   5.441  -1.886  0.00  0.00    +0.138 A 
ATOM      6  C   UNL     1      -4.910   6.486  -2.353  0.00  0.00    +0.029 A 
ATOM      7  C   UNL     1      -6.295   6.627  -2.317  0.00  0.00    +0.012 A 
ATOM      8  C   UNL     1      -6.883   7.754  -2.851  0.00  0.00    +0.001 A 
ATOM      9  C   UNL     1      -6.101   8.745  -3.423  0.00  0.00    +0.005 A 
ATOM     10  C   UNL     1      -4.729   8.618  -3.465  0.00  0.00    -0.026 A 
ATOM     11  C   UNL     1      -4.117   7.489  -2.931  0.00  0.00    +0.053 A 
ATOM     12  N   UNL     1      -2.789   7.106  -2.837  0.00  0.00    -0.337 N 
ATOM     13  H   UNL     1      -1.883   7.628  -3.177  0.00  0.00    +0.167 HD
ATOM     14  C   UNL     1      -3.892   9.704  -4.090  0.00  0.00    +0.046 C 
ATOM     15  N   UNL     1      -4.135   4.276  -1.274  0.00  0.00    -0.142 NA
ATOM     16  N   UNL     1      -3.104   3.558  -0.984  0.00  0.00    -0.111 NA
ATOM     17  H   UNL     1       0.229   3.504  -1.120  0.00  0.00    +0.177 HD
ENDROOT
BRANCH   1  19
ATOM     18  C   UNL     1      -0.018   1.180   0.038  0.00  0.00    +0.142 C 
ATOM     19  N   UNL     1      -1.019   1.881  -0.400  0.00  0.00    -0.187 NA
BRANCH  18  25
ATOM     20  C   UNL     1       2.419   1.135   0.559  0.00  0.00    +0.129 A 
ATOM     21  C   UNL     1       3.576   1.777   0.968  0.00  0.00    +0.046 A 
ATOM     22  C   UNL     1       3.546   3.122   1.288  0.00  0.00    +0.004 A 
ATOM     23  C   UNL     1       2.363   3.835   1.204  0.00  0.00    +0.001 A 
ATOM     24  C   UNL     1       1.203   3.212   0.793  0.00  0.00    +0.013 A 
ATOM     25  C   UNL     1       1.219   1.853   0.472  0.00  0.00    +0.036 A 
BRANCH  20  26
ATOM     26  O   UNL     1       2.447  -0.186   0.244  0.00  0.00    -0.491 OA
BRANCH  26  27
ATOM     27  C   UNL     1       3.677  -0.880   0.465  0.00  0.00    +0.229 C 
BRANCH  27  29
ATOM     28  C   UNL     1       4.762  -3.130   0.527  0.00  0.00    +0.007 C 
ATOM     29  C   UNL     1       3.483  -2.369   0.172  0.00  0.00    +0.038 C 
ENDBRANCH  27  29
ENDBRANCH  26  27
ENDBRANCH  20  26
ENDBRANCH  18  25
ENDBRANCH   1  19
TORSDOF 5
