REMARK  Name = ZINC06134098
REMARK  8 active torsions:
REMARK  status: ('A' for Active; 'I' for Inactive)
REMARK    1  A    between atoms: C_1  and  C_2
REMARK    2  A    between atoms: C_2  and  O_3
REMARK    3  A    between atoms: O_3  and  C_4
REMARK    4  A    between atoms: C_11  and  C_16
REMARK    5  A    between atoms: C_16  and  C_18
REMARK    6  A    between atoms: C_16  and  N_73
REMARK    7  A    between atoms: N_22  and  C_23
REMARK    8  A    between atoms: N_31  and  C_34
REMARK                            x       y       z     vdW  Elec       q    Type
REMARK                         _______ _______ _______ _____ _____    ______ ____
ROOT
ATOM      1  C   UNL     1       3.501   2.017   1.237  0.00  0.00    +0.039 C 
ENDROOT
BRANCH   1   9
ATOM      2  C   UNL     1       5.172   7.271   4.070  0.00  0.00    +0.121 A 
ATOM      3  C   UNL     1       4.472   8.127   3.223  0.00  0.00    +0.047 A 
ATOM      4  C   UNL     1       3.734   7.627   2.173  0.00  0.00    +0.030 A 
ATOM      5  C   UNL     1       3.682   6.254   1.952  0.00  0.00    +0.049 A 
ATOM      6  C   UNL     1       4.387   5.386   2.806  0.00  0.00    +0.002 A 
ATOM      7  C   UNL     1       5.134   5.906   3.868  0.00  0.00    +0.055 A 
ATOM      8  C   UNL     1       4.324   3.943   2.561  0.00  0.00    +0.017 A 
ATOM      9  C   UNL     1       3.586   3.495   1.516  0.00  0.00    +0.011 A 
ATOM     10  C   UNL     1       2.902   4.408   0.685  0.00  0.00    +0.251 A 
ATOM     11  O   UNL     1       2.248   3.984  -0.252  0.00  0.00    -0.268 OA
ATOM     12  N   UNL     1       2.949   5.734   0.905  0.00  0.00    -0.322 N 
ATOM     13  H   UNL     1       2.445   6.351   0.301  0.00  0.00    +0.169 HD
BRANCH   2  14
ATOM     14  O   UNL     1       5.895   7.782   5.102  0.00  0.00    -0.492 OA
BRANCH  14  16
ATOM     15  C   UNL     1       6.754   9.588   6.459  0.00  0.00    +0.048 C 
ATOM     16  C   UNL     1       5.892   9.203   5.255  0.00  0.00    +0.225 C 
ENDBRANCH  14  16
ENDBRANCH   2  14
ENDBRANCH   1   9
BRANCH   1  22
ATOM     17  C   UNL     1       1.967   0.187   0.831  0.00  0.00    -0.058 C 
ATOM     18  C   UNL     1       0.487  -0.175   0.687  0.00  0.00    +0.086 C 
ATOM     19  N   UNL     1      -0.214   0.132   1.942  0.00  0.00    -0.333 N 
ATOM     20  C   UNL     1      -0.091   1.558   2.275  0.00  0.00    +0.086 C 
ATOM     21  C   UNL     1       1.389   1.920   2.419  0.00  0.00    -0.058 C 
ATOM     22  N   UNL     1       2.077   1.627   1.144  0.00  0.00    +0.391 N 
ATOM     23  H   UNL     1       1.632   2.167   0.393  0.00  0.00    -0.080 HD
BRANCH  19  24
ATOM     24  C   UNL     1      -1.557  -0.252   1.873  0.00  0.00    +0.030 A 
ATOM     25  C   UNL     1      -2.055  -0.834   0.714  0.00  0.00    +0.026 A 
ATOM     26  C   UNL     1      -3.380  -1.218   0.650  0.00  0.00    +0.040 A 
ATOM     27  C   UNL     1      -4.215  -1.012   1.736  0.00  0.00    +0.124 A 
ATOM     28  C   UNL     1      -3.722  -0.427   2.890  0.00  0.00    +0.040 A 
ATOM     29  C   UNL     1      -2.396  -0.047   2.960  0.00  0.00    +0.026 A 
ATOM     30  F   UNL     1      -5.512  -1.384   1.669  0.00  0.00    -0.205 F 
ENDBRANCH  19  24
ENDBRANCH   1  22
BRANCH   1  31
ATOM     31  C   UNL     1       4.178   1.713  -0.075  0.00  0.00    +0.143 A 
ATOM     32  N   UNL     1       3.685   1.906  -1.274  0.00  0.00    -0.115 NA
ATOM     33  N   UNL     1       4.565   1.523  -2.133  0.00  0.00    -0.023 NA
ATOM     34  N   UNL     1       5.607   1.090  -1.513  0.00  0.00    -0.044 NA
ATOM     35  N   UNL     1       5.410   1.196  -0.242  0.00  0.00    -0.227 N 
BRANCH  35  36
ATOM     36  C   UNL     1       6.347   0.821   0.819  0.00  0.00    +0.111 C 
ATOM     37  C   UNL     1       7.635   1.635   0.673  0.00  0.00    +0.027 C 
ATOM     38  C   UNL     1       8.614   1.243   1.781  0.00  0.00    +0.002 C 
ATOM     39  C   UNL     1       8.939  -0.248   1.671  0.00  0.00    +0.000 C 
ATOM     40  C   UNL     1       7.651  -1.063   1.816  0.00  0.00    +0.002 C 
ATOM     41  C   UNL     1       6.672  -0.670   0.708  0.00  0.00    +0.027 C 
ENDBRANCH  35  36
ENDBRANCH   1  31
TORSDOF 7
