REMARK  Name = ZINC09192217
REMARK  9 active torsions:
REMARK  status: ('A' for Active; 'I' for Inactive)
REMARK    1  A    between atoms: C_1  and  O_2
REMARK    2  A    between atoms: O_2  and  C_3
REMARK    3  A    between atoms: C_6  and  C_9
REMARK    4  A    between atoms: C_12  and  S_15
REMARK    5  A    between atoms: S_15  and  C_16
REMARK    6  A    between atoms: C_16  and  C_17
REMARK    7  A    between atoms: N_19  and  C_20
REMARK    8  A    between atoms: C_22  and  C_32
REMARK    9  A    between atoms: C_25  and  N_26
REMARK                            x       y       z     vdW  Elec       q    Type
REMARK                         _______ _______ _______ _____ _____    ______ ____
ROOT
ATOM      1  C   UNL     1       2.332   5.248  -0.094  0.00  0.00    +0.228 C 
ATOM      2  O   UNL     1       1.272   5.838  -0.081  0.00  0.00    -0.275 OA
ATOM      3  N   UNL     1       2.356   3.904   0.000  0.00  0.00    -0.283 N 
ATOM      4  H   UNL     1       3.204   3.436   0.054  0.00  0.00    +0.155 HD
ENDROOT
BRANCH   3   5
ATOM      5  C   UNL     1       1.155   3.181   0.020  0.00  0.00    +0.055 A 
ATOM      6  C   UNL     1       0.033   3.713   0.638  0.00  0.00    +0.037 A 
ATOM      7  C   UNL     1      -1.150   2.999   0.655  0.00  0.00    +0.057 A 
ATOM      8  C   UNL     1      -1.222   1.756   0.053  0.00  0.00    +0.014 A 
ATOM      9  C   UNL     1      -0.107   1.215  -0.560  0.00  0.00    +0.025 A 
ATOM     10  C   UNL     1       1.085   1.925  -0.583  0.00  0.00    +0.051 A 
BRANCH  10  11
ATOM     11  N   UNL     1       2.212   1.383  -1.208  0.00  0.00    -0.324 N 
ATOM     12  C   UNL     1       1.983   1.208  -2.650  0.00  0.00    +0.133 C 
ATOM     13  C   UNL     1       3.258   0.670  -3.303  0.00  0.00    +0.178 C 
ATOM     14  O   UNL     1       3.637  -0.551  -2.663  0.00  0.00    -0.377 OA
ATOM     15  C   UNL     1       3.869  -0.418  -1.258  0.00  0.00    +0.178 C 
ATOM     16  C   UNL     1       2.599   0.109  -0.584  0.00  0.00    +0.133 C 
ENDBRANCH  10  11
BRANCH   7  17
ATOM     17  C   UNL     1      -2.368   3.579   1.328  0.00  0.00    +0.417 C 
ATOM     18  F   UNL     1      -3.103   4.324   0.399  0.00  0.00    -0.166 F 
ATOM     19  F   UNL     1      -3.163   2.542   1.828  0.00  0.00    -0.166 F 
ATOM     20  F   UNL     1      -1.968   4.410   2.380  0.00  0.00    -0.166 F 
ENDBRANCH   7  17
ENDBRANCH   3   5
BRANCH   1  21
ATOM     21  C   UNL     1       3.621   6.018  -0.216  0.00  0.00    +0.173 C 
BRANCH  21  22
ATOM     22  S   UNL     1       3.260   7.788  -0.323  0.00  0.00    -0.077 S 
BRANCH  22  26
ATOM     23  C   UNL     1       6.619   9.758  -0.639  0.00  0.00    +0.162 A 
ATOM     24  N   UNL     1       5.245   9.743  -0.572  0.00  0.00    -0.316 N 
ATOM     25  H   UNL     1       4.649  10.508  -0.599  0.00  0.00    +0.169 HD
ATOM     26  C   UNL     1       4.896   8.428  -0.454  0.00  0.00    +0.190 A 
ATOM     27  N   UNL     1       6.008   7.728  -0.463  0.00  0.00    -0.122 NA
ATOM     28  N   UNL     1       7.021   8.510  -0.572  0.00  0.00    -0.129 NA
BRANCH  23  32
ATOM     29  C   UNL     1       9.093  13.192  -1.014  0.00  0.00    +0.120 A 
ATOM     30  C   UNL     1       9.666  11.929  -0.954  0.00  0.00    +0.046 A 
ATOM     31  C   UNL     1       8.867  10.812  -0.832  0.00  0.00    +0.015 A 
ATOM     32  C   UNL     1       7.480  10.953  -0.770  0.00  0.00    +0.019 A 
ATOM     33  C   UNL     1       6.907  12.224  -0.836  0.00  0.00    +0.015 A 
ATOM     34  C   UNL     1       7.713  13.336  -0.953  0.00  0.00    +0.046 A 
BRANCH  29  36
ATOM     35  C   UNL     1       9.228  15.559  -1.191  0.00  0.00    +0.277 C 
ATOM     36  O   UNL     1       9.884  14.291  -1.135  0.00  0.00    -0.495 OA
ENDBRANCH  29  36
ENDBRANCH  23  32
ENDBRANCH  22  26
ENDBRANCH  21  22
ENDBRANCH   1  21
TORSDOF 8
