REMARK  Name = ZINC39659417
REMARK  9 active torsions:
REMARK  status: ('A' for Active; 'I' for Inactive)
REMARK    1  A    between atoms: C_1  and  C_2
REMARK    2  A    between atoms: C_2  and  C_34
REMARK    3  A    between atoms: C_5  and  C_8
REMARK    4  A    between atoms: C_8  and  N_9
REMARK    5  A    between atoms: C_10  and  C_12
REMARK    6  A    between atoms: C_23  and  C_25
REMARK    7  A    between atoms: C_29  and  N_31
REMARK    8  A    between atoms: N_31  and  C_32
REMARK    9  A    between atoms: N_31  and  C_33
REMARK                            x       y       z     vdW  Elec       q    Type
REMARK                         _______ _______ _______ _____ _____    ______ ____
ROOT
ATOM      1  C   UNL     1       2.865  -3.460   4.906  0.00  0.00    +0.100 C 
ATOM      2  C   UNL     1       3.553  -4.635   4.175  0.00  0.00    +0.121 C 
ATOM      3  N   UNL     1       4.472  -5.216   5.182  0.00  0.00    -0.296 N 
ATOM      4  C   UNL     1       3.710  -5.160   6.452  0.00  0.00    +0.115 C 
ATOM      5  C   UNL     1       2.970  -3.809   6.400  0.00  0.00    -0.004 C 
ATOM      6  C   UNL     1       1.578  -3.947   7.009  0.00  0.00    -0.010 C 
ATOM      7  C   UNL     1       1.707  -4.236   8.507  0.00  0.00    -0.082 C 
ATOM      8  N   UNL     1       2.441  -3.144   9.157  0.00  0.00    +0.379 N 
ATOM      9  C   UNL     1       3.810  -3.078   8.631  0.00  0.00    -0.082 C 
ATOM     10  C   UNL     1       3.770  -2.740   7.138  0.00  0.00    -0.010 C 
ATOM     11  C   UNL     1       5.719  -5.688   4.987  0.00  0.00    +0.247 C 
ATOM     12  O   UNL     1       6.261  -5.546   3.907  0.00  0.00    -0.270 OA
ATOM     13  H   UNL     1       1.971  -2.270   8.976  0.00  0.00    -0.086 HD
ATOM     14  H   UNL     1       2.473  -3.306  10.152  0.00  0.00    -0.086 HD
ENDROOT
BRANCH  11  15
ATOM     15  C   UNL     1       6.429  -6.377   6.085  0.00  0.00    +0.039 A 
ATOM     16  C   UNL     1       5.711  -6.915   7.154  0.00  0.00    +0.013 A 
ATOM     17  C   UNL     1       6.375  -7.558   8.179  0.00  0.00    +0.003 A 
ATOM     18  C   UNL     1       7.753  -7.671   8.151  0.00  0.00    +0.023 A 
ATOM     19  C   UNL     1       8.478  -7.139   7.091  0.00  0.00    +0.030 A 
ATOM     20  C   UNL     1       7.818  -6.496   6.054  0.00  0.00    +0.036 A 
BRANCH  19  21
ATOM     21  N   UNL     1       9.870  -7.256   7.068  0.00  0.00    -0.336 N 
ATOM     22  C   UNL     1      10.577  -7.811   8.224  0.00  0.00    +0.129 C 
ATOM     23  C   UNL     1      10.621  -6.822   5.888  0.00  0.00    +0.129 C 
ENDBRANCH  19  21
ENDBRANCH  11  15
BRANCH   1  25
ATOM     24  N   UNL     1       0.761  -2.189   4.628  0.00  0.00    -0.312 N 
ATOM     25  C   UNL     1       1.420  -3.357   4.491  0.00  0.00    +0.218 C 
ATOM     26  O   UNL     1       0.850  -4.325   4.033  0.00  0.00    -0.275 OA
ATOM     27  H   UNL     1       1.217  -1.415   4.993  0.00  0.00    +0.149 HD
BRANCH  24  28
ATOM     28  C   UNL     1      -0.643  -2.089   4.224  0.00  0.00    +0.138 C 
BRANCH  28  33
ATOM     29  C   UNL     1      -3.003   0.413   7.326  0.00  0.00    +0.074 C 
ATOM     30  C   UNL     1      -2.217   0.630   6.031  0.00  0.00    +0.165 C 
ATOM     31  O   UNL     1      -3.105   0.548   4.909  0.00  0.00    -0.347 OA
ATOM     32  C   UNL     1      -2.634  -0.523   4.066  0.00  0.00    +0.196 C 
ATOM     33  C   UNL     1      -1.148  -0.668   4.482  0.00  0.00    +0.164 C 
ATOM     34  O   UNL     1      -1.211  -0.389   5.901  0.00  0.00    -0.342 OA
ATOM     35  C   UNL     1      -1.552   2.007   6.059  0.00  0.00    +0.074 C 
ENDBRANCH  28  33
ENDBRANCH  24  28
ENDBRANCH   1  25
TORSDOF 5
