REMARK  Name = ZINC08724007
REMARK  7 active torsions:
REMARK  status: ('A' for Active; 'I' for Inactive)
REMARK    1  A    between atoms: C_1  and  C_2
REMARK    2  A    between atoms: C_2  and  C_3
REMARK    3  A    between atoms: C_3  and  N_4
REMARK    4  A    between atoms: C_12  and  S_13
REMARK    5  A    between atoms: S_13  and  C_14
REMARK    6  A    between atoms: C_14  and  C_16
REMARK    7  A    between atoms: C_14  and  C_17
REMARK                            x       y       z     vdW  Elec       q    Type
REMARK                         _______ _______ _______ _____ _____    ______ ____
ROOT
ATOM      1  S   UNL     1       5.015   2.484  -0.032  0.00  0.00    -0.077 S 
ENDROOT
BRANCH   1  10
ATOM      2  N   UNL     1       2.473   3.615  -0.003  0.00  0.00    -0.319 N 
ATOM      3  C   UNL     1       1.152   3.197   0.008  0.00  0.00    +0.070 A 
ATOM      4  C   UNL     1      -0.065   3.861   0.023  0.00  0.00    +0.029 A 
ATOM      5  C   UNL     1      -1.241   3.139   0.031  0.00  0.00    +0.022 A 
ATOM      6  C   UNL     1      -1.214   1.751   0.017  0.00  0.00    +0.043 A 
ATOM      7  C   UNL     1      -0.013   1.076   0.008  0.00  0.00    +0.050 A 
ATOM      8  C   UNL     1       1.186   1.793   0.000  0.00  0.00    +0.092 A 
ATOM      9  N   UNL     1       2.494   1.425  -0.014  0.00  0.00    -0.222 NA
ATOM     10  C   UNL     1       3.253   2.493  -0.015  0.00  0.00    +0.171 A 
ATOM     11 CL   UNL     1      -2.703   0.860   0.019  0.00  0.00    -0.083 Cl
BRANCH   2  12
ATOM     12  C   UNL     1       2.946   5.002  -0.000  0.00  0.00    +0.124 C 
BRANCH  12  14
ATOM     13  C   UNL     1       3.591   6.939  -1.440  0.00  0.00    +0.005 C 
ATOM     14  C   UNL     1       3.098   5.491  -1.442  0.00  0.00    +0.018 C 
ENDBRANCH  12  14
ENDBRANCH   2  12
ENDBRANCH   1  10
BRANCH   1  15
ATOM     15  C   UNL     1       5.320   0.700  -0.043  0.00  0.00    +0.117 C 
ATOM     16  C   UNL     1       4.817   0.089   1.266  0.00  0.00    +0.027 C 
BRANCH  15  17
ATOM     17  C   UNL     1       6.798   0.444  -0.182  0.00  0.00    +0.124 A 
ATOM     18  N   UNL     1       7.661   1.410   0.229  0.00  0.00    -0.309 N 
ATOM     19  H   UNL     1       7.315   2.237   0.599  0.00  0.00    +0.170 HD
ATOM     20  C   UNL     1       8.998   1.227   0.131  0.00  0.00    +0.259 A 
ATOM     21  O   UNL     1       9.783   2.082   0.498  0.00  0.00    -0.267 OA
ATOM     22  C   UNL     1       9.467  -0.043  -0.444  0.00  0.00    +0.065 A 
ATOM     23  C   UNL     1      10.822  -0.329  -0.594  0.00  0.00    +0.015 A 
ATOM     24  C   UNL     1      11.206  -1.534  -1.139  0.00  0.00    +0.001 A 
ATOM     25  C   UNL     1      10.254  -2.464  -1.538  0.00  0.00    +0.002 A 
ATOM     26  C   UNL     1       8.910  -2.201  -1.398  0.00  0.00    +0.028 A 
ATOM     27  C   UNL     1       8.496  -0.986  -0.848  0.00  0.00    +0.078 A 
ATOM     28  N   UNL     1       7.183  -0.686  -0.692  0.00  0.00    -0.233 NA
ENDBRANCH  15  17
ENDBRANCH   1  15
TORSDOF 5
