REMARK  Name = ZINC20359056
REMARK  7 active torsions:
REMARK  status: ('A' for Active; 'I' for Inactive)
REMARK    1  A    between atoms: C_1  and  C_2
REMARK    2  A    between atoms: C_2  and  N_3
REMARK    3  A    between atoms: C_7  and  C_9
REMARK    4  A    between atoms: C_9  and  C_11
REMARK    5  A    between atoms: C_9  and  N_12
REMARK    6  A    between atoms: N_12  and  C_13
REMARK    7  A    between atoms: C_18  and  C_19
REMARK                            x       y       z     vdW  Elec       q    Type
REMARK                         _______ _______ _______ _____ _____    ______ ____
ROOT
ATOM      1  C   UNL     1      -2.482   0.853   0.018  0.00  0.00    +0.154 C 
ATOM      2  C   UNL     1      -2.545  -0.035   1.263  0.00  0.00    +0.038 C 
ENDROOT
BRANCH   1   7
ATOM      3  N   UNL     1       2.323   0.998  -0.015  0.00  0.00    -0.299 N 
ATOM      4  C   UNL     1       1.147   1.655   0.000  0.00  0.00    +0.306 C 
ATOM      5  O   UNL     1       1.130   2.871   0.007  0.00  0.00    -0.252 OA
ATOM      6  N   UNL     1      -0.011   0.966   0.007  0.00  0.00    -0.239 N 
ATOM      7  C   UNL     1      -1.187   1.624   0.017  0.00  0.00    +0.240 C 
ATOM      8  O   UNL     1      -1.204   2.836   0.023  0.00  0.00    -0.273 OA
ATOM      9  H   UNL     1       2.338  -0.102  -0.021  0.00  0.00    +0.150 HD
ATOM     10  H   UNL     1       0.004  -0.134   0.006  0.00  0.00    +0.159 HD
BRANCH   3  12
ATOM     11  C   UNL     1       4.758   0.769  -0.039  0.00  0.00    +0.024 C 
ATOM     12  C   UNL     1       3.582   1.747  -0.023  0.00  0.00    +0.102 C 
ENDBRANCH   3  12
ENDBRANCH   1   7
BRANCH   1  13
ATOM     13  N   UNL     1      -3.608   1.789   0.029  0.00  0.00    -0.333 N 
ATOM     14  H   UNL     1      -3.477   2.803   0.436  0.00  0.00    +0.147 HD
BRANCH  13  15
ATOM     15  C   UNL     1      -4.849   1.396  -0.479  0.00  0.00    +0.039 A 
ATOM     16  C   UNL     1      -5.016   0.116  -0.994  0.00  0.00    +0.023 A 
ATOM     17  C   UNL     1      -6.244  -0.270  -1.494  0.00  0.00    +0.002 A 
ATOM     18  C   UNL     1      -7.306   0.616  -1.483  0.00  0.00    +0.001 A 
ATOM     19  C   UNL     1      -7.143   1.890  -0.971  0.00  0.00    +0.014 A 
ATOM     20  C   UNL     1      -5.919   2.281  -0.464  0.00  0.00    +0.076 A 
BRANCH  20  21
ATOM     21  C   UNL     1      -5.744   3.667   0.099  0.00  0.00    +0.419 C 
ATOM     22  F   UNL     1      -6.953   4.366   0.004  0.00  0.00    -0.166 F 
ATOM     23  F   UNL     1      -5.360   3.580   1.442  0.00  0.00    -0.166 F 
ATOM     24  F   UNL     1      -4.757   4.344  -0.625  0.00  0.00    -0.166 F 
ENDBRANCH  20  21
ENDBRANCH  13  15
ENDBRANCH   1  13
TORSDOF 5
