REMARK  Name = ZINC06173118
REMARK  12 active torsions:
REMARK  status: ('A' for Active; 'I' for Inactive)
REMARK    1  A    between atoms: C_1  and  C_2
REMARK    2  A    between atoms: C_5  and  S_8
REMARK    3  A    between atoms: S_8  and  C_11
REMARK    4  A    between atoms: C_11  and  N_12
REMARK    5  A    between atoms: C_13  and  C_17
REMARK    6  A    between atoms: C_17  and  C_19
REMARK    7  A    between atoms: C_17  and  N_66
REMARK    8  A    between atoms: C_19  and  C_20
REMARK    9  A    between atoms: C_19  and  C_21
REMARK   10  A    between atoms: N_24  and  C_27
REMARK   11  A    between atoms: C_32  and  O_33
REMARK   12  A    between atoms: O_33  and  C_34
REMARK                            x       y       z     vdW  Elec       q    Type
REMARK                         _______ _______ _______ _____ _____    ______ ____
ROOT
ATOM      1  C   UNL     1      -0.611   1.114   1.176  0.00  0.00    +0.005 C 
ENDROOT
BRANCH   1   7
ATOM      2  C   UNL     1       0.149  -1.117   1.733  0.00  0.00    -0.059 C 
ATOM      3  C   UNL     1       1.178  -1.903   2.549  0.00  0.00    +0.086 C 
ATOM      4  N   UNL     1       0.993  -1.612   3.977  0.00  0.00    -0.331 N 
ATOM      5  C   UNL     1       1.155  -0.175   4.244  0.00  0.00    +0.086 C 
ATOM      6  C   UNL     1       0.126   0.611   3.428  0.00  0.00    -0.059 C 
ATOM      7  N   UNL     1       0.337   0.326   1.993  0.00  0.00    +0.389 N 
ATOM      8  H   UNL     1       1.296   0.589   1.738  0.00  0.00    -0.081 HD
BRANCH   4   9
ATOM      9  C   UNL     1       1.871  -2.369   4.761  0.00  0.00    +0.072 A 
ATOM     10  C   UNL     1       2.882  -3.106   4.161  0.00  0.00    +0.027 A 
ATOM     11  C   UNL     1       3.750  -3.849   4.938  0.00  0.00    +0.002 A 
ATOM     12  C   UNL     1       3.609  -3.868   6.313  0.00  0.00    +0.004 A 
ATOM     13  C   UNL     1       2.600  -3.141   6.918  0.00  0.00    +0.047 A 
ATOM     14  C   UNL     1       1.729  -2.390   6.147  0.00  0.00    +0.141 A 
BRANCH  14  15
ATOM     15  O   UNL     1       0.736  -1.674   6.741  0.00  0.00    -0.493 OA
ATOM     16  C   UNL     1       0.651  -1.743   8.166  0.00  0.00    +0.277 C 
ENDBRANCH  14  15
ENDBRANCH   4   9
ENDBRANCH   1   7
BRANCH   1  18
ATOM     17  N   UNL     1      -2.965   1.429   2.105  0.00  0.00    -0.209 N 
ATOM     18  C   UNL     1      -2.030   0.700   1.468  0.00  0.00    +0.140 A 
ATOM     19  N   UNL     1      -2.595  -0.438   1.147  0.00  0.00    -0.115 NA
ATOM     20  N   UNL     1      -3.811  -0.412   1.572  0.00  0.00    -0.023 NA
ATOM     21  N   UNL     1      -4.039   0.716   2.148  0.00  0.00    -0.042 NA
BRANCH  17  22
ATOM     22  C   UNL     1      -2.795   2.780   2.647  0.00  0.00    +0.318 C 
BRANCH  22  23
ATOM     23  S   UNL     1      -3.414   3.994   1.450  0.00  0.00    +0.017 S 
ATOM     24  O   UNL     1      -2.642   3.944   0.258  0.00  0.00    -0.168 OA
ATOM     25  O   UNL     1      -4.833   3.949   1.396  0.00  0.00    -0.168 OA
BRANCH  23  30
ATOM     26  C   UNL     1      -2.134   9.364   3.885  0.00  0.00    +0.044 C 
ATOM     27  C   UNL     1      -2.454   8.023   3.277  0.00  0.00    -0.050 A 
ATOM     28  C   UNL     1      -1.538   7.405   2.446  0.00  0.00    +0.005 A 
ATOM     29  C   UNL     1      -1.831   6.175   1.888  0.00  0.00    +0.027 A 
ATOM     30  C   UNL     1      -3.040   5.562   2.161  0.00  0.00    +0.090 A 
ATOM     31  C   UNL     1      -3.958   6.183   2.988  0.00  0.00    +0.027 A 
ATOM     32  C   UNL     1      -3.663   7.411   3.549  0.00  0.00    +0.005 A 
ENDBRANCH  23  30
ENDBRANCH  22  23
ENDBRANCH  17  22
ENDBRANCH   1  18
BRANCH   1  33
ATOM     33  C   UNL     1      -0.305   0.877  -0.304  0.00  0.00    -0.024 C 
ATOM     34  C   UNL     1       1.169   1.186  -0.576  0.00  0.00    +0.006 C 
ATOM     35  C   UNL     1      -1.184   1.792  -1.159  0.00  0.00    +0.006 C 
ENDBRANCH   1  33
TORSDOF 8
