REMARK  Name = ZINC59884582
REMARK  12 active torsions:
REMARK  status: ('A' for Active; 'I' for Inactive)
REMARK    1  A    between atoms: C_1  and  C_2
REMARK    2  A    between atoms: C_2  and  C_4
REMARK    3  A    between atoms: C_2  and  S_18
REMARK    4  A    between atoms: N_6  and  N_7
REMARK    5  A    between atoms: C_8  and  C_9
REMARK    6  A    between atoms: C_14  and  N_15
REMARK    7  A    between atoms: S_18  and  C_19
REMARK    8  A    between atoms: C_22  and  C_27
REMARK    9  A    between atoms: N_23  and  C_24
REMARK   10  A    between atoms: C_24  and  C_25
REMARK   11  A    between atoms: C_27  and  N_28
REMARK   12  A    between atoms: N_28  and  C_29
REMARK                            x       y       z     vdW  Elec       q    Type
REMARK                         _______ _______ _______ _____ _____    ______ ____
ROOT
ATOM      1  S   UNL     1       0.906  -0.785  -1.452  0.00  0.00    -0.073 S 
ENDROOT
BRANCH   1   2
ATOM      2  C   UNL     1       2.571  -0.245  -1.243  0.00  0.00    +0.193 A 
ATOM      3  N   UNL     1       3.046   0.447  -0.234  0.00  0.00    -0.122 NA
ATOM      4  N   UNL     1       4.300   0.667  -0.408  0.00  0.00    -0.132 NA
ATOM      5  C   UNL     1       4.697   0.132  -1.528  0.00  0.00    +0.152 A 
ATOM      6  N   UNL     1       3.611  -0.473  -2.098  0.00  0.00    -0.301 N 
BRANCH   6   7
ATOM      7  C   UNL     1       3.572  -1.210  -3.363  0.00  0.00    +0.152 C 
BRANCH   7   8
ATOM      8  C   UNL     1       3.255  -0.259  -4.488  0.00  0.00    -0.013 C 
ATOM      9  C   UNL     1       4.054  -0.179  -5.523  0.00  0.00    +0.005 C 
ENDBRANCH   7   8
ENDBRANCH   6   7
BRANCH   5  10
ATOM     10  C   UNL     1       6.096   0.169  -2.089  0.00  0.00    +0.178 C 
BRANCH  10  11
ATOM     11  N   UNL     1       6.846  -0.993  -1.605  0.00  0.00    -0.337 N 
ATOM     12  H   UNL     1       6.420  -1.635  -1.016  0.00  0.00    +0.147 HD
BRANCH  11  13
ATOM     13  C   UNL     1       8.176  -1.177  -1.994  0.00  0.00    +0.028 A 
ATOM     14  C   UNL     1       8.789  -0.256  -2.833  0.00  0.00    +0.024 A 
ATOM     15  C   UNL     1      10.103  -0.440  -3.215  0.00  0.00    +0.022 A 
ATOM     16  C   UNL     1      10.809  -1.541  -2.763  0.00  0.00    +0.041 A 
ATOM     17  C   UNL     1      10.201  -2.460  -1.926  0.00  0.00    +0.022 A 
ATOM     18  C   UNL     1       8.888  -2.278  -1.536  0.00  0.00    +0.024 A 
ATOM     19 CL   UNL     1      12.461  -1.770  -3.245  0.00  0.00    -0.084 Cl
ENDBRANCH  11  13
ENDBRANCH  10  11
ENDBRANCH   5  10
ENDBRANCH   1   2
BRANCH   1  21
ATOM     20  C   UNL     1       0.055   1.374  -0.005  0.00  0.00    +0.029 C 
ATOM     21  C   UNL     1       0.053  -0.156   0.020  0.00  0.00    +0.139 C 
BRANCH  21  22
ATOM     22  C   UNL     1      -1.368  -0.656   0.029  0.00  0.00    +0.245 C 
ATOM     23  O   UNL     1      -1.881  -1.046  -0.999  0.00  0.00    -0.273 OA
ATOM     24  N   UNL     1      -2.071  -0.670   1.179  0.00  0.00    -0.206 N 
ATOM     25  H   UNL     1      -1.661  -0.358   2.001  0.00  0.00    +0.177 HD
BRANCH  24  26
ATOM     26  N   UNL     1      -3.392  -1.135   1.187  0.00  0.00    -0.188 NA
ATOM     27  C   UNL     1      -4.068  -1.148   2.295  0.00  0.00    +0.140 C 
BRANCH  27  28
ATOM     28  C   UNL     1      -5.460  -1.638   2.304  0.00  0.00    +0.025 A 
ATOM     29  C   UNL     1      -6.093  -1.973   1.104  0.00  0.00    +0.012 A 
ATOM     30  C   UNL     1      -7.394  -2.430   1.120  0.00  0.00    +0.001 A 
ATOM     31  C   UNL     1      -8.072  -2.556   2.320  0.00  0.00    +0.002 A 
ATOM     32  C   UNL     1      -7.451  -2.226   3.511  0.00  0.00    +0.033 A 
ATOM     33  C   UNL     1      -6.148  -1.774   3.511  0.00  0.00    +0.135 A 
BRANCH  33  34
ATOM     34  N   UNL     1      -5.483  -1.427   4.787  0.00  0.00    +0.057 N 
ATOM     35  O   UNL     1      -6.039  -1.647   5.838  0.00  0.00    -0.126 OA
ATOM     36  O   UNL     1      -4.383  -0.925   4.779  0.00  0.00    -0.126 OA
ENDBRANCH  33  34
ENDBRANCH  27  28
ENDBRANCH  24  26
ENDBRANCH  21  22
ENDBRANCH   1  21
TORSDOF 11
