REMARK  Name = ZINC01107208
REMARK  6 active torsions:
REMARK  status: ('A' for Active; 'I' for Inactive)
REMARK    1  A    between atoms: C_1  and  C_2
REMARK    2  A    between atoms: C_3  and  C_24
REMARK    3  A    between atoms: C_4  and  C_14
REMARK    4  A    between atoms: C_18  and  N_20
REMARK    5  A    between atoms: C_24  and  O_26
REMARK    6  A    between atoms: O_26  and  C_27
REMARK                            x       y       z     vdW  Elec       q    Type
REMARK                         _______ _______ _______ _____ _____    ______ ____
ROOT
ATOM      1  C   UNL     1       5.421   2.352   2.846  0.00  0.00    +0.061 C 
ATOM      2  C   UNL     1       4.114   1.654   2.575  0.00  0.00    +0.016 C 
ATOM      3  C   UNL     1       3.959   0.366   2.926  0.00  0.00    +0.065 C 
ATOM      4  C   UNL     1       2.670  -0.359   2.678  0.00  0.00    +0.092 C 
ATOM      5  C   UNL     1       1.827   0.367   1.659  0.00  0.00    +0.024 C 
ATOM      6  C   UNL     1       2.072   1.660   1.358  0.00  0.00    +0.015 C 
ATOM      7  N   UNL     1       3.093   2.335   1.972  0.00  0.00    -0.321 N 
ATOM      8  C   UNL     1       1.237   2.392   0.337  0.00  0.00    +0.051 C 
ATOM      9  C   UNL     1      -0.185   1.826   0.335  0.00  0.00    +0.014 C 
ATOM     10  C   UNL     1      -0.110   0.327   0.024  0.00  0.00    +0.080 C 
ATOM     11  C   UNL     1       0.783  -0.338   1.036  0.00  0.00    +0.162 C 
ATOM     12  O   UNL     1       0.599  -1.505   1.319  0.00  0.00    -0.292 OA
ATOM     13  H   UNL     1       3.087   3.435   1.977  0.00  0.00    +0.152 HD
ENDROOT
BRANCH   4  14
ATOM     14  C   UNL     1       1.903  -0.461   3.971  0.00  0.00    -0.033 A 
ATOM     15  C   UNL     1       1.496   0.687   4.625  0.00  0.00    +0.006 A 
ATOM     16  C   UNL     1       0.793   0.595   5.811  0.00  0.00    +0.022 A 
ATOM     17  C   UNL     1       0.497  -0.647   6.345  0.00  0.00    +0.071 A 
ATOM     18  C   UNL     1       0.905  -1.795   5.690  0.00  0.00    +0.145 A 
ATOM     19  C   UNL     1       1.603  -1.702   4.500  0.00  0.00    +0.038 A 
ATOM     20 CL   UNL     1      -0.385  -0.764   7.835  0.00  0.00    -0.081 Cl
BRANCH  18  21
ATOM     21  N   UNL     1       0.588  -3.124   6.260  0.00  0.00    +0.058 N 
ATOM     22  O   UNL     1       0.946  -4.135   5.683  0.00  0.00    -0.126 OA
ATOM     23  O   UNL     1      -0.032  -3.207   7.305  0.00  0.00    -0.126 OA
ENDBRANCH  18  21
ENDBRANCH   4  14
BRANCH   3  24
ATOM     24  C   UNL     1       5.033  -0.320   3.541  0.00  0.00    +0.337 C 
ATOM     25  O   UNL     1       6.122   0.216   3.637  0.00  0.00    -0.245 OA
BRANCH  24  26
ATOM     26  O   UNL     1       4.851  -1.567   4.021  0.00  0.00    -0.465 OA
ATOM     27  C   UNL     1       5.979  -2.200   4.629  0.00  0.00    +0.280 C 
ENDBRANCH  24  26
ENDBRANCH   3  24
TORSDOF 4
