REMARK  Name = ZINC63385623
REMARK  14 active torsions:
REMARK  status: ('A' for Active; 'I' for Inactive)
REMARK    1  A    between atoms: C_1  and  C_2
REMARK    2  A    between atoms: C_7  and  O_36
REMARK    3  A    between atoms: C_8  and  O_32
REMARK    4  A    between atoms: C_13  and  C_15
REMARK    5  A    between atoms: C_15  and  C_16
REMARK    6  A    between atoms: N_18  and  C_19
REMARK    7  A    between atoms: C_19  and  C_20
REMARK    8  A    between atoms: C_20  and  C_21
REMARK    9  A    between atoms: C_24  and  O_30
REMARK   10  A    between atoms: O_30  and  C_31
REMARK   11  A    between atoms: O_32  and  C_33
REMARK   12  A    between atoms: C_33  and  C_35
REMARK   13  A    between atoms: O_36  and  C_37
REMARK   14  A    between atoms: C_37  and  C_39
REMARK                            x       y       z     vdW  Elec       q    Type
REMARK                         _______ _______ _______ _____ _____    ______ ____
ROOT
ATOM      1  C   UNL     1       0.002   1.490   0.078  0.00  0.00    +0.013 C 
ATOM      2  C   UNL     1       0.014  -0.039   0.024  0.00  0.00    +0.034 C 
ATOM      3  C   UNL     1      -1.405  -0.551   0.024  0.00  0.00    +0.003 A 
ATOM      4  C   UNL     1      -2.354   0.136  -0.719  0.00  0.00    +0.011 A 
ATOM      5  C   UNL     1      -3.664  -0.298  -0.756  0.00  0.00    +0.051 A 
ATOM      6  C   UNL     1      -4.040  -1.429  -0.048  0.00  0.00    +0.177 A 
ATOM      7  C   UNL     1      -3.095  -2.120   0.700  0.00  0.00    +0.216 A 
ATOM      8  C   UNL     1      -1.774  -1.676   0.739  0.00  0.00    +0.181 A 
ATOM      9  O   UNL     1      -0.882  -2.369   1.498  0.00  0.00    -0.421 OA
ATOM     10  C   UNL     1       0.422  -2.057   1.369  0.00  0.00    +0.317 C 
ATOM     11  O   UNL     1       1.279  -2.909   1.353  0.00  0.00    -0.250 OA
ATOM     12  C   UNL     1       0.763  -0.586   1.243  0.00  0.00    +0.114 C 
ENDROOT
BRANCH  12  13
ATOM     13  C   UNL     1       0.318   0.160   2.503  0.00  0.00    +0.111 C 
BRANCH  13  14
ATOM     14  C   UNL     1       1.146  -0.297   3.676  0.00  0.00    +0.214 C 
ATOM     15  O   UNL     1       2.007  -1.137   3.520  0.00  0.00    -0.276 OA
ATOM     16  N   UNL     1       0.929   0.227   4.899  0.00  0.00    -0.315 N 
ATOM     17  H   UNL     1       0.241   0.898   5.024  0.00  0.00    +0.149 HD
BRANCH  16  18
ATOM     18  C   UNL     1       1.734  -0.218   6.039  0.00  0.00    +0.108 C 
BRANCH  18  19
ATOM     19  C   UNL     1       1.290   0.528   7.299  0.00  0.00    +0.052 C 
BRANCH  19  20
ATOM     20  C   UNL     1       2.117   0.070   8.472  0.00  0.00    -0.040 C 
ATOM     21  C   UNL     1       3.232   0.660   8.960  0.00  0.00    +0.002 A 
ATOM     22  C   UNL     1       3.981   1.857   8.561  0.00  0.00    +0.055 A 
ATOM     23  C   UNL     1       5.090   2.212   9.254  0.00  0.00    +0.121 A 
ATOM     24  C   UNL     1       5.557   1.471  10.353  0.00  0.00    +0.047 A 
ATOM     25  C   UNL     1       4.937   0.356  10.795  0.00  0.00    +0.029 A 
ATOM     26  C   UNL     1       3.726  -0.120  10.118  0.00  0.00    +0.043 A 
ATOM     27  N   UNL     1       2.947  -1.150  10.338  0.00  0.00    -0.380 N 
ATOM     28  C   UNL     1       1.865  -1.138   9.347  0.00  0.00    +0.144 C 
ATOM     29  H   UNL     1       3.064  -1.808  11.041  0.00  0.00    +0.160 HD
BRANCH  23  30
ATOM     30  O   UNL     1       5.774   3.323   8.872  0.00  0.00    -0.495 OA
ATOM     31  C   UNL     1       6.937   3.661   9.631  0.00  0.00    +0.277 C 
ENDBRANCH  23  30
ENDBRANCH  19  20
ENDBRANCH  18  19
ENDBRANCH  16  18
ENDBRANCH  13  14
ENDBRANCH  12  13
BRANCH   7  32
ATOM     32  O   UNL     1      -3.459  -3.230   1.396  0.00  0.00    -0.418 OA
BRANCH  32  33
ATOM     33  C   UNL     1      -3.375  -4.418   0.777  0.00  0.00    +0.309 C 
ATOM     34  O   UNL     1      -2.983  -4.477  -0.369  0.00  0.00    -0.251 OA
ATOM     35  C   UNL     1      -3.767  -5.677   1.506  0.00  0.00    +0.136 C 
ENDBRANCH  32  33
ENDBRANCH   7  32
BRANCH   6  36
ATOM     36  O   UNL     1      -5.329  -1.861  -0.085  0.00  0.00    -0.422 OA
BRANCH  36  37
ATOM     37  C   UNL     1      -6.136  -1.528   0.935  0.00  0.00    +0.309 C 
ATOM     38  O   UNL     1      -5.740  -0.782   1.799  0.00  0.00    -0.251 OA
ATOM     39  C   UNL     1      -7.535  -2.084   1.002  0.00  0.00    +0.136 C 
ENDBRANCH  36  37
ENDBRANCH   6  36
TORSDOF 10
