REMARK  Name = ZINC42010836
REMARK  6 active torsions:
REMARK  status: ('A' for Active; 'I' for Inactive)
REMARK    1  A    between atoms: C_1  and  C_2
REMARK    2  A    between atoms: C_2  and  C_3
REMARK    3  A    between atoms: C_2  and  C_10
REMARK    4  A    between atoms: C_2  and  S_13
REMARK    5  A    between atoms: S_13  and  C_14
REMARK    6  A    between atoms: C_20  and  N_22
REMARK                            x       y       z     vdW  Elec       q    Type
REMARK                         _______ _______ _______ _____ _____    ______ ____
ROOT
ATOM      1  C   UNL     1      -0.019   1.526   0.010  0.00  0.00    +0.040 C 
ATOM      2  C   UNL     1       0.002  -0.004   0.002  0.00  0.00    +0.147 C 
ENDROOT
BRANCH   2   3
ATOM      3  C   UNL     1       0.731  -0.503   1.223  0.00  0.00    -0.020 A 
ATOM      4  C   UNL     1       1.248   0.398   2.135  0.00  0.00    +0.008 A 
ATOM      5  C   UNL     1       1.916  -0.059   3.256  0.00  0.00    +0.038 A 
ATOM      6  C   UNL     1       2.068  -1.419   3.464  0.00  0.00    +0.123 A 
ATOM      7  C   UNL     1       1.550  -2.321   2.549  0.00  0.00    +0.038 A 
ATOM      8  C   UNL     1       0.877  -1.862   1.433  0.00  0.00    +0.008 A 
ATOM      9  F   UNL     1       2.721  -1.867   4.558  0.00  0.00    -0.205 F 
ENDBRANCH   2   3
BRANCH   2  10
ATOM     10  C   UNL     1      -1.412  -0.526   0.013  0.00  0.00    +0.376 C 
ATOM     11  O   UNL     1      -1.810  -1.227  -0.902  0.00  0.00    -0.244 OA
ATOM     12  O   UNL     1      -2.158  -0.246   0.936  0.00  0.00    -0.244 OA
ENDBRANCH   2  10
BRANCH   2  13
ATOM     13  S   UNL     1       0.851  -0.589  -1.490  0.00  0.00    -0.065 S 
BRANCH  13  14
ATOM     14  C   UNL     1      -0.109   0.069  -2.813  0.00  0.00    +0.172 A 
ATOM     15  N   UNL     1       0.258  -0.192  -4.099  0.00  0.00    -0.302 N 
ATOM     16  H   UNL     1       1.041  -0.735  -4.277  0.00  0.00    +0.171 HD
ATOM     17  C   UNL     1      -0.466   0.304  -5.124  0.00  0.00    +0.254 A 
ATOM     18  O   UNL     1      -0.144   0.075  -6.279  0.00  0.00    -0.268 OA
ATOM     19  C   UNL     1      -1.591   1.085  -4.841  0.00  0.00    +0.113 A 
ATOM     20  C   UNL     1      -1.923   1.321  -3.514  0.00  0.00    +0.124 A 
ATOM     21  N   UNL     1      -1.171   0.799  -2.538  0.00  0.00    -0.209 NA
BRANCH  20  22
ATOM     22  N   UNL     1      -3.028   2.087  -3.202  0.00  0.00    -0.343 N 
ATOM     23  H   UNL     1      -3.574   2.462  -3.911  0.00  0.00    +0.144 HD
ATOM     24  H   UNL     1      -3.258   2.251  -2.274  0.00  0.00    +0.144 HD
ENDBRANCH  20  22
ENDBRANCH  13  14
ENDBRANCH   2  13
TORSDOF 5
