REMARK  Name = ZINC38731683
REMARK  8 active torsions:
REMARK  status: ('A' for Active; 'I' for Inactive)
REMARK    1  A    between atoms: C_1  and  C_2
REMARK    2  A    between atoms: C_5  and  C_33
REMARK    3  A    between atoms: C_6  and  O_8
REMARK    4  A    between atoms: O_8  and  C_9
REMARK    5  A    between atoms: C_9  and  C_10
REMARK    6  A    between atoms: N_12  and  C_13
REMARK    7  A    between atoms: C_21  and  C_22
REMARK    8  A    between atoms: C_22  and  C_24
REMARK                            x       y       z     vdW  Elec       q    Type
REMARK                         _______ _______ _______ _____ _____    ______ ____
ROOT
ATOM      1  C   UNL     1       0.147  -3.286   7.082  0.00  0.00    +0.091 A 
ATOM      2  C   UNL     1      -0.166  -2.978   8.482  0.00  0.00    +0.042 A 
ATOM      3  C   UNL     1      -0.634  -1.842   9.144  0.00  0.00    +0.013 A 
ATOM      4  C   UNL     1      -0.829  -1.877  10.496  0.00  0.00    +0.001 A 
ATOM      5  C   UNL     1      -0.563  -3.035  11.214  0.00  0.00    +0.004 A 
ATOM      6  C   UNL     1      -0.100  -4.167  10.579  0.00  0.00    +0.047 A 
ATOM      7  C   UNL     1       0.105  -4.155   9.204  0.00  0.00    +0.138 A 
ATOM      8  O   UNL     1       0.540  -5.088   8.333  0.00  0.00    -0.450 OA
ATOM      9  C   UNL     1       0.568  -4.601   7.072  0.00  0.00    +0.197 A 
ENDROOT
BRANCH   1  12
ATOM     10  C   UNL     1       0.293  -1.117   6.137  0.00  0.00    +0.255 C 
ATOM     11  O   UNL     1       0.525  -0.662   7.237  0.00  0.00    -0.272 OA
ATOM     12  N   UNL     1       0.038  -2.433   5.992  0.00  0.00    -0.279 N 
ATOM     13  H   UNL     1      -0.223  -2.784   5.126  0.00  0.00    +0.155 HD
BRANCH  10  14
ATOM     14  C   UNL     1       0.292  -0.212   4.932  0.00  0.00    +0.324 C 
BRANCH  14  15
ATOM     15  O   UNL     1       0.588   1.125   5.340  0.00  0.00    -0.482 OA
BRANCH  15  21
ATOM     16  C   UNL     1       0.161   2.310   0.625  0.00  0.00    +0.044 C 
ATOM     17  C   UNL     1       0.423   2.689   2.060  0.00  0.00    -0.047 A 
ATOM     18  C   UNL     1       0.704   4.003   2.387  0.00  0.00    +0.004 A 
ATOM     19  C   UNL     1       0.945   4.354   3.702  0.00  0.00    +0.007 A 
ATOM     20  C   UNL     1       0.907   3.392   4.693  0.00  0.00    -0.009 A 
ATOM     21  C   UNL     1       0.626   2.073   4.367  0.00  0.00    +0.124 A 
ATOM     22  C   UNL     1       0.378   1.725   3.047  0.00  0.00    +0.049 A 
ATOM     23  C   UNL     1       1.171   3.775   6.127  0.00  0.00    +0.047 C 
ENDBRANCH  15  21
ENDBRANCH  14  15
ENDBRANCH  10  14
ENDBRANCH   1  12
BRANCH   9  24
ATOM     24  C   UNL     1       0.969  -5.325   5.922  0.00  0.00    +0.230 C 
ATOM     25  O   UNL     1       1.055  -4.761   4.846  0.00  0.00    -0.283 OA
BRANCH  24  26
ATOM     26  C   UNL     1       1.284  -6.765   6.029  0.00  0.00    +0.029 A 
ATOM     27  C   UNL     1       1.306  -7.386   7.280  0.00  0.00    +0.015 A 
ATOM     28  C   UNL     1       1.599  -8.729   7.377  0.00  0.00    +0.050 A 
ATOM     29  C   UNL     1       1.872  -9.469   6.234  0.00  0.00    +0.166 A 
ATOM     30  C   UNL     1       1.851  -8.854   4.981  0.00  0.00    +0.167 A 
ATOM     31  C   UNL     1       1.553  -7.510   4.878  0.00  0.00    +0.061 A 
ATOM     32  O   UNL     1       2.150  -9.789   4.032  0.00  0.00    -0.453 OA
ATOM     33  C   UNL     1       2.754 -10.883   4.748  0.00  0.00    +0.466 C 
ATOM     34  O   UNL     1       2.184 -10.786   6.067  0.00  0.00    -0.453 OA
ENDBRANCH  24  26
ENDBRANCH   9  24
TORSDOF 6
