REMARK  Name = ZINC08237759
REMARK  4 active torsions:
REMARK  status: ('A' for Active; 'I' for Inactive)
REMARK    1  A    between atoms: C_1  and  C_2
REMARK    2  A    between atoms: C_2  and  C_4
REMARK    3  A    between atoms: C_2  and  N_13
REMARK    4  A    between atoms: C_14  and  C_16
REMARK                            x       y       z     vdW  Elec       q    Type
REMARK                         _______ _______ _______ _____ _____    ______ ____
ROOT
ATOM      1  N   UNL     1       5.490  -1.832   2.795  0.00  0.00    -0.302 N 
ATOM      2  C   UNL     1       5.076  -0.664   2.264  0.00  0.00    +0.245 C 
ATOM      3  O   UNL     1       5.817   0.300   2.265  0.00  0.00    -0.270 OA
ATOM      4  H   UNL     1       4.899  -2.601   2.794  0.00  0.00    +0.150 HD
ENDROOT
BRANCH   2   5
ATOM      5  C   UNL     1       3.724  -0.555   1.682  0.00  0.00    +0.040 A 
ATOM      6  C   UNL     1       2.871  -1.662   1.681  0.00  0.00    +0.017 A 
ATOM      7  C   UNL     1       1.610  -1.558   1.138  0.00  0.00    +0.050 A 
ATOM      8  C   UNL     1       1.181  -0.357   0.590  0.00  0.00    +0.166 A 
ATOM      9  C   UNL     1       2.028   0.752   0.588  0.00  0.00    +0.167 A 
ATOM     10  C   UNL     1       3.294   0.655   1.131  0.00  0.00    +0.062 A 
ATOM     11  O   UNL     1       1.376   1.797  -0.001  0.00  0.00    -0.453 OA
ATOM     12  C   UNL     1      -0.017   1.435   0.010  0.00  0.00    +0.466 C 
ATOM     13  O   UNL     1       0.002  -0.004   0.002  0.00  0.00    -0.453 OA
ENDBRANCH   2   5
BRANCH   1  15
ATOM     14  C   UNL     1       7.840  -2.255   2.265  0.00  0.00    +0.036 C 
ATOM     15  C   UNL     1       6.832  -1.940   3.373  0.00  0.00    +0.136 C 
BRANCH  15  16
ATOM     16  C   UNL     1       6.850  -3.044   4.398  0.00  0.00    +0.126 A 
ATOM     17  C   UNL     1       7.499  -2.993   5.569  0.00  0.00    +0.055 A 
ATOM     18  C   UNL     1       7.239  -4.274   6.237  0.00  0.00    +0.020 A 
ATOM     19  C   UNL     1       7.619  -4.832   7.457  0.00  0.00    +0.011 A 
ATOM     20  C   UNL     1       7.197  -6.090   7.787  0.00  0.00    +0.001 A 
ATOM     21  C   UNL     1       6.396  -6.814   6.916  0.00  0.00    +0.004 A 
ATOM     22  C   UNL     1       6.011  -6.279   5.705  0.00  0.00    +0.047 A 
ATOM     23  C   UNL     1       6.428  -5.002   5.351  0.00  0.00    +0.135 A 
ATOM     24  O   UNL     1       6.222  -4.226   4.267  0.00  0.00    -0.458 OA
ENDBRANCH  15  16
ENDBRANCH   1  15
TORSDOF 3
