REMARK  Name = ZINC12451236
REMARK  8 active torsions:
REMARK  status: ('A' for Active; 'I' for Inactive)
REMARK    1  A    between atoms: C_1  and  C_2
REMARK    2  A    between atoms: C_6  and  S_29
REMARK    3  A    between atoms: C_16  and  N_60
REMARK    4  A    between atoms: C_20  and  C_22
REMARK    5  A    between atoms: C_20  and  C_23
REMARK    6  A    between atoms: C_20  and  N_60
REMARK    7  A    between atoms: C_23  and  C_24
REMARK    8  A    between atoms: S_29  and  C_32
REMARK                            x       y       z     vdW  Elec       q    Type
REMARK                         _______ _______ _______ _____ _____    ______ ____
ROOT
ATOM      1  C   UNL     1      -1.440   5.546  -5.359  0.00  0.00    +0.066 C 
ATOM      2  C   UNL     1      -0.821   4.278  -4.830  0.00  0.00    +0.051 A 
ATOM      3  C   UNL     1      -0.361   3.280  -5.709  0.00  0.00    +0.022 A 
ATOM      4  C   UNL     1      -0.454   3.415  -7.102  0.00  0.00    +0.013 A 
ATOM      5  C   UNL     1       0.009   2.417  -7.905  0.00  0.00    +0.028 A 
ATOM      6  C   UNL     1       0.572   1.264  -7.363  0.00  0.00    +0.090 A 
ATOM      7  C   UNL     1       0.677   1.099  -6.015  0.00  0.00    +0.055 A 
ATOM      8  C   UNL     1       0.212   2.106  -5.156  0.00  0.00    +0.078 A 
ATOM      9  N   UNL     1       0.297   1.997  -3.824  0.00  0.00    -0.214 NA
ATOM     10  C   UNL     1      -0.156   2.963  -3.049  0.00  0.00    +0.219 A 
ATOM     11  N   UNL     1      -0.699   4.078  -3.534  0.00  0.00    -0.219 NA
ATOM     12  N   UNL     1      -0.057   2.815  -1.678  0.00  0.00    -0.300 N 
ATOM     13  C   UNL     1      -0.722   1.575  -1.230  0.00  0.00    +0.108 C 
ATOM     14  C   UNL     1      -0.013   1.086   0.008  0.00  0.00    +0.017 C 
ATOM     15  C   UNL     1      -0.712   1.571   1.289  0.00  0.00    -0.014 C 
ATOM     16  C   UNL     1      -1.178   3.036   1.173  0.00  0.00    -0.070 C 
ATOM     17  C   UNL     1      -0.160   3.917   0.494  0.00  0.00    +0.003 C 
ATOM     18  C   UNL     1      -0.473   3.974  -1.017  0.00  0.00    +0.106 C 
ENDROOT
BRANCH   6  19
ATOM     19  S   UNL     1       1.158  -0.003  -8.439  0.00  0.00    -0.006 S 
ATOM     20  O   UNL     1       1.480   0.669  -9.649  0.00  0.00    -0.170 OA
ATOM     21  O   UNL     1       2.164  -0.675  -7.693  0.00  0.00    -0.170 OA
ATOM     22  C   UNL     1      -0.268  -1.096  -8.692  0.00  0.00    +0.200 C 
ENDBRANCH   6  19
BRANCH  16  23
ATOM     23  N   UNL     1      -1.429   3.556   2.530  0.00  0.00    +0.383 N 
ATOM     24  H   UNL     1      -0.557   3.942   2.912  0.00  0.00    -0.085 HD
ATOM     25  H   UNL     1      -1.757   2.791   3.131  0.00  0.00    -0.085 HD
BRANCH  23  26
ATOM     26  C   UNL     1      -2.454   4.616   2.491  0.00  0.00    -0.070 C 
ATOM     27  C   UNL     1      -3.846   3.983   2.543  0.00  0.00    -0.013 C 
BRANCH  26  28
ATOM     28  C   UNL     1      -2.268   5.540   3.696  0.00  0.00    +0.019 C 
BRANCH  28  29
ATOM     29  C   UNL     1      -0.947   6.256   3.581  0.00  0.00    -0.042 A 
ATOM     30  C   UNL     1       0.198   5.709   4.127  0.00  0.00    +0.011 A 
ATOM     31  C   UNL     1       1.371   6.377   4.001  0.00  0.00    +0.045 A 
ATOM     32  S   UNL     1       0.871   7.834   3.099  0.00  0.00    -0.105 S 
ATOM     33  C   UNL     1      -0.866   7.451   2.945  0.00  0.00    +0.048 A 
ENDBRANCH  28  29
ENDBRANCH  26  28
ENDBRANCH  23  26
ENDBRANCH  16  23
TORSDOF 5
