REMARK  Name = ZINC45898928
REMARK  13 active torsions:
REMARK  status: ('A' for Active; 'I' for Inactive)
REMARK    1  A    between atoms: C_1  and  C_2
REMARK    2  A    between atoms: C_2  and  C_4
REMARK    3  A    between atoms: C_2  and  N_12
REMARK    4  A    between atoms: C_4  and  C_5
REMARK    5  A    between atoms: C_5  and  C_6
REMARK    6  A    between atoms: C_13  and  C_15
REMARK    7  A    between atoms: C_15  and  N_16
REMARK    8  A    between atoms: N_25  and  C_28
REMARK    9  A    between atoms: C_28  and  C_29
REMARK   10  A    between atoms: C_29  and  C_30
REMARK   11  A    between atoms: C_30  and  C_31
REMARK   12  A    between atoms: C_31  and  C_32
REMARK   13  A    between atoms: N_34  and  C_35
REMARK                            x       y       z     vdW  Elec       q    Type
REMARK                         _______ _______ _______ _____ _____    ______ ____
ROOT
ATOM      1  N   UNL     1      -0.240  -1.150  -4.711  0.00  0.00    -0.284 N 
ATOM      2  C   UNL     1      -0.963  -2.312  -4.939  0.00  0.00    +0.059 A 
ATOM      3  C   UNL     1      -0.809  -3.432  -4.137  0.00  0.00    +0.027 A 
ATOM      4  C   UNL     1      -1.548  -4.569  -4.398  0.00  0.00    +0.002 A 
ATOM      5  C   UNL     1      -2.443  -4.602  -5.456  0.00  0.00    +0.001 A 
ATOM      6  C   UNL     1      -2.610  -3.498  -6.265  0.00  0.00    +0.015 A 
ATOM      7  C   UNL     1      -1.871  -2.345  -6.012  0.00  0.00    +0.063 A 
ATOM      8  C   UNL     1      -2.009  -1.137  -6.845  0.00  0.00    +0.264 A 
ATOM      9  O   UNL     1      -2.780  -1.112  -7.784  0.00  0.00    -0.267 OA
ATOM     10  N   UNL     1      -1.257  -0.057  -6.537  0.00  0.00    -0.260 N 
ATOM     11  C   UNL     1      -0.407  -0.074  -5.498  0.00  0.00    +0.333 A 
ATOM     12  O   UNL     1       0.242   0.927  -5.262  0.00  0.00    -0.246 OA
ENDROOT
BRANCH   1  13
ATOM     13  C   UNL     1       0.712  -1.094  -3.598  0.00  0.00    +0.222 C 
BRANCH  13  15
ATOM     14  N   UNL     1       0.688  -0.476  -1.203  0.00  0.00    -0.311 N 
ATOM     15  C   UNL     1       0.006  -0.608  -2.358  0.00  0.00    +0.233 C 
ATOM     16  O   UNL     1      -1.175  -0.336  -2.400  0.00  0.00    -0.274 OA
ATOM     17  H   UNL     1       1.632  -0.695  -1.170  0.00  0.00    +0.149 HD
BRANCH  14  19
ATOM     18  C   UNL     1      -0.019   1.526   0.010  0.00  0.00    +0.028 C 
ATOM     19  C   UNL     1       0.002  -0.004   0.002  0.00  0.00    +0.070 C 
BRANCH  19  20
ATOM     20  C   UNL     1       0.742  -0.511   1.242  0.00  0.00    +0.026 C 
BRANCH  20  21
ATOM     21  C   UNL     1       0.655  -2.037   1.299  0.00  0.00    +0.037 C 
BRANCH  21  22
ATOM     22  C   UNL     1       1.384  -2.537   2.519  0.00  0.00    -0.047 A 
ATOM     23  C   UNL     1       2.731  -2.841   2.444  0.00  0.00    +0.003 A 
ATOM     24  C   UNL     1       3.399  -3.299   3.564  0.00  0.00    +0.000 A 
ATOM     25  C   UNL     1       2.722  -3.452   4.759  0.00  0.00    +0.000 A 
ATOM     26  C   UNL     1       1.375  -3.146   4.835  0.00  0.00    +0.000 A 
ATOM     27  C   UNL     1       0.708  -2.684   3.716  0.00  0.00    +0.003 A 
ENDBRANCH  21  22
ENDBRANCH  20  21
ENDBRANCH  19  20
ENDBRANCH  14  19
ENDBRANCH  13  15
ENDBRANCH   1  13
BRANCH  10  28
ATOM     28  C   UNL     1      -1.376   1.156  -7.349  0.00  0.00    +0.130 C 
BRANCH  28  29
ATOM     29  C   UNL     1      -2.463   2.059  -6.763  0.00  0.00    +0.022 C 
BRANCH  29  30
ATOM     30  C   UNL     1      -2.586   3.326  -7.611  0.00  0.00    +0.011 C 
BRANCH  30  31
ATOM     31  C   UNL     1      -3.673   4.229  -7.024  0.00  0.00    +0.096 C 
BRANCH  31  32
ATOM     32  C   UNL     1      -3.795   5.477  -7.860  0.00  0.00    +0.213 C 
ATOM     33  O   UNL     1      -3.083   5.629  -8.830  0.00  0.00    -0.276 OA
ATOM     34  N   UNL     1      -4.696   6.423  -7.530  0.00  0.00    -0.312 N 
ATOM     35  H   UNL     1      -5.265   6.302  -6.755  0.00  0.00    +0.149 HD
BRANCH  34  36
ATOM     36  C   UNL     1      -4.814   7.637  -8.342  0.00  0.00    +0.073 C 
ATOM     37  C   UNL     1      -3.826   8.709  -7.838  0.00  0.00    +0.022 C 
ATOM     38  C   UNL     1      -4.598  10.042  -7.998  0.00  0.00    +0.002 C 
ATOM     39  C   UNL     1      -6.044   9.649  -7.606  0.00  0.00    +0.002 C 
ATOM     40  C   UNL     1      -6.224   8.234  -8.195  0.00  0.00    +0.022 C 
ENDBRANCH  34  36
ENDBRANCH  31  32
ENDBRANCH  30  31
ENDBRANCH  29  30
ENDBRANCH  28  29
ENDBRANCH  10  28
TORSDOF 12
