REMARK  Name = ZINC39502214
REMARK  10 active torsions:
REMARK  status: ('A' for Active; 'I' for Inactive)
REMARK    1  A    between atoms: C_1  and  C_2
REMARK    2  A    between atoms: C_4  and  C_12
REMARK    3  A    between atoms: C_12  and  C_14
REMARK    4  A    between atoms: C_14  and  S_15
REMARK    5  A    between atoms: S_15  and  C_16
REMARK    6  A    between atoms: C_19  and  C_25
REMARK    7  A    between atoms: N_20  and  C_21
REMARK    8  A    between atoms: C_21  and  C_22
REMARK    9  A    between atoms: C_22  and  O_23
REMARK   10  A    between atoms: O_23  and  C_24
REMARK                            x       y       z     vdW  Elec       q    Type
REMARK                         _______ _______ _______ _____ _____    ______ ____
ROOT
ATOM      1  C   UNL     1      -6.398  -1.327  -1.804  0.00  0.00    +0.192 A 
ATOM      2  N   UNL     1      -6.576  -2.172  -0.814  0.00  0.00    -0.122 NA
ATOM      3  N   UNL     1      -7.814  -2.509  -0.739  0.00  0.00    -0.128 NA
ATOM      4  C   UNL     1      -8.502  -1.899  -1.676  0.00  0.00    +0.165 A 
ATOM      5  N   UNL     1      -7.617  -1.120  -2.384  0.00  0.00    -0.300 N 
ENDROOT
BRANCH   4   6
ATOM      6  C   UNL     1      -9.955  -2.024  -1.921  0.00  0.00    +0.019 A 
ATOM      7  C   UNL     1     -10.491  -1.659  -3.157  0.00  0.00    +0.013 A 
ATOM      8  C   UNL     1     -11.847  -1.777  -3.380  0.00  0.00    +0.021 A 
ATOM      9  C   UNL     1     -12.676  -2.256  -2.380  0.00  0.00    +0.041 A 
ATOM     10  C   UNL     1     -12.151  -2.619  -1.151  0.00  0.00    +0.021 A 
ATOM     11  C   UNL     1     -10.795  -2.512  -0.919  0.00  0.00    +0.013 A 
ATOM     12 CL   UNL     1     -14.382  -2.402  -2.668  0.00  0.00    -0.084 Cl
ENDBRANCH   4   6
BRANCH   1  13
ATOM     13  S   UNL     1      -4.872  -0.591  -2.289  0.00  0.00    -0.078 S 
BRANCH  13  14
ATOM     14  C   UNL     1      -3.663  -1.281  -1.125  0.00  0.00    +0.156 C 
BRANCH  14  15
ATOM     15  C   UNL     1      -2.297  -0.726  -1.433  0.00  0.00    +0.172 C 
ATOM     16  O   UNL     1      -2.152   0.058  -2.349  0.00  0.00    -0.291 OA
BRANCH  15  19
ATOM     17  C   UNL     1       0.350   0.849  -0.633  0.00  0.00    +0.035 C 
ATOM     18  C   UNL     1       0.250  -0.666  -0.821  0.00  0.00    +0.111 C 
ATOM     19  C   UNL     1      -1.185  -1.118  -0.657  0.00  0.00    +0.027 C 
ATOM     20  C   UNL     1      -1.179  -1.995   0.412  0.00  0.00    +0.006 A 
ATOM     21  C   UNL     1      -2.197  -2.743   1.049  0.00  0.00    +0.010 A 
ATOM     22  C   UNL     1      -1.901  -3.540   2.100  0.00  0.00    +0.001 A 
ATOM     23  C   UNL     1      -0.597  -3.667   2.606  0.00  0.00    +0.002 A 
ATOM     24  C   UNL     1       0.446  -2.997   2.070  0.00  0.00    +0.026 A 
ATOM     25  C   UNL     1       0.210  -2.107   0.921  0.00  0.00    +0.043 A 
ATOM     26  N   UNL     1       1.015  -1.356   0.223  0.00  0.00    -0.377 N 
ATOM     27  H   UNL     1       1.970  -1.267   0.370  0.00  0.00    +0.160 HD
ENDBRANCH  15  19
ENDBRANCH  14  15
ENDBRANCH  13  14
ENDBRANCH   1  13
BRANCH   5  28
ATOM     28  C   UNL     1      -7.919  -0.250  -3.524  0.00  0.00    +0.154 C 
BRANCH  28  29
ATOM     29  C   UNL     1      -7.688  -1.019  -4.827  0.00  0.00    +0.181 C 
BRANCH  29  30
ATOM     30  O   UNL     1      -7.983  -0.171  -5.939  0.00  0.00    -0.381 OA
ATOM     31  C   UNL     1      -7.798  -0.795  -7.211  0.00  0.00    +0.194 C 
ENDBRANCH  29  30
ENDBRANCH  28  29
ENDBRANCH   5  28
TORSDOF 8
