REMARK  Name = ZINC17014323
REMARK  3 active torsions:
REMARK  status: ('A' for Active; 'I' for Inactive)
REMARK    1  A    between atoms: C_1  and  C_2
REMARK    2  A    between atoms: C_8  and  N_10
REMARK    3  A    between atoms: N_16  and  C_17
REMARK                            x       y       z     vdW  Elec       q    Type
REMARK                         _______ _______ _______ _____ _____    ______ ____
ROOT
ATOM      1  N   UNL     1       2.120  -0.002   1.231  0.00  0.00    -0.268 NA
ATOM      2  C   UNL     1       2.850  -0.480   0.046  0.00  0.00    +0.193 C 
ATOM      3  N   UNL     1       4.212   0.076   0.074  0.00  0.00    -0.304 N 
ATOM      4  C   UNL     1       4.915  -0.042   1.258  0.00  0.00    +0.184 C 
ATOM      5  N   UNL     1       4.191   0.181   2.414  0.00  0.00    -0.304 N 
ATOM      6  C   UNL     1       2.828  -0.371   2.468  0.00  0.00    +0.193 C 
ATOM      7  N   UNL     1       6.197  -0.350   1.283  0.00  0.00    -0.192 NA
ATOM      8  H   UNL     1       4.600   0.507  -0.704  0.00  0.00    +0.150 HD
ATOM      9  H   UNL     1       4.565   0.680   3.157  0.00  0.00    +0.150 HD
ENDROOT
BRANCH   7  10
ATOM     10  C   UNL     1       6.843  -0.455   2.465  0.00  0.00    +0.196 A 
ATOM     11  N   UNL     1       6.368  -0.294   3.686  0.00  0.00    -0.221 NA
ATOM     12  C   UNL     1       7.139  -0.431   4.784  0.00  0.00    +0.081 A 
ATOM     13  C   UNL     1       6.760  -0.287   6.139  0.00  0.00    +0.029 A 
ATOM     14  C   UNL     1       7.675  -0.460   7.145  0.00  0.00    +0.002 A 
ATOM     15  C   UNL     1       8.997  -0.782   6.874  0.00  0.00    +0.001 A 
ATOM     16  C   UNL     1       9.402  -0.932   5.560  0.00  0.00    +0.017 A 
ATOM     17  C   UNL     1       8.494  -0.759   4.546  0.00  0.00    +0.041 A 
ATOM     18  S   UNL     1       8.557  -0.854   2.773  0.00  0.00    -0.048 S 
ENDBRANCH   7  10
BRANCH   1  25
ATOM     19  C   UNL     1      -0.019   1.526   0.010  0.00  0.00    +0.009 C 
ATOM     20  C   UNL     1       0.002  -0.004   0.002  0.00  0.00    +0.003 C 
ATOM     21  C   UNL     1      -1.433  -0.534   0.013  0.00  0.00    +0.005 C 
ATOM     22  C   UNL     1      -1.413  -2.063   0.004  0.00  0.00    +0.000 C 
ATOM     23  C   UNL     1      -0.673  -2.570   1.244  0.00  0.00    +0.002 C 
ATOM     24  C   UNL     1       0.763  -2.041   1.233  0.00  0.00    +0.019 C 
ATOM     25  C   UNL     1       0.742  -0.511   1.242  0.00  0.00    +0.062 C 
ENDBRANCH   1  25
TORSDOF 2
