REMARK  Name = ZINC00991464
REMARK  6 active torsions:
REMARK  status: ('A' for Active; 'I' for Inactive)
REMARK    1  A    between atoms: C_1  and  C_2
REMARK    2  A    between atoms: C_2  and  N_4
REMARK    3  A    between atoms: C_10  and  C_11
REMARK    4  A    between atoms: C_15  and  O_17
REMARK    5  A    between atoms: O_17  and  C_18
REMARK    6  A    between atoms: C_18  and  C_19
REMARK                            x       y       z     vdW  Elec       q    Type
REMARK                         _______ _______ _______ _____ _____    ______ ____
ROOT
ATOM      1  C   UNL     1       0.580  -5.683  -3.672  0.00  0.00    -0.020 A 
ATOM      2  C   UNL     1       0.502  -4.527  -4.458  0.00  0.00    +0.008 A 
ATOM      3  C   UNL     1       0.645  -4.615  -5.827  0.00  0.00    +0.004 A 
ATOM      4  C   UNL     1       0.865  -5.841  -6.427  0.00  0.00    +0.046 A 
ATOM      5  C   UNL     1       0.945  -6.994  -5.657  0.00  0.00    +0.122 A 
ATOM      6  C   UNL     1       0.809  -6.921  -4.282  0.00  0.00    +0.053 A 
ENDROOT
BRANCH   1  13
ATOM      7  N   UNL     1      -1.850  -1.000  -1.005  0.00  0.00    -0.159 NA
ATOM      8  C   UNL     1      -1.250  -2.183  -1.061  0.00  0.00    +0.158 C 
ATOM      9  N   UNL     1      -0.806  -2.938  -0.015  0.00  0.00    -0.262 N 
ATOM     10  C   UNL     1      -0.220  -4.108  -0.227  0.00  0.00    +0.256 C 
ATOM     11  O   UNL     1       0.191  -4.814   0.675  0.00  0.00    -0.269 OA
ATOM     12  C   UNL     1      -0.109  -4.482  -1.652  0.00  0.00    +0.078 C 
ATOM     13  C   UNL     1       0.428  -5.595  -2.213  0.00  0.00    +0.028 C 
ATOM     14  S   UNL     1      -0.879  -3.076  -2.436  0.00  0.00    -0.051 S 
ATOM     15  H   UNL     1      -0.920  -2.615   0.892  0.00  0.00    +0.157 HD
BRANCH   7  17
ATOM     16  C   UNL     1      -2.537   1.027   0.206  0.00  0.00    +0.111 C 
ATOM     17  C   UNL     1      -1.960  -0.365   0.159  0.00  0.00    +0.235 C 
ATOM     18  O   UNL     1      -1.595  -0.906   1.184  0.00  0.00    -0.274 OA
ENDBRANCH   7  17
ENDBRANCH   1  13
BRANCH   5  19
ATOM     19  O   UNL     1       1.162  -8.196  -6.254  0.00  0.00    -0.487 OA
BRANCH  19  20
ATOM     20  C   UNL     1       1.298  -8.198  -7.677  0.00  0.00    +0.266 C 
BRANCH  20  21
ATOM     21  C   UNL     1       1.532  -9.607  -8.157  0.00  0.00    +0.008 A 
ATOM     22  C   UNL     1       1.577 -10.648  -7.248  0.00  0.00    +0.010 A 
ATOM     23  C   UNL     1       1.791 -11.941  -7.688  0.00  0.00    +0.020 A 
ATOM     24  C   UNL     1       1.960 -12.194  -9.038  0.00  0.00    +0.042 A 
ATOM     25  C   UNL     1       1.914 -11.153  -9.947  0.00  0.00    +0.040 A 
ATOM     26  C   UNL     1       1.695  -9.860  -9.507  0.00  0.00    +0.049 A 
ATOM     27 CL   UNL     1       1.631  -8.553 -10.648  0.00  0.00    -0.083 Cl
ATOM     28 CL   UNL     1       2.229 -13.818  -9.589  0.00  0.00    -0.083 Cl
ENDBRANCH  20  21
ENDBRANCH  19  20
ENDBRANCH   5  19
TORSDOF 5
