REMARK  Name = ZINC08819726
REMARK  10 active torsions:
REMARK  status: ('A' for Active; 'I' for Inactive)
REMARK    1  A    between atoms: C_4  and  C_7
REMARK    2  A    between atoms: N_11  and  C_15
REMARK    3  A    between atoms: C_15  and  C_16
REMARK    4  A    between atoms: C_16  and  C_17
REMARK    5  A    between atoms: C_17  and  C_18
REMARK    6  A    between atoms: C_18  and  C_19
REMARK    7  A    between atoms: C_19  and  C_20
REMARK    8  A    between atoms: N_22  and  N_23
REMARK    9  A    between atoms: C_24  and  C_26
REMARK   10  A    between atoms: C_30  and  N_32
REMARK                            x       y       z     vdW  Elec       q    Type
REMARK                         _______ _______ _______ _____ _____    ______ ____
ROOT
ATOM      1  C   UNL     1       0.229  -0.355  -0.379  0.00  0.00    +0.009 C 
ENDROOT
BRANCH   1   2
ATOM      2  C   UNL     1      -0.339   0.492   0.761  0.00  0.00    +0.002 C 
BRANCH   2   3
ATOM      3  C   UNL     1       0.339   0.100   2.075  0.00  0.00    +0.019 C 
BRANCH   3   4
ATOM      4  C   UNL     1      -0.230   0.947   3.215  0.00  0.00    +0.115 C 
BRANCH   4   9
ATOM      5  C   UNL     1       0.289  -1.646   7.413  0.00  0.00    +0.028 C 
ATOM      6  C   UNL     1       0.594  -0.721   6.470  0.00  0.00    +0.077 C 
ATOM      7  C   UNL     1      -0.112  -0.386   5.215  0.00  0.00    +0.258 C 
ATOM      8  O   UNL     1      -1.129  -0.965   4.879  0.00  0.00    -0.269 OA
ATOM      9  N   UNL     1       0.420   0.571   4.474  0.00  0.00    -0.255 N 
ATOM     10  C   UNL     1       1.543   1.213   4.852  0.00  0.00    +0.121 C 
ATOM     11  S   UNL     1       2.373   2.472   4.040  0.00  0.00    -0.027 S 
ATOM     12  S   UNL     1       1.956   0.435   6.405  0.00  0.00    -0.061 S 
BRANCH   5  16
ATOM     13  C   UNL     1       3.006  -2.426  10.574  0.00  0.00    +0.000 A 
ATOM     14  C   UNL     1       1.740  -2.985  10.601  0.00  0.00    +0.001 A 
ATOM     15  C   UNL     1       0.851  -2.736   9.577  0.00  0.00    +0.008 A 
ATOM     16  C   UNL     1       1.231  -1.917   8.509  0.00  0.00    -0.024 A 
ATOM     17  C   UNL     1       2.515  -1.360   8.486  0.00  0.00    +0.008 A 
ATOM     18  C   UNL     1       3.390  -1.615   9.520  0.00  0.00    +0.001 A 
ENDBRANCH   5  16
ENDBRANCH   4   9
ENDBRANCH   3   4
ENDBRANCH   2   3
ENDBRANCH   1   2
BRANCH   1  19
ATOM     19  C   UNL     1      -0.449   0.037  -1.693  0.00  0.00    +0.097 C 
BRANCH  19  20
ATOM     20  C   UNL     1       0.111  -0.797  -2.816  0.00  0.00    +0.229 C 
ATOM     21  O   UNL     1       0.969  -1.623  -2.588  0.00  0.00    -0.274 OA
ATOM     22  N   UNL     1      -0.340  -0.624  -4.074  0.00  0.00    -0.234 N 
ATOM     23  H   UNL     1      -1.026   0.037  -4.257  0.00  0.00    +0.173 HD
BRANCH  22  24
ATOM     24  N   UNL     1       0.180  -1.399  -5.118  0.00  0.00    -0.230 N 
ATOM     25  C   UNL     1      -0.271  -1.226  -6.376  0.00  0.00    +0.260 C 
ATOM     26  O   UNL     1      -1.131  -0.398  -6.605  0.00  0.00    -0.269 OA
ATOM     27  H   UNL     1       0.866  -2.061  -4.936  0.00  0.00    +0.173 HD
BRANCH  25  28
ATOM     28  C   UNL     1       0.278  -2.045  -7.478  0.00  0.00    +0.040 A 
ATOM     29  C   UNL     1       1.269  -2.993  -7.220  0.00  0.00    +0.013 A 
ATOM     30  C   UNL     1       1.775  -3.757  -8.252  0.00  0.00    +0.003 A 
ATOM     31  C   UNL     1       1.308  -3.577  -9.542  0.00  0.00    +0.033 A 
ATOM     32  C   UNL     1       0.330  -2.635  -9.806  0.00  0.00    +0.127 A 
ATOM     33  C   UNL     1      -0.187  -1.868  -8.782  0.00  0.00    +0.045 A 
BRANCH  32  34
ATOM     34  N   UNL     1      -0.162  -2.449 -11.189  0.00  0.00    +0.056 N 
ATOM     35  O   UNL     1      -1.023  -1.620 -11.423  0.00  0.00    -0.126 OA
ATOM     36  O   UNL     1       0.294  -3.125 -12.094  0.00  0.00    -0.126 OA
ENDBRANCH  32  34
ENDBRANCH  25  28
ENDBRANCH  22  24
ENDBRANCH  19  20
ENDBRANCH   1  19
TORSDOF 10
