REMARK  Name = ZINC02500011
REMARK  3 active torsions:
REMARK  status: ('A' for Active; 'I' for Inactive)
REMARK    1  A    between atoms: C_4  and  C_7
REMARK    2  A    between atoms: C_10  and  C_13
REMARK    3  A    between atoms: C_16  and  C_24
REMARK                            x       y       z     vdW  Elec       q    Type
REMARK                         _______ _______ _______ _____ _____    ______ ____
ROOT
ATOM      1  C   UNL     1       7.434  -2.768  -0.085  0.00  0.00    +0.106 C 
ATOM      2  C   UNL     1       7.747  -3.231  -1.512  0.00  0.00    +0.059 C 
ATOM      3  C   UNL     1       9.112  -3.929  -1.543  0.00  0.00    +0.149 C 
ATOM      4  N   UNL     1       9.160  -4.919  -0.467  0.00  0.00    -0.225 N 
ATOM      5  C   UNL     1       8.335  -4.919   0.608  0.00  0.00    +0.215 A 
ATOM      6  N   UNL     1       8.652  -5.938   1.361  0.00  0.00    -0.202 NA
ATOM      7  C   UNL     1       9.668  -6.605   0.804  0.00  0.00    +0.247 A 
ATOM      8  N   UNL     1      10.010  -6.015  -0.314  0.00  0.00    -0.156 NA
ATOM      9  N   UNL     1       7.353  -3.953   0.792  0.00  0.00    -0.307 N 
ATOM     10  H   UNL     1       6.653  -4.052   1.456  0.00  0.00    +0.149 HD
ENDROOT
BRANCH   1  14
ATOM     11  C   UNL     1       3.699  -0.689  -0.037  0.00  0.00    -0.018 A 
ATOM     12  C   UNL     1       4.896   0.024  -0.040  0.00  0.00    +0.009 A 
ATOM     13  C   UNL     1       6.099  -0.652  -0.055  0.00  0.00    +0.006 A 
ATOM     14  C   UNL     1       6.118  -2.035  -0.068  0.00  0.00    -0.027 A 
ATOM     15  C   UNL     1       4.932  -2.748  -0.066  0.00  0.00    +0.006 A 
ATOM     16  C   UNL     1       3.724  -2.082  -0.045  0.00  0.00    +0.009 A 
BRANCH  11  20
ATOM     17  C   UNL     1      -0.017   1.379   0.010  0.00  0.00    +0.000 A 
ATOM     18  C   UNL     1       1.169   2.092   0.002  0.00  0.00    +0.001 A 
ATOM     19  C   UNL     1       2.377   1.426  -0.013  0.00  0.00    +0.008 A 
ATOM     20  C   UNL     1       2.402   0.033  -0.021  0.00  0.00    -0.018 A 
ATOM     21  C   UNL     1       1.205  -0.680  -0.013  0.00  0.00    +0.008 A 
ATOM     22  C   UNL     1       0.002  -0.004   0.002  0.00  0.00    +0.001 A 
ENDBRANCH  11  20
ENDBRANCH   1  14
BRANCH   3  23
ATOM     23  C   UNL     1       9.299  -4.615  -2.872  0.00  0.00    +0.014 A 
ATOM     24  C   UNL     1      10.262  -4.419  -3.805  0.00  0.00    +0.013 A 
ATOM     25  C   UNL     1      10.236  -5.172  -4.964  0.00  0.00    +0.008 A 
ATOM     26  C   UNL     1       9.248  -6.085  -5.133  0.00  0.00    +0.045 A 
ATOM     27  S   UNL     1       8.314  -5.902  -3.622  0.00  0.00    -0.099 S 
ENDBRANCH   3  23
TORSDOF 3
