REMARK  Name = ZINC15780427
REMARK  5 active torsions:
REMARK  status: ('A' for Active; 'I' for Inactive)
REMARK    1  A    between atoms: C_1  and  C_2
REMARK    2  A    between atoms: C_7  and  N_8
REMARK    3  A    between atoms: N_8  and  S_9
REMARK    4  A    between atoms: S_9  and  C_12
REMARK    5  A    between atoms: C_15  and  C_18
REMARK                            x       y       z     vdW  Elec       q    Type
REMARK                         _______ _______ _______ _____ _____    ______ ____
ROOT
ATOM      1  N   UNL     1       0.002  -0.004   0.002  0.00  0.00    -0.216 N 
ATOM      2  H   UNL     1      -0.649  -0.485  -0.532  0.00  0.00    +0.174 HD
ENDROOT
BRANCH   1   9
ATOM      3  C   UNL     1      -2.614   1.085   0.205  0.00  0.00    +0.046 C 
ATOM      4  C   UNL     1      -1.384   1.953   0.284  0.00  0.00    -0.026 A 
ATOM      5  C   UNL     1      -1.514   3.316   0.465  0.00  0.00    +0.033 A 
ATOM      6  C   UNL     1      -0.384   4.115   0.533  0.00  0.00    +0.067 A 
ATOM      7  C   UNL     1       0.885   3.541   0.424  0.00  0.00    +0.069 A 
ATOM      8  C   UNL     1       1.012   2.173   0.248  0.00  0.00    +0.052 A 
ATOM      9  C   UNL     1      -0.123   1.378   0.180  0.00  0.00    +0.053 A 
ATOM     10  N   UNL     1       1.807   4.580   0.528  0.00  0.00    -0.306 N 
ATOM     11  H   UNL     1       2.772   4.488   0.489  0.00  0.00    +0.170 HD
ATOM     12  C   UNL     1       1.132   5.733   0.694  0.00  0.00    +0.325 A 
ATOM     13  O   UNL     1       1.641   6.832   0.817  0.00  0.00    -0.247 OA
ATOM     14  N   UNL     1      -0.191   5.487   0.701  0.00  0.00    -0.306 N 
ATOM     15  H   UNL     1      -0.892   6.150   0.805  0.00  0.00    +0.170 HD
ENDBRANCH   1   9
BRANCH   1  16
ATOM     16  S   UNL     1       1.262  -0.819   0.703  0.00  0.00    +0.072 S 
ATOM     17  O   UNL     1       1.040  -2.200   0.454  0.00  0.00    -0.150 OA
ATOM     18  O   UNL     1       2.451  -0.153   0.299  0.00  0.00    -0.150 OA
BRANCH  16  19
ATOM     19  C   UNL     1       1.125  -0.592   2.445  0.00  0.00    +0.109 A 
ATOM     20  C   UNL     1       1.753   0.477   3.054  0.00  0.00    +0.029 A 
ATOM     21  C   UNL     1       1.641   0.658   4.420  0.00  0.00    +0.006 A 
ATOM     22  C   UNL     1       0.909  -0.237   5.178  0.00  0.00    -0.044 A 
ATOM     23  C   UNL     1       0.285  -1.310   4.569  0.00  0.00    +0.006 A 
ATOM     24  C   UNL     1       0.393  -1.487   3.203  0.00  0.00    +0.029 A 
BRANCH  22  25
ATOM     25  C   UNL     1       0.792  -0.043   6.668  0.00  0.00    +0.019 C 
ATOM     26  C   UNL     1       0.136   1.308   6.957  0.00  0.00    +0.008 C 
ATOM     27  C   UNL     1       0.017   1.505   8.469  0.00  0.00    +0.001 C 
ATOM     28  C   UNL     1       1.411   1.470   9.099  0.00  0.00    +0.000 C 
ATOM     29  C   UNL     1       2.067   0.118   8.811  0.00  0.00    +0.001 C 
ATOM     30  C   UNL     1       2.186  -0.079   7.298  0.00  0.00    +0.008 C 
ENDBRANCH  22  25
ENDBRANCH  16  19
ENDBRANCH   1  16
TORSDOF 4
