REMARK  Name = ZINC09348257
REMARK  15 active torsions:
REMARK  status: ('A' for Active; 'I' for Inactive)
REMARK    1  A    between atoms: C_1  and  C_2
REMARK    2  A    between atoms: C_2  and  O_3
REMARK    3  A    between atoms: O_3  and  C_4
REMARK    4  A    between atoms: C_4  and  C_6
REMARK    5  A    between atoms: C_6  and  C_7
REMARK    6  A    between atoms: C_6  and  N_11
REMARK    7  A    between atoms: C_6  and  N_25
REMARK    8  A    between atoms: N_11  and  C_12
REMARK    9  A    between atoms: C_13  and  C_21
REMARK   10  A    between atoms: C_20  and  N_55
REMARK   11  A    between atoms: C_21  and  O_23
REMARK   12  A    between atoms: O_23  and  C_24
REMARK   13  A    between atoms: C_26  and  O_28
REMARK   14  A    between atoms: O_28  and  C_29
REMARK   15  A    between atoms: C_29  and  C_30
REMARK                            x       y       z     vdW  Elec       q    Type
REMARK                         _______ _______ _______ _____ _____    ______ ____
ROOT
ATOM      1  C   UNL     1       2.309   2.468   3.588  0.00  0.00    +0.298 C 
ENDROOT
BRANCH   1   2
ATOM      2  C   UNL     1       1.794   2.063   4.971  0.00  0.00    +0.438 C 
ATOM      3  F   UNL     1       1.708   0.668   5.046  0.00  0.00    -0.166 F 
ATOM      4  F   UNL     1       2.675   2.530   5.952  0.00  0.00    -0.166 F 
ATOM      5  F   UNL     1       0.528   2.620   5.178  0.00  0.00    -0.166 F 
ENDBRANCH   1   2
BRANCH   1   6
ATOM      6  N   UNL     1       3.559   1.757   3.305  0.00  0.00    -0.244 N 
ATOM      7  C   UNL     1       4.644   1.969   4.076  0.00  0.00    +0.402 C 
ATOM      8  O   UNL     1       4.560   2.671   5.064  0.00  0.00    -0.226 OA
ATOM      9  H   UNL     1       3.605   1.135   2.562  0.00  0.00    +0.155 HD
BRANCH   7  10
ATOM     10  O   UNL     1       5.821   1.401   3.752  0.00  0.00    -0.451 OA
BRANCH  10  11
ATOM     11  C   UNL     1       6.947   1.672   4.628  0.00  0.00    +0.230 C 
ATOM     12  C   UNL     1       8.188   0.948   4.102  0.00  0.00    +0.048 C 
ENDBRANCH  10  11
ENDBRANCH   7  10
ENDBRANCH   1   6
BRANCH   1  13
ATOM     13  C   UNL     1       2.559   3.954   3.561  0.00  0.00    +0.359 C 
ATOM     14  O   UNL     1       1.790   4.685   2.983  0.00  0.00    -0.246 OA
BRANCH  13  15
ATOM     15  O   UNL     1       3.636   4.465   4.178  0.00  0.00    -0.462 OA
BRANCH  15  17
ATOM     16  C   UNL     1       5.085   6.298   4.865  0.00  0.00    +0.048 C 
ATOM     17  C   UNL     1       3.813   5.904   4.110  0.00  0.00    +0.229 C 
ENDBRANCH  15  17
ENDBRANCH  13  15
ENDBRANCH   1  13
BRANCH   1  18
ATOM     18  N   UNL     1       1.310   2.122   2.574  0.00  0.00    -0.301 N 
ATOM     19  H   UNL     1       0.504   1.646   2.830  0.00  0.00    +0.149 HD
BRANCH  18  20
ATOM     20  C   UNL     1       1.516   2.473   1.254  0.00  0.00    +0.082 A 
ATOM     21  C   UNL     1       0.735   2.162   0.145  0.00  0.00    +0.090 A 
ATOM     22  C   UNL     1       1.176   2.666  -1.143  0.00  0.00    -0.025 A 
ATOM     23  C   UNL     1       2.318   3.387  -1.122  0.00  0.00    -0.021 A 
ATOM     24  S   UNL     1       2.810   3.406   0.577  0.00  0.00    -0.080 S 
ATOM     25  C   UNL     1       2.993   4.018  -2.300  0.00  0.00    -0.036 C 
ATOM     26  C   UNL     1       0.951   3.457  -3.477  0.00  0.00    -0.074 C 
ATOM     27  C   UNL     1       0.443   2.432  -2.460  0.00  0.00    +0.018 C 
ATOM     28  C   UNL     1       2.917   4.129  -4.722  0.00  0.00    -0.096 C 
ATOM     29  N   UNL     1       2.427   3.408  -3.528  0.00  0.00    +0.381 N 
ATOM     30  H   UNL     1       2.727   2.428  -3.583  0.00  0.00    -0.082 HD
BRANCH  21  31
ATOM     31  C   UNL     1      -0.484   1.365   0.274  0.00  0.00    +0.342 C 
ATOM     32  O   UNL     1      -0.432   0.153   0.174  0.00  0.00    -0.245 OA
BRANCH  31  33
ATOM     33  O   UNL     1      -1.668   1.973   0.496  0.00  0.00    -0.464 OA
ATOM     34  C   UNL     1      -2.819   1.133   0.605  0.00  0.00    +0.280 C 
ENDBRANCH  31  33
ENDBRANCH  21  31
ENDBRANCH  18  20
ENDBRANCH   1  18
TORSDOF 11
