REMARK  Name = ZINC01392722
REMARK  6 active torsions:
REMARK  status: ('A' for Active; 'I' for Inactive)
REMARK    1  A    between atoms: C_1  and  C_2
REMARK    2  A    between atoms: C_2  and  C_3
REMARK    3  A    between atoms: C_2  and  C_4
REMARK    4  A    between atoms: C_2  and  C_5
REMARK    5  A    between atoms: C_5  and  C_7
REMARK    6  A    between atoms: C_7  and  N_8
REMARK                            x       y       z     vdW  Elec       q    Type
REMARK                         _______ _______ _______ _____ _____    ______ ____
ROOT
ATOM      1  N   UNL     1       1.578  -2.179  -2.747  0.00  0.00    -0.221 N 
ATOM      2  C   UNL     1       2.921  -2.269  -2.733  0.00  0.00    +0.287 A 
ATOM      3  O   UNL     1       3.534  -2.175  -1.681  0.00  0.00    -0.265 OA
ATOM      4  C   UNL     1       3.613  -2.473  -3.946  0.00  0.00    +0.126 A 
ATOM      5  C   UNL     1       2.874  -2.571  -5.093  0.00  0.00    +0.084 A 
ATOM      6  C   UNL     1       1.475  -2.463  -4.995  0.00  0.00    +0.154 A 
ATOM      7  N   UNL     1       0.906  -2.280  -3.837  0.00  0.00    -0.175 NA
ATOM      8 CL   UNL     1       3.642  -2.821  -6.630  0.00  0.00    -0.080 Cl
ATOM      9 CL   UNL     1       5.345  -2.594  -3.981  0.00  0.00    -0.076 Cl
ENDROOT
BRANCH   1  10
ATOM     10  C   UNL     1       0.863  -1.968  -1.486  0.00  0.00    +0.222 C 
BRANCH  10  11
ATOM     11  C   UNL     1       0.707  -0.490  -1.238  0.00  0.00    +0.160 C 
ATOM     12  O   UNL     1       1.148   0.305  -2.033  0.00  0.00    -0.295 OA
BRANCH  11  14
ATOM     13  C   UNL     1      -0.019   1.526   0.010  0.00  0.00    +0.018 C 
ATOM     14  C   UNL     1       0.002  -0.004   0.002  0.00  0.00    +0.022 C 
ATOM     15  C   UNL     1       0.742  -0.511   1.242  0.00  0.00    +0.018 C 
ATOM     16  C   UNL     1      -1.433  -0.534   0.013  0.00  0.00    +0.018 C 
ENDBRANCH  11  14
ENDBRANCH  10  11
ENDBRANCH   1  10
TORSDOF 3
