REMARK  Name = ZINC14040526
REMARK  11 active torsions:
REMARK  status: ('A' for Active; 'I' for Inactive)
REMARK    1  A    between atoms: C_4  and  O_7
REMARK    2  A    between atoms: O_7  and  C_8
REMARK    3  A    between atoms: C_8  and  C_9
REMARK    4  A    between atoms: C_9  and  O_10
REMARK    5  A    between atoms: O_10  and  C_11
REMARK    6  A    between atoms: C_16  and  C_17
REMARK    7  A    between atoms: C_25  and  C_27
REMARK    8  A    between atoms: C_27  and  C_28
REMARK    9  A    between atoms: C_28  and  O_30
REMARK   10  A    between atoms: O_30  and  C_31
REMARK   11  A    between atoms: C_31  and  C_32
REMARK                            x       y       z     vdW  Elec       q    Type
REMARK                         _______ _______ _______ _____ _____    ______ ____
ROOT
ATOM      1  C   UNL     1      -3.225   2.058  -0.697  0.00  0.00    +0.251 C 
ATOM      2  O   UNL     1      -4.040   1.296  -0.212  0.00  0.00    -0.270 OA
ATOM      3  N   UNL     1      -2.531   1.693  -1.793  0.00  0.00    -0.284 N 
ATOM      4  C   UNL     1      -3.068   0.709  -2.748  0.00  0.00    +0.127 C 
ATOM      5  C   UNL     1      -3.220   1.395  -4.107  0.00  0.00    +0.123 C 
ATOM      6  N   UNL     1      -2.020   2.150  -4.441  0.00  0.00    -0.312 N 
ATOM      7  C   UNL     1      -1.126   2.584  -3.551  0.00  0.00    +0.234 C 
ATOM      8  O   UNL     1      -0.207   3.271  -3.942  0.00  0.00    -0.274 OA
ATOM      9  C   UNL     1      -1.206   2.260  -2.084  0.00  0.00    +0.173 C 
ATOM     10  H   UNL     1      -1.859   2.351  -5.376  0.00  0.00    +0.149 HD
ENDROOT
BRANCH   1  16
ATOM     11  C   UNL     1      -4.082   4.144   0.369  0.00  0.00    +0.133 A 
ATOM     12  C   UNL     1      -3.855   5.386   0.942  0.00  0.00    +0.046 A 
ATOM     13  C   UNL     1      -2.567   5.869   1.062  0.00  0.00    +0.004 A 
ATOM     14  C   UNL     1      -1.493   5.119   0.613  0.00  0.00    +0.001 A 
ATOM     15  C   UNL     1      -1.699   3.880   0.046  0.00  0.00    +0.017 A 
ATOM     16  C   UNL     1      -2.997   3.381  -0.087  0.00  0.00    +0.078 A 
BRANCH  11  17
ATOM     17  O   UNL     1      -5.346   3.668   0.250  0.00  0.00    -0.488 OA
BRANCH  17  18
ATOM     18  C   UNL     1      -6.401   4.501   0.737  0.00  0.00    +0.270 C 
BRANCH  18  19
ATOM     19  C   UNL     1      -7.744   3.802   0.518  0.00  0.00    +0.270 C 
BRANCH  19  20
ATOM     20  O   UNL     1      -7.800   2.617   1.315  0.00  0.00    -0.489 OA
BRANCH  20  24
ATOM     21  C   UNL     1     -11.246   0.361   1.077  0.00  0.00    +0.000 A 
ATOM     22  C   UNL     1     -10.212  -0.043   1.901  0.00  0.00    +0.004 A 
ATOM     23  C   UNL     1      -9.057   0.711   1.983  0.00  0.00    +0.045 A 
ATOM     24  C   UNL     1      -8.935   1.874   1.236  0.00  0.00    +0.121 A 
ATOM     25  C   UNL     1      -9.977   2.280   0.415  0.00  0.00    +0.045 A 
ATOM     26  C   UNL     1     -11.127   1.520   0.333  0.00  0.00    +0.004 A 
ENDBRANCH  20  24
ENDBRANCH  19  20
ENDBRANCH  18  19
ENDBRANCH  17  18
ENDBRANCH  11  17
ENDBRANCH   1  16
BRANCH   9  27
ATOM     27  C   UNL     1      -0.122   1.242  -1.724  0.00  0.00    +0.152 C 
BRANCH  27  28
ATOM     28  C   UNL     1      -0.247   0.869  -0.269  0.00  0.00    +0.309 C 
ATOM     29  O   UNL     1      -1.274   1.094   0.327  0.00  0.00    -0.251 OA
BRANCH  28  30
ATOM     30  O   UNL     1       0.783   0.287   0.365  0.00  0.00    -0.462 OA
BRANCH  30  31
ATOM     31  C   UNL     1       0.592  -0.045   1.766  0.00  0.00    +0.263 C 
BRANCH  31  32
ATOM     32  C   UNL     1       1.864  -0.696   2.313  0.00  0.00    +0.156 C 
ATOM     33  C   UNL     1       1.714  -0.976   3.830  0.00  0.00    +0.037 C 
ATOM     34  C   UNL     1       2.725  -2.142   4.015  0.00  0.00    +0.031 C 
ATOM     35  C   UNL     1       2.605  -2.896   2.673  0.00  0.00    +0.160 C 
ATOM     36  O   UNL     1       2.064  -1.984   1.710  0.00  0.00    -0.373 OA
ENDBRANCH  31  32
ENDBRANCH  30  31
ENDBRANCH  28  30
ENDBRANCH  27  28
ENDBRANCH   9  27
TORSDOF 11
