REMARK  Name = ZINC14459929
REMARK  8 active torsions:
REMARK  status: ('A' for Active; 'I' for Inactive)
REMARK    1  A    between atoms: C_1  and  C_2
REMARK    2  A    between atoms: C_2  and  C_3
REMARK    3  A    between atoms: C_2  and  O_4
REMARK    4  A    between atoms: O_4  and  C_5
REMARK    5  A    between atoms: C_18  and  C_21
REMARK    6  A    between atoms: C_25  and  O_28
REMARK    7  A    between atoms: C_26  and  O_27
REMARK    8  A    between atoms: O_28  and  C_29
REMARK                            x       y       z     vdW  Elec       q    Type
REMARK                         _______ _______ _______ _____ _____    ______ ____
ROOT
ATOM      1  C   UNL     1      -5.595   8.140   0.036  0.00  0.00    +0.121 A 
ATOM      2  C   UNL     1      -4.584   8.411  -0.875  0.00  0.00    +0.047 A 
ATOM      3  C   UNL     1      -3.536   7.524  -1.015  0.00  0.00    +0.027 A 
ATOM      4  C   UNL     1      -3.495   6.367  -0.249  0.00  0.00    +0.032 A 
ATOM      5  C   UNL     1      -4.501   6.089   0.663  0.00  0.00    -0.016 A 
ATOM      6  C   UNL     1      -5.553   6.986   0.799  0.00  0.00    +0.051 A 
ATOM      7  C   UNL     1      -4.495   4.857   1.512  0.00  0.00    +0.049 C 
ATOM      8  C   UNL     1      -5.495   3.841   1.015  0.00  0.00    -0.023 C 
ATOM      9  C   UNL     1      -5.025   2.627   1.171  0.00  0.00    -0.030 C 
ATOM     10  C   UNL     1      -3.645   2.670   1.799  0.00  0.00    +0.033 C 
ATOM     11  C   UNL     1      -3.148   4.110   1.480  0.00  0.00    +0.029 C 
ATOM     12  C   UNL     1      -2.593   4.094   0.052  0.00  0.00    +0.109 C 
ATOM     13  N   UNL     1      -2.424   5.477  -0.407  0.00  0.00    -0.336 N 
ATOM     14  H   UNL     1      -1.591   5.768  -0.810  0.00  0.00    +0.147 HD
ENDROOT
BRANCH  12  15
ATOM     15  C   UNL     1      -1.261   3.390   0.036  0.00  0.00    +0.018 A 
ATOM     16  C   UNL     1      -1.154   2.126  -0.515  0.00  0.00    +0.009 A 
ATOM     17  C   UNL     1       0.066   1.477  -0.531  0.00  0.00    +0.004 A 
ATOM     18  C   UNL     1       1.185   2.088   0.003  0.00  0.00    +0.049 A 
ATOM     19  C   UNL     1       1.085   3.354   0.557  0.00  0.00    +0.162 A 
ATOM     20  C   UNL     1      -0.145   4.005   0.579  0.00  0.00    +0.163 A 
BRANCH  20  21
ATOM     21  O   UNL     1      -0.250   5.246   1.126  0.00  0.00    -0.503 OA
ATOM     22  H   UNL     1      -0.018   5.964   0.521  0.00  0.00    +0.292 HD
ENDBRANCH  20  21
BRANCH  19  23
ATOM     23  O   UNL     1       2.184   3.957   1.083  0.00  0.00    -0.491 OA
ATOM     24  C   UNL     1       3.412   3.227   1.031  0.00  0.00    +0.277 C 
ENDBRANCH  19  23
ENDBRANCH  12  15
BRANCH   1  25
ATOM     25  O   UNL     1      -6.631   9.009   0.179  0.00  0.00    -0.489 OA
BRANCH  25  27
ATOM     26  C   UNL     1      -8.123  10.603  -0.858  0.00  0.00    +0.051 C 
ATOM     27  C   UNL     1      -6.679  10.115  -0.725  0.00  0.00    +0.167 C 
ATOM     28  C   UNL     1      -5.805  11.251  -0.189  0.00  0.00    +0.051 C 
ENDBRANCH  25  27
ENDBRANCH   1  25
TORSDOF 5
