REMARK  Name = ZINC44767612
REMARK  4 active torsions:
REMARK  status: ('A' for Active; 'I' for Inactive)
REMARK    1  A    between atoms: C_5  and  C_8
REMARK    2  A    between atoms: C_5  and  C_11
REMARK    3  A    between atoms: C_8  and  N_10
REMARK    4  A    between atoms: N_13  and  C_14
REMARK                            x       y       z     vdW  Elec       q    Type
REMARK                         _______ _______ _______ _____ _____    ______ ____
ROOT
ATOM      1  C   UNL     1      -0.104   1.337   0.000  0.00  0.00    +0.000 C 
ATOM      2  C   UNL     1       1.281   2.015   0.023  0.00  0.00    +0.000 C 
ATOM      3  C   UNL     1       1.810   1.973   1.431  0.00  0.00    +0.001 C 
ATOM      4  C   UNL     1       2.719   0.755   1.683  0.00  0.00    +0.023 C 
ATOM      5  C   UNL     1       2.175  -0.538   1.047  0.00  0.00    +0.091 C 
ATOM      6  C   UNL     1       0.688  -0.685   1.222  0.00  0.00    +0.023 C 
ATOM      7  C   UNL     1      -0.011  -0.115  -0.029  0.00  0.00    +0.001 C 
ENDROOT
BRANCH   5   8
ATOM      8  C   UNL     1       2.494  -0.528  -0.426  0.00  0.00    +0.226 C 
ATOM      9  O   UNL     1       3.228   0.323  -0.882  0.00  0.00    -0.275 OA
ATOM     10  N   UNL     1       1.964  -1.466  -1.236  0.00  0.00    -0.312 N 
ATOM     11  H   UNL     1       1.438  -2.189  -0.862  0.00  0.00    +0.149 HD
BRANCH  10  12
ATOM     12  C   UNL     1       2.184  -1.392  -2.683  0.00  0.00    +0.073 C 
ATOM     13  C   UNL     1       3.491  -2.119  -3.057  0.00  0.00    +0.022 C 
ATOM     14  C   UNL     1       3.031  -3.539  -3.472  0.00  0.00    +0.002 C 
ATOM     15  C   UNL     1       1.706  -3.261  -4.226  0.00  0.00    +0.002 C 
ATOM     16  C   UNL     1       1.049  -2.118  -3.426  0.00  0.00    +0.022 C 
ENDBRANCH  10  12
ENDBRANCH   5   8
BRANCH   5  17
ATOM     17  C   UNL     1       2.860  -1.720   1.684  0.00  0.00    +0.061 C 
ATOM     18  S   UNL     1       4.055  -1.489   2.720  0.00  0.00    -0.040 S 
BRANCH  17  19
ATOM     19  N   UNL     1       2.464  -2.972   1.379  0.00  0.00    -0.355 N 
ATOM     20  H   UNL     1       1.790  -3.115   0.697  0.00  0.00    +0.143 HD
ATOM     21  H   UNL     1       2.854  -3.730   1.843  0.00  0.00    +0.143 HD
ENDBRANCH  17  19
ENDBRANCH   5  17
TORSDOF 4
