REMARK  Name = ZINC03101239
REMARK  7 active torsions:
REMARK  status: ('A' for Active; 'I' for Inactive)
REMARK    1  A    between atoms: C_1  and  C_2
REMARK    2  A    between atoms: C_2  and  C_3
REMARK    3  A    between atoms: C_8  and  N_9
REMARK    4  A    between atoms: C_10  and  C_12
REMARK    5  A    between atoms: N_14  and  N_15
REMARK    6  A    between atoms: C_16  and  C_17
REMARK    7  A    between atoms: C_21  and  N_23
REMARK                            x       y       z     vdW  Elec       q    Type
REMARK                         _______ _______ _______ _____ _____    ______ ____
ROOT
ATOM      1  C   UNL     1      -2.399   8.012   0.080  0.00  0.00    +0.318 C 
ATOM      2  O   UNL     1      -3.443   7.391   0.093  0.00  0.00    -0.263 OA
ATOM      3  N   UNL     1      -1.223   7.354   0.069  0.00  0.00    -0.199 N 
ATOM      4  H   UNL     1      -0.390   7.850   0.058  0.00  0.00    +0.178 HD
ENDROOT
BRANCH   1   6
ATOM      5  N   UNL     1      -3.595  10.161   0.087  0.00  0.00    -0.277 N 
ATOM      6  C   UNL     1      -2.419   9.503   0.076  0.00  0.00    +0.305 C 
ATOM      7  O   UNL     1      -1.376  10.124   0.062  0.00  0.00    -0.265 OA
ATOM      8  H   UNL     1      -4.428   9.668   0.017  0.00  0.00    +0.155 HD
BRANCH   5  14
ATOM      9  C   UNL     1      -4.700  12.275  -0.283  0.00  0.00    -0.026 A 
ATOM     10  C   UNL     1      -4.717  13.652  -0.169  0.00  0.00    +0.005 A 
ATOM     11  C   UNL     1      -3.656  14.311   0.423  0.00  0.00    +0.000 A 
ATOM     12  C   UNL     1      -2.575  13.596   0.905  0.00  0.00    +0.002 A 
ATOM     13  C   UNL     1      -2.553  12.219   0.799  0.00  0.00    +0.023 A 
ATOM     14  C   UNL     1      -3.615  11.553   0.200  0.00  0.00    +0.037 A 
BRANCH   9  16
ATOM     15  C   UNL     1      -6.835  11.091   0.152  0.00  0.00    +0.009 C 
ATOM     16  C   UNL     1      -5.857  11.557  -0.928  0.00  0.00    +0.033 C 
ENDBRANCH   9  16
ENDBRANCH   5  14
ENDBRANCH   1   6
BRANCH   3  17
ATOM     17  N   UNL     1      -1.204   5.953   0.072  0.00  0.00    -0.187 NA
ATOM     18  C   UNL     1      -0.071   5.319   0.062  0.00  0.00    +0.138 C 
BRANCH  18  19
ATOM     19  C   UNL     1      -0.051   3.844   0.066  0.00  0.00    -0.003 A 
ATOM     20  C   UNL     1      -1.250   3.126   0.082  0.00  0.00    +0.009 A 
ATOM     21  C   UNL     1      -1.224   1.747   0.080  0.00  0.00    +0.003 A 
ATOM     22  C   UNL     1      -0.014   1.075   0.074  0.00  0.00    +0.033 A 
ATOM     23  C   UNL     1       1.177   1.779   0.059  0.00  0.00    +0.127 A 
ATOM     24  C   UNL     1       1.166   3.159   0.054  0.00  0.00    +0.042 A 
BRANCH  23  25
ATOM     25  N   UNL     1       2.465   1.051   0.046  0.00  0.00    +0.056 N 
ATOM     26  O   UNL     1       2.477  -0.167   0.050  0.00  0.00    -0.126 OA
ATOM     27  O   UNL     1       3.514   1.670   0.033  0.00  0.00    -0.126 OA
ENDBRANCH  23  25
ENDBRANCH  18  19
ENDBRANCH   3  17
TORSDOF 6
