REMARK  Name = ZINC25449886
REMARK  8 active torsions:
REMARK  status: ('A' for Active; 'I' for Inactive)
REMARK    1  A    between atoms: C_1  and  N_2
REMARK    2  A    between atoms: N_2  and  C_3
REMARK    3  A    between atoms: C_8  and  C_9
REMARK    4  A    between atoms: N_11  and  C_12
REMARK    5  A    between atoms: C_12  and  C_13
REMARK    6  A    between atoms: C_18  and  C_20
REMARK    7  A    between atoms: C_20  and  S_21
REMARK    8  A    between atoms: S_21  and  C_22
REMARK                            x       y       z     vdW  Elec       q    Type
REMARK                         _______ _______ _______ _____ _____    ______ ____
ROOT
ATOM      1  C   UNL     1      -0.459  -5.388  -0.022  0.00  0.00    +0.138 C 
ATOM      2  N   UNL     1      -1.833  -4.878  -0.006  0.00  0.00    -0.273 N 
ATOM      3  C   UNL     1      -2.058  -3.550   0.004  0.00  0.00    +0.230 C 
ATOM      4  O   UNL     1      -3.195  -3.128   0.017  0.00  0.00    -0.274 OA
ENDROOT
BRANCH   2   5
ATOM      5  C   UNL     1      -2.905  -5.767   0.000  0.00  0.00    +0.048 A 
ATOM      6  C   UNL     1      -3.458  -6.201  -1.197  0.00  0.00    +0.024 A 
ATOM      7  C   UNL     1      -4.517  -7.086  -1.189  0.00  0.00    +0.002 A 
ATOM      8  C   UNL     1      -5.044  -7.539   0.010  0.00  0.00    +0.001 A 
ATOM      9  C   UNL     1      -4.512  -7.114   1.208  0.00  0.00    +0.015 A 
ATOM     10  C   UNL     1      -3.436  -6.223   1.216  0.00  0.00    +0.058 A 
BRANCH  10  11
ATOM     11  C   UNL     1      -2.862  -5.764   2.495  0.00  0.00    +0.246 C 
ATOM     12  O   UNL     1      -1.926  -4.988   2.497  0.00  0.00    -0.270 OA
ATOM     13  N   UNL     1      -3.375  -6.205   3.660  0.00  0.00    -0.304 N 
ATOM     14  H   UNL     1      -4.222  -6.907   3.658  0.00  0.00    +0.149 HD
BRANCH  13  15
ATOM     15  C   UNL     1      -2.805  -5.749   4.931  0.00  0.00    +0.179 C 
BRANCH  15  16
ATOM     16  C   UNL     1      -3.553  -6.385   6.074  0.00  0.00    +0.122 A 
ATOM     17  C   UNL     1      -3.247  -7.557   6.660  0.00  0.00    +0.046 A 
ATOM     18  C   UNL     1      -4.204  -7.767   7.679  0.00  0.00    +0.041 A 
ATOM     19  C   UNL     1      -5.037  -6.711   7.655  0.00  0.00    +0.195 A 
ATOM     20  O   UNL     1      -4.635  -5.875   6.685  0.00  0.00    -0.466 OA
ENDBRANCH  15  16
ENDBRANCH  13  15
ENDBRANCH  10  11
ENDBRANCH   2   5
BRANCH   3  21
ATOM     21  C   UNL     1      -0.897  -2.588  -0.003  0.00  0.00    +0.173 C 
BRANCH  21  22
ATOM     22  S   UNL     1      -1.521  -0.889   0.012  0.00  0.00    -0.077 S 
BRANCH  22  23
ATOM     23  C   UNL     1       0.002  -0.004   0.002  0.00  0.00    +0.191 A 
ATOM     24  N   UNL     1      -0.016   1.324   0.009  0.00  0.00    -0.207 NA
ATOM     25  C   UNL     1       1.094   2.042   0.003  0.00  0.00    +0.129 A 
ATOM     26  C   UNL     1       2.353   1.378  -0.013  0.00  0.00    +0.047 A 
ATOM     27  C   UNL     1       3.695   1.935  -0.023  0.00  0.00    +0.021 A 
ATOM     28  C   UNL     1       4.748   1.106  -0.037  0.00  0.00    +0.048 A 
ATOM     29  S   UNL     1       4.003  -0.514  -0.039  0.00  0.00    -0.077 S 
ATOM     30  C   UNL     1       2.296  -0.032  -0.020  0.00  0.00    +0.114 A 
ATOM     31  N   UNL     1       1.145  -0.676  -0.013  0.00  0.00    -0.215 NA
ATOM     32  N   UNL     1       1.033   3.423   0.010  0.00  0.00    -0.343 N 
ATOM     33  H   UNL     1       1.960   4.015   0.004  0.00  0.00    +0.144 HD
ATOM     34  H   UNL     1       0.057   3.930   0.022  0.00  0.00    +0.144 HD
ENDBRANCH  22  23
ENDBRANCH  21  22
ENDBRANCH   3  21
TORSDOF 7
