REMARK  Name = ZINC08765435
REMARK  4 active torsions:
REMARK  status: ('A' for Active; 'I' for Inactive)
REMARK    1  A    between atoms: C_1  and  C_2
REMARK    2  A    between atoms: C_2  and  C_4
REMARK    3  A    between atoms: C_7  and  N_10
REMARK    4  A    between atoms: C_14  and  N_50
REMARK                            x       y       z     vdW  Elec       q    Type
REMARK                         _______ _______ _______ _____ _____    ______ ____
ROOT
ATOM      1  N   UNL     1      -2.454   3.818   0.044  0.00  0.00    -0.212 N 
ATOM      2  C   UNL     1      -2.542   5.150   0.150  0.00  0.00    +0.225 C 
ATOM      3  O   UNL     1      -1.602   5.910   0.243  0.00  0.00    -0.275 OA
ATOM      4  C   UNL     1      -3.999   5.556   0.135  0.00  0.00    +0.091 C 
ATOM      5  C   UNL     1      -4.747   4.214   0.001  0.00  0.00    +0.029 C 
ATOM      6  C   UNL     1      -3.633   3.191  -0.051  0.00  0.00    +0.213 C 
ATOM      7  O   UNL     1      -3.784   1.993  -0.159  0.00  0.00    -0.277 OA
ENDROOT
BRANCH   5  21
ATOM      8  C   UNL     1      -6.456   5.321  -1.310  0.00  0.00    -0.071 C 
ATOM      9  C   UNL     1      -6.968   5.480  -2.748  0.00  0.00    +0.035 C 
ATOM     10  C   UNL     1      -7.449   4.129  -3.225  0.00  0.00    +0.017 A 
ATOM     11  C   UNL     1      -7.124   2.974  -2.602  0.00  0.00    -0.036 A 
ATOM     12  C   UNL     1      -7.765   1.903  -3.332  0.00  0.00    +0.001 A 
ATOM     13  C   UNL     1      -7.791   0.515  -3.157  0.00  0.00    +0.010 A 
ATOM     14  C   UNL     1      -8.522  -0.212  -4.063  0.00  0.00    +0.001 A 
ATOM     15  C   UNL     1      -9.207   0.388  -5.107  0.00  0.00    +0.002 A 
ATOM     16  C   UNL     1      -9.200   1.758  -5.304  0.00  0.00    +0.026 A 
ATOM     17  C   UNL     1      -8.466   2.522  -4.400  0.00  0.00    +0.047 A 
ATOM     18  N   UNL     1      -8.249   3.867  -4.303  0.00  0.00    -0.358 N 
ATOM     19  H   UNL     1      -8.609   4.536  -4.906  0.00  0.00    +0.166 HD
ATOM     20  C   UNL     1      -6.249   2.902  -1.377  0.00  0.00    -0.040 C 
ATOM     21  N   UNL     1      -5.511   4.183  -1.263  0.00  0.00    +0.391 N 
ATOM     22  H   UNL     1      -4.857   4.261  -2.051  0.00  0.00    -0.080 HD
ENDBRANCH   5  21
BRANCH   1  26
ATOM     23  C   UNL     1       1.190   1.794   0.000  0.00  0.00    +0.017 A 
ATOM     24  C   UNL     1       0.839   2.631  -1.065  0.00  0.00    +0.013 A 
ATOM     25  C   UNL     1      -0.362   3.302  -1.044  0.00  0.00    +0.024 A 
ATOM     26  C   UNL     1      -1.233   3.140   0.030  0.00  0.00    +0.044 A 
ATOM     27  C   UNL     1      -0.889   2.308   1.091  0.00  0.00    +0.024 A 
ATOM     28  C   UNL     1       0.313   1.638   1.081  0.00  0.00    +0.013 A 
BRANCH  23  30
ATOM     29  C   UNL     1       2.849   0.178   1.133  0.00  0.00    +0.091 C 
ATOM     30  C   UNL     1       2.474   1.079  -0.015  0.00  0.00    +0.160 C 
ATOM     31  O   UNL     1       3.232   1.216  -0.953  0.00  0.00    -0.292 OA
ENDBRANCH  23  30
ENDBRANCH   1  26
TORSDOF 3
