REMARK  Name = ZINC12801156
REMARK  8 active torsions:
REMARK  status: ('A' for Active; 'I' for Inactive)
REMARK    1  A    between atoms: C_1  and  C_2
REMARK    2  A    between atoms: C_2  and  C_3
REMARK    3  A    between atoms: C_2  and  C_4
REMARK    4  A    between atoms: C_4  and  C_6
REMARK    5  A    between atoms: C_4  and  S_12
REMARK    6  A    between atoms: S_12  and  C_13
REMARK    7  A    between atoms: N_26  and  C_27
REMARK    8  A    between atoms: C_27  and  C_28
REMARK                            x       y       z     vdW  Elec       q    Type
REMARK                         _______ _______ _______ _____ _____    ______ ____
ROOT
ATOM      1  C   UNL     1       0.012   0.062   0.090  0.00  0.00    +0.174 A 
ATOM      2  N   UNL     1      -0.038   1.375  -0.002  0.00  0.00    -0.216 NA
ATOM      3  C   UNL     1       1.075   2.096  -0.064  0.00  0.00    +0.117 A 
ATOM      4  C   UNL     1       2.350   1.506  -0.035  0.00  0.00    +0.076 A 
ATOM      5  C   UNL     1       3.484   2.429  -0.110  0.00  0.00    -0.023 A 
ATOM      6  C   UNL     1       3.197   3.744  -0.201  0.00  0.00    -0.004 A 
ATOM      7  S   UNL     1       1.427   3.831  -0.191  0.00  0.00    -0.073 S 
ATOM      8  C   UNL     1       4.170   4.881  -0.290  0.00  0.00    +0.043 C 
ATOM      9  C   UNL     1       5.558   4.363   0.111  0.00  0.00    +0.005 C 
ATOM     10  C   UNL     1       5.830   3.055  -0.638  0.00  0.00    +0.005 C 
ATOM     11  C   UNL     1       4.931   1.946  -0.090  0.00  0.00    +0.037 C 
ATOM     12  C   UNL     1       2.374   0.079   0.066  0.00  0.00    +0.264 A 
ATOM     13  O   UNL     1       3.436  -0.520   0.099  0.00  0.00    -0.267 OA
ATOM     14  N   UNL     1       1.210  -0.593   0.124  0.00  0.00    -0.283 N 
ENDROOT
BRANCH   1  15
ATOM     15  S   UNL     1      -1.486  -0.862   0.169  0.00  0.00    -0.075 S 
BRANCH  15  16
ATOM     16  C   UNL     1      -2.688   0.490   0.190  0.00  0.00    +0.143 C 
BRANCH  16  17
ATOM     17  C   UNL     1      -2.683   1.188  -1.146  0.00  0.00    +0.234 C 
ATOM     18  O   UNL     1      -2.323   0.593  -2.139  0.00  0.00    -0.274 OA
ATOM     19  N   UNL     1      -3.078   2.473  -1.237  0.00  0.00    -0.239 N 
ATOM     20  C   UNL     1      -3.073   3.097  -2.431  0.00  0.00    +0.303 C 
ATOM     21  O   UNL     1      -2.712   2.501  -3.427  0.00  0.00    -0.253 OA
ATOM     22  N   UNL     1      -3.468   4.382  -2.522  0.00  0.00    -0.313 N 
ATOM     23  H   UNL     1      -3.366   2.949  -0.442  0.00  0.00    +0.159 HD
ATOM     24  H   UNL     1      -3.756   4.858  -1.727  0.00  0.00    +0.146 HD
ATOM     25  H   UNL     1      -3.465   4.831  -3.382  0.00  0.00    +0.146 HD
ENDBRANCH  16  17
BRANCH  16  27
ATOM     26  C   UNL     1      -4.090  -0.782   1.821  0.00  0.00    +0.009 C 
ATOM     27  C   UNL     1      -4.084  -0.073   0.465  0.00  0.00    +0.005 C 
ATOM     28  C   UNL     1      -5.101   1.071   0.484  0.00  0.00    +0.009 C 
ENDBRANCH  16  27
ENDBRANCH  15  16
ENDBRANCH   1  15
BRANCH  14  29
ATOM     29  C   UNL     1       1.227  -2.054   0.226  0.00  0.00    +0.162 C 
BRANCH  29  30
ATOM     30  C   UNL     1       1.220  -2.654  -1.156  0.00  0.00    -0.028 A 
ATOM     31  C   UNL     1       0.019  -2.948  -1.776  0.00  0.00    +0.005 A 
ATOM     32  C   UNL     1       0.012  -3.494  -3.045  0.00  0.00    +0.000 A 
ATOM     33  C   UNL     1       1.206  -3.756  -3.692  0.00  0.00    +0.000 A 
ATOM     34  C   UNL     1       2.406  -3.467  -3.070  0.00  0.00    +0.000 A 
ATOM     35  C   UNL     1       2.413  -2.916  -1.802  0.00  0.00    +0.005 A 
ENDBRANCH  29  30
ENDBRANCH  14  29
TORSDOF 6
