REMARK  Name = ZINC06149476
REMARK  12 active torsions:
REMARK  status: ('A' for Active; 'I' for Inactive)
REMARK    1  A    between atoms: C_1  and  C_2
REMARK    2  A    between atoms: C_2  and  C_3
REMARK    3  A    between atoms: C_3  and  C_4
REMARK    4  A    between atoms: C_3  and  C_5
REMARK    5  A    between atoms: C_3  and  N_6
REMARK    6  A    between atoms: C_7  and  C_11
REMARK    7  A    between atoms: C_11  and  C_13
REMARK    8  A    between atoms: C_11  and  N_73
REMARK    9  A    between atoms: C_17  and  O_25
REMARK   10  A    between atoms: O_25  and  C_26
REMARK   11  A    between atoms: C_29  and  C_32
REMARK   12  A    between atoms: C_32  and  C_33
REMARK                            x       y       z     vdW  Elec       q    Type
REMARK                         _______ _______ _______ _____ _____    ______ ____
ROOT
ATOM      1  C   UNL     1       3.531   0.714  -0.133  0.00  0.00    +0.039 C 
ENDROOT
BRANCH   1   2
ATOM      2  C   UNL     1       4.104   0.974   1.237  0.00  0.00    +0.011 A 
ATOM      3  C   UNL     1       4.846   0.020   1.851  0.00  0.00    +0.017 A 
ATOM      4  C   UNL     1       5.388   0.303   3.181  0.00  0.00    +0.002 A 
ATOM      5  C   UNL     1       6.161  -0.643   3.862  0.00  0.00    +0.055 A 
ATOM      6  C   UNL     1       6.657  -0.343   5.115  0.00  0.00    +0.121 A 
ATOM      7  C   UNL     1       6.392   0.894   5.699  0.00  0.00    +0.047 A 
ATOM      8  C   UNL     1       5.633   1.833   5.038  0.00  0.00    +0.030 A 
ATOM      9  C   UNL     1       5.123   1.552   3.775  0.00  0.00    +0.049 A 
ATOM     10  N   UNL     1       4.360   2.480   3.096  0.00  0.00    -0.322 N 
ATOM     11  H   UNL     1       4.168   3.365   3.520  0.00  0.00    +0.169 HD
ATOM     12  C   UNL     1       3.871   2.212   1.872  0.00  0.00    +0.251 A 
ATOM     13  O   UNL     1       3.206   3.059   1.300  0.00  0.00    -0.268 OA
BRANCH   6  14
ATOM     14  O   UNL     1       7.409  -1.259   5.782  0.00  0.00    -0.495 OA
ATOM     15  C   UNL     1       7.891  -0.885   7.074  0.00  0.00    +0.277 C 
ENDBRANCH   6  14
ENDBRANCH   1   2
BRANCH   1  21
ATOM     16  C   UNL     1       3.335   1.612  -2.372  0.00  0.00    -0.077 C 
ATOM     17  C   UNL     1       3.683   2.812  -3.255  0.00  0.00    -0.015 C 
ATOM     18  C   UNL     1       5.205   2.913  -3.395  0.00  0.00    -0.010 C 
ATOM     19  C   UNL     1       5.830   3.036  -2.003  0.00  0.00    -0.015 C 
ATOM     20  C   UNL     1       5.420   1.830  -1.156  0.00  0.00    -0.077 C 
ATOM     21  N   UNL     1       3.946   1.804  -1.040  0.00  0.00    +0.389 N 
ATOM     22  H   UNL     1       3.627   2.700  -0.653  0.00  0.00    -0.080 HD
BRANCH  18  23
ATOM     23  C   UNL     1       5.562   4.146  -4.228  0.00  0.00    +0.038 C 
BRANCH  23  24
ATOM     24  C   UNL     1       5.051   3.968  -5.634  0.00  0.00    -0.047 A 
ATOM     25  C   UNL     1       5.855   3.380  -6.593  0.00  0.00    +0.003 A 
ATOM     26  C   UNL     1       5.385   3.213  -7.881  0.00  0.00    +0.000 A 
ATOM     27  C   UNL     1       4.114   3.643  -8.214  0.00  0.00    +0.000 A 
ATOM     28  C   UNL     1       3.311   4.235  -7.257  0.00  0.00    +0.000 A 
ATOM     29  C   UNL     1       3.780   4.398  -5.967  0.00  0.00    +0.003 A 
ENDBRANCH  23  24
ENDBRANCH  18  23
ENDBRANCH   1  21
BRANCH   1  31
ATOM     30  N   UNL     1       1.228  -0.380  -0.215  0.00  0.00    -0.225 N 
ATOM     31  C   UNL     1       2.026   0.692  -0.052  0.00  0.00    +0.143 A 
ATOM     32  N   UNL     1       1.240   1.712   0.192  0.00  0.00    -0.115 NA
ATOM     33  N   UNL     1       0.023   1.289   0.179  0.00  0.00    -0.023 NA
ATOM     34  N   UNL     1       0.012   0.026  -0.066  0.00  0.00    -0.043 NA
BRANCH  30  35
ATOM     35  C   UNL     1       1.659  -1.749  -0.506  0.00  0.00    +0.061 C 
ATOM     36  C   UNL     1       2.376  -1.781  -1.857  0.00  0.00    +0.036 C 
ATOM     37  C   UNL     1       2.614  -2.228   0.590  0.00  0.00    +0.036 C 
BRANCH  35  39
ATOM     38  C   UNL     1       0.887  -4.099  -0.860  0.00  0.00    +0.006 C 
ATOM     39  C   UNL     1       0.437  -2.669  -0.556  0.00  0.00    +0.026 C 
ENDBRANCH  35  39
ENDBRANCH  30  35
ENDBRANCH   1  31
TORSDOF 8
