REMARK  Name = ZINC30828153
REMARK  6 active torsions:
REMARK  status: ('A' for Active; 'I' for Inactive)
REMARK    1  A    between atoms: C_3  and  N_25
REMARK    2  A    between atoms: C_6  and  N_7
REMARK    3  A    between atoms: C_8  and  C_10
REMARK    4  A    between atoms: C_12  and  N_22
REMARK    5  A    between atoms: C_15  and  N_16
REMARK    6  A    between atoms: C_31  and  C_33
REMARK                            x       y       z     vdW  Elec       q    Type
REMARK                         _______ _______ _______ _____ _____    ______ ____
ROOT
ATOM      1  N   UNL     1       2.384   5.303   0.008  0.00  0.00    -0.281 N 
ATOM      2  C   UNL     1       2.414   3.955   0.003  0.00  0.00    +0.250 C 
ATOM      3  O   UNL     1       3.481   3.371  -0.002  0.00  0.00    -0.270 OA
ATOM      4  H   UNL     1       1.422   5.832  -0.065  0.00  0.00    +0.155 HD
ENDROOT
BRANCH   1  10
ATOM      5  C   UNL     1       3.603   7.230   0.805  0.00  0.00    +0.025 A 
ATOM      6  C   UNL     1       4.780   7.945   0.906  0.00  0.00    +0.025 A 
ATOM      7  C   UNL     1       5.935   7.468   0.301  0.00  0.00    +0.030 A 
ATOM      8  C   UNL     1       5.908   6.270  -0.401  0.00  0.00    +0.025 A 
ATOM      9  C   UNL     1       4.732   5.554  -0.498  0.00  0.00    +0.025 A 
ATOM     10  C   UNL     1       3.577   6.030   0.107  0.00  0.00    +0.034 A 
BRANCH   7  11
ATOM     11  N   UNL     1       7.127   8.195   0.399  0.00  0.00    -0.327 N 
ATOM     12  C   UNL     1       8.203   7.369   0.963  0.00  0.00    +0.124 C 
ATOM     13  C   UNL     1       9.526   8.137   0.886  0.00  0.00    +0.127 C 
ATOM     14  N   UNL     1       9.345   9.447   1.531  0.00  0.00    -0.291 N 
ATOM     15  C   UNL     1       8.203  10.275   1.113  0.00  0.00    +0.127 C 
ATOM     16  C   UNL     1       6.932   9.423   1.182  0.00  0.00    +0.124 C 
ATOM     17  C   UNL     1      10.201   9.876   2.478  0.00  0.00    +0.320 C 
ATOM     18  O   UNL     1      10.037  10.959   2.999  0.00  0.00    -0.266 OA
BRANCH  17  19
ATOM     19  C   UNL     1      11.364   9.010   2.891  0.00  0.00    +0.470 C 
ATOM     20  F   UNL     1      12.104   9.665   3.881  0.00  0.00    -0.162 F 
ATOM     21  F   UNL     1      10.886   7.795   3.393  0.00  0.00    -0.162 F 
ATOM     22  F   UNL     1      12.181   8.768   1.782  0.00  0.00    -0.162 F 
ENDBRANCH  17  19
ENDBRANCH   7  11
ENDBRANCH   1  10
BRANCH   2  23
ATOM     23  C   UNL     1       1.154   3.190   0.002  0.00  0.00    +0.060 A 
ATOM     24  C   UNL     1      -0.074   3.856   0.007  0.00  0.00    +0.047 A 
ATOM     25  C   UNL     1      -1.247   3.135   0.007  0.00  0.00    +0.127 A 
ATOM     26  C   UNL     1      -1.218   1.749  -0.004  0.00  0.00    +0.034 A 
ATOM     27  C   UNL     1      -0.013   1.076  -0.004  0.00  0.00    +0.026 A 
ATOM     28  C   UNL     1       1.181   1.786  -0.004  0.00  0.00    +0.042 A 
BRANCH  28  29
ATOM     29  N   UNL     1       2.395   1.111  -0.009  0.00  0.00    -0.329 N 
ATOM     30  C   UNL     1       2.562   0.339  -1.246  0.00  0.00    +0.105 C 
ATOM     31  C   UNL     1       3.965  -0.272  -1.282  0.00  0.00    +0.019 C 
ATOM     32  C   UNL     1       4.153  -1.179  -0.063  0.00  0.00    +0.003 C 
ATOM     33  C   UNL     1       3.925  -0.361   1.212  0.00  0.00    +0.019 C 
ATOM     34  C   UNL     1       2.524   0.252   1.175  0.00  0.00    +0.105 C 
ENDBRANCH  28  29
BRANCH  25  35
ATOM     35  N   UNL     1      -2.547   3.843   0.012  0.00  0.00    +0.056 N 
ATOM     36  O   UNL     1      -2.577   5.061   0.017  0.00  0.00    -0.126 OA
ATOM     37  O   UNL     1      -3.586   3.209   0.012  0.00  0.00    -0.126 OA
ENDBRANCH  25  35
ENDBRANCH   2  23
TORSDOF 6
