REMARK  Name = ZINC39594268
REMARK  10 active torsions:
REMARK  status: ('A' for Active; 'I' for Inactive)
REMARK    1  A    between atoms: C_1  and  C_2
REMARK    2  A    between atoms: C_5  and  C_37
REMARK    3  A    between atoms: N_8  and  S_10
REMARK    4  A    between atoms: S_10  and  C_13
REMARK    5  A    between atoms: C_17  and  C_19
REMARK    6  A    between atoms: C_19  and  O_21
REMARK    7  A    between atoms: O_21  and  C_22
REMARK    8  A    between atoms: C_22  and  C_24
REMARK    9  A    between atoms: C_22  and  C_25
REMARK   10  A    between atoms: N_27  and  C_28
REMARK                            x       y       z     vdW  Elec       q    Type
REMARK                         _______ _______ _______ _____ _____    ______ ____
ROOT
ATOM      1  C   UNL     1       4.811  -1.782  -2.814  0.00  0.00    +0.340 C 
ATOM      2  O   UNL     1       5.222  -0.792  -2.243  0.00  0.00    -0.245 OA
ENDROOT
BRANCH   1   7
ATOM      3  C   UNL     1       2.505  -3.224  -0.225  0.00  0.00    +0.106 A 
ATOM      4  C   UNL     1       2.039  -4.352  -0.878  0.00  0.00    +0.028 A 
ATOM      5  C   UNL     1       2.471  -4.646  -2.159  0.00  0.00    +0.003 A 
ATOM      6  C   UNL     1       3.372  -3.815  -2.794  0.00  0.00    +0.015 A 
ATOM      7  C   UNL     1       3.846  -2.676  -2.141  0.00  0.00    +0.061 A 
ATOM      8  C   UNL     1       3.401  -2.382  -0.850  0.00  0.00    +0.043 A 
BRANCH   3   9
ATOM      9  S   UNL     1       1.948  -2.860   1.407  0.00  0.00    +0.061 S 
ATOM     10  O   UNL     1       2.945  -2.042   2.003  0.00  0.00    -0.153 OA
ATOM     11  O   UNL     1       1.532  -4.093   1.978  0.00  0.00    -0.153 OA
BRANCH   9  17
ATOM     12  C   UNL     1      -0.057   1.573  -0.040  0.00  0.00    +0.009 C 
ATOM     13  C   UNL     1      -0.038   0.043  -0.040  0.00  0.00    +0.002 C 
ATOM     14  C   UNL     1      -1.474  -0.486  -0.032  0.00  0.00    +0.009 C 
ATOM     15  C   UNL     1      -1.456  -2.016  -0.065  0.00  0.00    +0.002 C 
ATOM     16  C   UNL     1      -0.741  -2.541   1.184  0.00  0.00    +0.112 C 
ATOM     17  N   UNL     1       0.590  -1.923   1.262  0.00  0.00    -0.176 NA
ATOM     18  C   UNL     1       0.694  -0.458   1.209  0.00  0.00    +0.112 C 
ATOM     19  C   UNL     1      -0.715  -2.491  -1.316  0.00  0.00    +0.009 C 
ENDBRANCH   9  17
ENDBRANCH   3   9
ENDBRANCH   1   7
BRANCH   1  20
ATOM     20  O   UNL     1       5.234  -2.065  -4.061  0.00  0.00    -0.449 OA
BRANCH  20  21
ATOM     21  C   UNL     1       6.166  -1.157  -4.652  0.00  0.00    +0.259 C 
ATOM     22  C   UNL     1       7.592  -1.601  -4.317  0.00  0.00    +0.062 C 
BRANCH  21  23
ATOM     23  C   UNL     1       5.981  -1.149  -6.147  0.00  0.00    +0.258 C 
ATOM     24  O   UNL     1       5.134  -1.851  -6.657  0.00  0.00    -0.271 OA
ATOM     25  N   UNL     1       6.757  -0.361  -6.918  0.00  0.00    -0.280 N 
ATOM     26  H   UNL     1       7.390   0.248  -6.506  0.00  0.00    +0.155 HD
BRANCH  25  27
ATOM     27  C   UNL     1       6.649  -0.421  -8.314  0.00  0.00    +0.072 A 
ATOM     28  C   UNL     1       5.416  -0.657  -8.906  0.00  0.00    +0.029 A 
ATOM     29  C   UNL     1       5.310  -0.717 -10.282  0.00  0.00    +0.043 A 
ATOM     30  C   UNL     1       6.433  -0.542 -11.073  0.00  0.00    +0.161 A 
ATOM     31  C   UNL     1       7.667  -0.307 -10.486  0.00  0.00    +0.195 A 
ATOM     32  C   UNL     1       7.776  -0.240  -9.107  0.00  0.00    +0.182 A 
ATOM     33  F   UNL     1       8.976  -0.005  -8.534  0.00  0.00    -0.200 F 
ATOM     34  F   UNL     1       8.761  -0.138 -11.259  0.00  0.00    -0.199 F 
ATOM     35  F   UNL     1       6.326  -0.602 -12.418  0.00  0.00    -0.202 F 
ENDBRANCH  25  27
ENDBRANCH  21  23
ENDBRANCH  20  21
ENDBRANCH   1  20
TORSDOF 7
