REMARK  Name = ZINC39653424
REMARK  13 active torsions:
REMARK  status: ('A' for Active; 'I' for Inactive)
REMARK    1  A    between atoms: C_1  and  C_2
REMARK    2  A    between atoms: C_2  and  O_3
REMARK    3  A    between atoms: O_3  and  C_4
REMARK    4  A    between atoms: C_6  and  C_12
REMARK    5  A    between atoms: C_9  and  O_10
REMARK    6  A    between atoms: O_10  and  C_11
REMARK    7  A    between atoms: C_12  and  C_13
REMARK    8  A    between atoms: C_13  and  N_14
REMARK    9  A    between atoms: C_15  and  C_17
REMARK   10  A    between atoms: C_28  and  C_30
REMARK   11  A    between atoms: C_35  and  S_36
REMARK   12  A    between atoms: S_36  and  C_37
REMARK   13  A    between atoms: C_37  and  C_38
REMARK                            x       y       z     vdW  Elec       q    Type
REMARK                         _______ _______ _______ _____ _____    ______ ____
ROOT
ATOM      1  C   UNL     1       0.080  -7.341  -5.235  0.00  0.00    +0.100 C 
ATOM      2  C   UNL     1      -0.084  -8.652  -4.434  0.00  0.00    +0.121 C 
ATOM      3  N   UNL     1       0.379  -9.716  -5.357  0.00  0.00    -0.296 N 
ATOM      4  C   UNL     1       1.552  -9.124  -6.043  0.00  0.00    +0.115 C 
ATOM      5  C   UNL     1       1.155  -7.654  -6.289  0.00  0.00    -0.004 C 
ATOM      6  C   UNL     1       2.364  -6.743  -6.098  0.00  0.00    -0.010 C 
ATOM      7  C   UNL     1       3.394  -7.033  -7.194  0.00  0.00    -0.082 C 
ATOM      8  N   UNL     1       2.788  -6.806  -8.511  0.00  0.00    +0.379 N 
ATOM      9  C   UNL     1       1.685  -7.751  -8.724  0.00  0.00    -0.082 C 
ATOM     10  C   UNL     1       0.582  -7.491  -7.693  0.00  0.00    -0.010 C 
ATOM     11  C   UNL     1      -0.149 -10.943  -5.533  0.00  0.00    +0.249 C 
ATOM     12  O   UNL     1       0.404 -11.743  -6.264  0.00  0.00    -0.270 OA
ATOM     13  H   UNL     1       2.435  -5.862  -8.559  0.00  0.00    -0.086 HD
ATOM     14  H   UNL     1       3.485  -6.939  -9.228  0.00  0.00    -0.086 HD
ENDROOT
BRANCH  11  15
ATOM     15  C   UNL     1      -1.395 -11.316  -4.841  0.00  0.00    +0.069 A 
ATOM     16  C   UNL     1      -1.662 -10.845  -3.550  0.00  0.00    +0.017 A 
ATOM     17  C   UNL     1      -2.846 -11.224  -2.944  0.00  0.00    +0.020 A 
ATOM     18  C   UNL     1      -3.726 -12.050  -3.622  0.00  0.00    +0.112 A 
ATOM     19  N   UNL     1      -3.457 -12.483  -4.838  0.00  0.00    -0.248 NA
ATOM     20  C   UNL     1      -2.341 -12.147  -5.467  0.00  0.00    +0.109 A 
BRANCH  20  21
ATOM     21  S   UNL     1      -2.037 -12.750  -7.095  0.00  0.00    -0.105 S 
BRANCH  21  22
ATOM     22  C   UNL     1      -3.500 -13.754  -7.472  0.00  0.00    +0.072 C 
ATOM     23  C   UNL     1      -3.364 -14.346  -8.876  0.00  0.00    +0.015 C 
ENDBRANCH  21  22
ENDBRANCH  20  21
ENDBRANCH  11  15
BRANCH   1  25
ATOM     24  N   UNL     1       0.209  -4.952  -4.610  0.00  0.00    -0.315 N 
ATOM     25  C   UNL     1       0.541  -6.228  -4.330  0.00  0.00    +0.218 C 
ATOM     26  O   UNL     1       1.210  -6.480  -3.351  0.00  0.00    -0.275 OA
ATOM     27  H   UNL     1      -0.326  -4.750  -5.393  0.00  0.00    +0.149 HD
BRANCH  24  28
ATOM     28  C   UNL     1       0.657  -3.869  -3.730  0.00  0.00    +0.109 C 
BRANCH  28  29
ATOM     29  C   UNL     1       0.149  -2.530  -4.270  0.00  0.00    +0.054 C 
BRANCH  29  32
ATOM     30  C   UNL     1       2.244   0.234  -2.772  0.00  0.00    +0.162 A 
ATOM     31  C   UNL     1       1.819  -0.790  -3.603  0.00  0.00    +0.053 A 
ATOM     32  C   UNL     1       0.610  -1.417  -3.365  0.00  0.00    -0.042 A 
ATOM     33  C   UNL     1      -0.178  -1.023  -2.299  0.00  0.00    +0.007 A 
ATOM     34  C   UNL     1       0.240  -0.002  -1.467  0.00  0.00    +0.049 A 
ATOM     35  C   UNL     1       1.454   0.626  -1.696  0.00  0.00    +0.162 A 
BRANCH  35  36
ATOM     36  O   UNL     1       1.869   1.627  -0.875  0.00  0.00    -0.491 OA
ATOM     37  C   UNL     1       1.007   1.976   0.210  0.00  0.00    +0.277 C 
ENDBRANCH  35  36
BRANCH  30  38
ATOM     38  O   UNL     1       3.434   0.851  -3.005  0.00  0.00    -0.489 OA
BRANCH  38  40
ATOM     39  C   UNL     1       5.488   1.202  -4.227  0.00  0.00    +0.048 C 
ATOM     40  C   UNL     1       4.192   0.396  -4.127  0.00  0.00    +0.226 C 
ENDBRANCH  38  40
ENDBRANCH  30  38
ENDBRANCH  29  32
ENDBRANCH  28  29
ENDBRANCH  24  28
ENDBRANCH   1  25
TORSDOF 10
