REMARK  Name = ZINC21664310
REMARK  10 active torsions:
REMARK  status: ('A' for Active; 'I' for Inactive)
REMARK    1  A    between atoms: C_1  and  C_2
REMARK    2  A    between atoms: C_8  and  C_10
REMARK    3  A    between atoms: C_12  and  N_22
REMARK    4  A    between atoms: C_15  and  N_16
REMARK    5  A    between atoms: N_22  and  S_23
REMARK    6  A    between atoms: S_23  and  C_26
REMARK    7  A    between atoms: C_29  and  C_32
REMARK    8  A    between atoms: C_32  and  C_33
REMARK    9  A    between atoms: C_33  and  C_34
REMARK   10  A    between atoms: C_33  and  C_35
REMARK                            x       y       z     vdW  Elec       q    Type
REMARK                         _______ _______ _______ _____ _____    ______ ____
ROOT
ATOM      1  C   UNL     1      -8.560   3.960   3.420  0.00  0.00    +0.060 A 
ATOM      2  C   UNL     1      -8.400   2.604   3.119  0.00  0.00    +0.039 A 
ATOM      3  C   UNL     1      -7.314   2.188   2.371  0.00  0.00    +0.049 A 
ATOM      4  C   UNL     1      -6.378   3.115   1.921  0.00  0.00    +0.026 A 
ATOM      5  C   UNL     1      -6.531   4.455   2.208  0.00  0.00    +0.026 A 
ATOM      6  C   UNL     1      -7.616   4.889   2.958  0.00  0.00    +0.042 A 
ENDROOT
BRANCH   1  14
ATOM      7  C   UNL     1     -14.381   5.023   1.464  0.00  0.00    +0.007 C 
ATOM      8  C   UNL     1     -13.418   4.340   2.437  0.00  0.00    -0.011 C 
ATOM      9  C   UNL     1     -13.069   5.307   3.571  0.00  0.00    +0.022 C 
ATOM     10  C   UNL     1     -12.132   4.609   4.562  0.00  0.00    +0.108 C 
ATOM     11  N   UNL     1     -10.967   4.094   3.828  0.00  0.00    -0.297 N 
ATOM     12  C   UNL     1     -11.193   3.232   2.660  0.00  0.00    +0.108 C 
ATOM     13  C   UNL     1     -12.141   3.941   1.694  0.00  0.00    +0.022 C 
ATOM     14  C   UNL     1      -9.716   4.411   4.216  0.00  0.00    +0.248 C 
ATOM     15  O   UNL     1      -9.540   5.069   5.224  0.00  0.00    -0.270 OA
ENDBRANCH   1  14
BRANCH   6  16
ATOM     16  N   UNL     1      -7.766   6.241   3.252  0.00  0.00    -0.333 N 
ATOM     17  C   UNL     1      -6.558   6.995   2.891  0.00  0.00    +0.086 C 
ATOM     18  C   UNL     1      -6.733   8.459   3.302  0.00  0.00    -0.063 C 
ATOM     19  N   UNL     1      -7.917   9.015   2.633  0.00  0.00    +0.381 N 
ATOM     20  C   UNL     1      -9.125   8.261   2.994  0.00  0.00    -0.063 C 
ATOM     21  C   UNL     1      -8.951   6.797   2.583  0.00  0.00    +0.086 C 
ATOM     22  H   UNL     1      -8.051  10.064   2.936  0.00  0.00    -0.086 HD
ATOM     23  H   UNL     1      -7.780   8.964   1.542  0.00  0.00    -0.086 HD
ENDBRANCH   6  16
BRANCH   3  24
ATOM     24  N   UNL     1      -7.152   0.831   2.069  0.00  0.00    -0.216 N 
ATOM     25  H   UNL     1      -7.805   0.351   1.325  0.00  0.00    +0.174 HD
BRANCH  24  26
ATOM     26  S   UNL     1      -5.979  -0.053   2.834  0.00  0.00    +0.072 S 
ATOM     27  O   UNL     1      -4.768   0.677   2.700  0.00  0.00    -0.150 OA
ATOM     28  O   UNL     1      -6.117  -1.392   2.377  0.00  0.00    -0.150 OA
BRANCH  26  29
ATOM     29  C   UNL     1      -6.373  -0.066   4.552  0.00  0.00    +0.109 A 
ATOM     30  C   UNL     1      -7.261  -1.000   5.051  0.00  0.00    +0.029 A 
ATOM     31  C   UNL     1      -7.569  -1.009   6.398  0.00  0.00    +0.005 A 
ATOM     32  C   UNL     1      -6.989  -0.085   7.247  0.00  0.00    -0.047 A 
ATOM     33  C   UNL     1      -6.105   0.852   6.747  0.00  0.00    +0.005 A 
ATOM     34  C   UNL     1      -5.793   0.860   5.400  0.00  0.00    +0.029 A 
BRANCH  32  35
ATOM     35  C   UNL     1      -7.325  -0.096   8.716  0.00  0.00    +0.038 C 
BRANCH  35  36
ATOM     36  C   UNL     1      -6.346  -1.009   9.456  0.00  0.00    -0.013 C 
ATOM     37  C   UNL     1      -6.540  -2.452   8.986  0.00  0.00    +0.007 C 
ATOM     38  C   UNL     1      -6.607  -0.924  10.961  0.00  0.00    +0.007 C 
ENDBRANCH  35  36
ENDBRANCH  32  35
ENDBRANCH  26  29
ENDBRANCH  24  26
ENDBRANCH   3  24
TORSDOF 7
