REMARK  Name = ZINC28579279
REMARK  3 active torsions:
REMARK  status: ('A' for Active; 'I' for Inactive)
REMARK    1  A    between atoms: C_5  and  N_7
REMARK    2  A    between atoms: N_10  and  C_11
REMARK    3  A    between atoms: C_12  and  C_22
REMARK                            x       y       z     vdW  Elec       q    Type
REMARK                         _______ _______ _______ _____ _____    ______ ____
ROOT
ATOM      1  N   UNL     1       2.357   3.888   0.000  0.00  0.00    -0.268 N 
ATOM      2  C   UNL     1       3.533   3.235   0.086  0.00  0.00    +0.309 C 
ATOM      3  O   UNL     1       3.555   2.020   0.080  0.00  0.00    -0.252 OA
ATOM      4  N   UNL     1       4.684   3.930   0.180  0.00  0.00    -0.263 N 
ATOM      5  H   UNL     1       2.342   4.985  -0.087  0.00  0.00    +0.156 HD
ATOM      6  H   UNL     1       4.664   5.030   0.186  0.00  0.00    +0.157 HD
ENDROOT
BRANCH   4   7
ATOM      7  C   UNL     1       5.888   3.261   0.269  0.00  0.00    +0.083 C 
ATOM      8  C   UNL     1       7.127   3.817   0.369  0.00  0.00    +0.061 C 
ATOM      9  C   UNL     1       8.296   2.914   0.484  0.00  0.00    +0.045 C 
ATOM     10  C   UNL     1       9.556   3.414  -0.151  0.00  0.00    +0.010 C 
ATOM     11  C   UNL     1       9.888   2.724  -1.456  0.00  0.00    +0.001 C 
ATOM     12  C   UNL     1       9.916   1.210  -1.215  0.00  0.00    +0.001 C 
ATOM     13  C   UNL     1       8.508   0.750  -0.861  0.00  0.00    +0.015 C 
ATOM     14  C   UNL     1       7.970   1.440   0.378  0.00  0.00    +0.061 C 
ATOM     15  S   UNL     1       6.134   1.498   0.284  0.00  0.00    -0.105 S 
BRANCH   8  16
ATOM     16  C   UNL     1       7.295   5.239   0.361  0.00  0.00    +0.097 C 
ATOM     17  N   UNL     1       7.429   6.367   0.356  0.00  0.00    -0.191 NA
ENDBRANCH   8  16
ENDBRANCH   4   7
BRANCH   1  22
ATOM     18  C   UNL     1      -0.086   1.216   0.644  0.00  0.00    +0.002 A 
ATOM     19  C   UNL     1      -1.220   1.750   0.058  0.00  0.00    +0.002 A 
ATOM     20  C   UNL     1      -1.171   2.996  -0.539  0.00  0.00    +0.022 A 
ATOM     21  C   UNL     1       0.014   3.708  -0.561  0.00  0.00    +0.062 A 
ATOM     22  C   UNL     1       1.155   3.171   0.021  0.00  0.00    +0.053 A 
ATOM     23  C   UNL     1       1.101   1.921   0.625  0.00  0.00    +0.025 A 
ATOM     24 CL   UNL     1       0.075   5.270  -1.317  0.00  0.00    -0.082 Cl
ENDBRANCH   1  22
TORSDOF 3
