REMARK  Name = ZINC36066197
REMARK  10 active torsions:
REMARK  status: ('A' for Active; 'I' for Inactive)
REMARK    1  A    between atoms: C_1  and  C_2
REMARK    2  A    between atoms: C_7  and  N_12
REMARK    3  A    between atoms: C_9  and  C_11
REMARK    4  A    between atoms: C_13  and  C_15
REMARK    5  A    between atoms: C_23  and  C_34
REMARK    6  A    between atoms: N_29  and  C_30
REMARK    7  A    between atoms: C_30  and  C_31
REMARK    8  A    between atoms: C_31  and  O_32
REMARK    9  A    between atoms: O_32  and  C_33
REMARK   10  A    between atoms: N_36  and  C_37
REMARK                            x       y       z     vdW  Elec       q    Type
REMARK                         _______ _______ _______ _____ _____    ______ ____
ROOT
ATOM      1  C   UNL     1       2.291  -4.380   2.857  0.00  0.00    +0.198 C 
ATOM      2  C   UNL     1       3.661  -3.838   3.124  0.00  0.00    +0.127 C 
ATOM      3  C   UNL     1       4.543  -3.832   1.888  0.00  0.00    +0.009 C 
ATOM      4  C   UNL     1       5.703  -3.323   2.277  0.00  0.00    +0.004 C 
ATOM      5  C   UNL     1       5.543  -3.074   3.782  0.00  0.00    +0.155 C 
ATOM      6  O   UNL     1       4.098  -2.725   3.868  0.00  0.00    -0.358 OA
ATOM      7  C   UNL     1       5.585  -4.539   4.367  0.00  0.00    +0.123 C 
ATOM      8  C   UNL     1       4.152  -4.991   4.089  0.00  0.00    +0.128 C 
ATOM      9  C   UNL     1       3.732  -6.175   3.318  0.00  0.00    +0.223 C 
ATOM     10  O   UNL     1       4.305  -7.243   3.266  0.00  0.00    -0.275 OA
ATOM     11  N   UNL     1       2.567  -5.840   2.671  0.00  0.00    -0.284 N 
ENDROOT
BRANCH   1  13
ATOM     12  N   UNL     1       0.897  -2.705   1.688  0.00  0.00    -0.311 N 
ATOM     13  C   UNL     1       1.707  -3.779   1.605  0.00  0.00    +0.237 C 
ATOM     14  O   UNL     1       1.967  -4.260   0.523  0.00  0.00    -0.274 OA
ATOM     15  H   UNL     1       0.689  -2.320   2.554  0.00  0.00    +0.149 HD
BRANCH  12  21
ATOM     16  C   UNL     1      -0.923   1.438  -0.303  0.00  0.00    +0.008 C 
ATOM     17  C   UNL     1      -0.594  -0.035  -0.551  0.00  0.00    -0.009 C 
ATOM     18  C   UNL     1      -1.871  -0.787  -0.931  0.00  0.00    +0.003 C 
ATOM     19  C   UNL     1      -1.541  -2.260  -1.180  0.00  0.00    +0.002 C 
ATOM     20  C   UNL     1      -0.948  -2.871   0.092  0.00  0.00    +0.022 C 
ATOM     21  C   UNL     1       0.329  -2.120   0.471  0.00  0.00    +0.076 C 
ATOM     22  C   UNL     1      -0.001  -0.646   0.720  0.00  0.00    +0.009 C 
ATOM     23  C   UNL     1      -1.015  -0.536   1.860  0.00  0.00    +0.009 C 
ENDBRANCH  12  21
ENDBRANCH   1  13
BRANCH   7  24
ATOM     24  C   UNL     1       6.592  -5.386   3.632  0.00  0.00    +0.224 C 
ATOM     25  O   UNL     1       6.229  -6.376   3.032  0.00  0.00    -0.275 OA
ATOM     26  N   UNL     1       7.896  -5.044   3.642  0.00  0.00    -0.285 N 
ATOM     27  H   UNL     1       8.177  -4.216   4.063  0.00  0.00    +0.155 HD
BRANCH  26  28
ATOM     28  C   UNL     1       8.844  -5.884   3.046  0.00  0.00    +0.033 A 
ATOM     29  C   UNL     1       9.962  -5.340   2.427  0.00  0.00    +0.025 A 
ATOM     30  C   UNL     1      10.896  -6.171   1.839  0.00  0.00    +0.022 A 
ATOM     31  C   UNL     1      10.718  -7.543   1.867  0.00  0.00    +0.041 A 
ATOM     32  C   UNL     1       9.605  -8.087   2.483  0.00  0.00    +0.022 A 
ATOM     33  C   UNL     1       8.671  -7.261   3.077  0.00  0.00    +0.025 A 
ATOM     34 CL   UNL     1      11.894  -8.584   1.126  0.00  0.00    -0.084 Cl
ENDBRANCH  26  28
ENDBRANCH   7  24
BRANCH  11  35
ATOM     35  C   UNL     1       1.723  -6.768   1.915  0.00  0.00    +0.136 C 
BRANCH  35  36
ATOM     36  C   UNL     1       0.636  -7.332   2.832  0.00  0.00    +0.178 C 
BRANCH  36  37
ATOM     37  O   UNL     1      -0.237  -6.277   3.241  0.00  0.00    -0.381 OA
ATOM     38  C   UNL     1      -1.294  -6.699   4.105  0.00  0.00    +0.194 C 
ENDBRANCH  36  37
ENDBRANCH  35  36
ENDBRANCH  11  35
TORSDOF 7
