REMARK  Name = ZINC10051861
REMARK  10 active torsions:
REMARK  status: ('A' for Active; 'I' for Inactive)
REMARK    1  A    between atoms: C_1  and  C_2
REMARK    2  A    between atoms: C_2  and  C_3
REMARK    3  A    between atoms: C_3  and  C_4
REMARK    4  A    between atoms: C_4  and  N_5
REMARK    5  A    between atoms: C_18  and  S_19
REMARK    6  A    between atoms: S_19  and  C_20
REMARK    7  A    between atoms: C_20  and  C_21
REMARK    8  A    between atoms: N_26  and  C_27
REMARK    9  A    between atoms: C_30  and  C_34
REMARK   10  A    between atoms: C_32  and  C_33
REMARK                            x       y       z     vdW  Elec       q    Type
REMARK                         _______ _______ _______ _____ _____    ______ ____
ROOT
ATOM      1  N   UNL     1       4.696   7.430   0.080  0.00  0.00    -0.277 N 
ATOM      2  C   UNL     1       3.926   8.537   0.072  0.00  0.00    +0.263 A 
ATOM      3  O   UNL     1       4.432   9.643   0.077  0.00  0.00    -0.267 OA
ATOM      4  C   UNL     1       2.460   8.384   0.069  0.00  0.00    +0.064 A 
ATOM      5  C   UNL     1       1.616   9.493   0.071  0.00  0.00    +0.015 A 
ATOM      6  C   UNL     1       0.249   9.309   0.067  0.00  0.00    +0.001 A 
ATOM      7  C   UNL     1      -0.286   8.031   0.062  0.00  0.00    +0.002 A 
ATOM      8  C   UNL     1       0.540   6.924   0.060  0.00  0.00    +0.027 A 
ATOM      9  C   UNL     1       1.917   7.090   0.064  0.00  0.00    +0.064 A 
ATOM     10  N   UNL     1       2.772   5.990   0.062  0.00  0.00    -0.256 N 
ATOM     11  C   UNL     1       4.129   6.165   0.068  0.00  0.00    +0.240 A 
ATOM     12  N   UNL     1       4.687   4.975   0.058  0.00  0.00    -0.109 NA
ATOM     13  N   UNL     1       3.667   4.016   0.050  0.00  0.00    -0.120 NA
ATOM     14  C   UNL     1       2.518   4.645   0.056  0.00  0.00    +0.198 A 
ENDROOT
BRANCH   1  15
ATOM     15  C   UNL     1       6.155   7.567   0.081  0.00  0.00    +0.128 C 
BRANCH  15  16
ATOM     16  C   UNL     1       6.662   7.628  -1.361  0.00  0.00    +0.021 C 
BRANCH  16  18
ATOM     17  C   UNL     1       8.693   7.831  -2.802  0.00  0.00    +0.004 C 
ATOM     18  C   UNL     1       8.186   7.770  -1.360  0.00  0.00    -0.002 C 
ENDBRANCH  16  18
ENDBRANCH  15  16
ENDBRANCH   1  15
BRANCH  14  19
ATOM     19  S   UNL     1       0.925   3.893   0.050  0.00  0.00    -0.076 S 
BRANCH  19  20
ATOM     20  C   UNL     1       1.280   2.114   0.035  0.00  0.00    +0.173 C 
BRANCH  20  21
ATOM     21  C   UNL     1      -0.015   1.343   0.030  0.00  0.00    +0.231 C 
ATOM     22  O   UNL     1      -1.073   1.935   0.030  0.00  0.00    -0.274 OA
ATOM     23  N   UNL     1       0.003  -0.004   0.018  0.00  0.00    -0.239 N 
ATOM     24  C   UNL     1      -1.155  -0.694   0.013  0.00  0.00    +0.310 C 
ATOM     25  O   UNL     1      -2.216  -0.100   0.018  0.00  0.00    -0.252 OA
ATOM     26  N   UNL     1      -1.137  -2.041   0.002  0.00  0.00    -0.269 N 
ATOM     27  H   UNL     1       0.849  -0.478   0.014  0.00  0.00    +0.159 HD
ATOM     28  H   UNL     1      -0.295  -2.514  -0.085  0.00  0.00    +0.156 HD
BRANCH  26  29
ATOM     29  C   UNL     1      -2.334  -2.758   0.115  0.00  0.00    +0.038 A 
ATOM     30  C   UNL     1      -3.435  -2.181   0.735  0.00  0.00    +0.024 A 
ATOM     31  C   UNL     1      -4.614  -2.891   0.845  0.00  0.00    +0.005 A 
ATOM     32  C   UNL     1      -4.700  -4.175   0.339  0.00  0.00    -0.050 A 
ATOM     33  C   UNL     1      -3.606  -4.752  -0.279  0.00  0.00    +0.008 A 
ATOM     34  C   UNL     1      -2.425  -4.045  -0.397  0.00  0.00    -0.029 A 
ATOM     35  C   UNL     1      -1.235  -4.673  -1.075  0.00  0.00    +0.045 C 
ATOM     36  C   UNL     1      -5.989  -4.946   0.460  0.00  0.00    +0.044 C 
ENDBRANCH  26  29
ENDBRANCH  20  21
ENDBRANCH  19  20
ENDBRANCH  14  19
TORSDOF 7
