REMARK  Name = ZINC37417131
REMARK  6 active torsions:
REMARK  status: ('A' for Active; 'I' for Inactive)
REMARK    1  A    between atoms: C_3  and  S_10
REMARK    2  A    between atoms: C_6  and  C_7
REMARK    3  A    between atoms: S_10  and  C_11
REMARK    4  A    between atoms: C_11  and  C_12
REMARK    5  A    between atoms: N_14  and  C_15
REMARK    6  A    between atoms: C_16  and  C_20
REMARK                            x       y       z     vdW  Elec       q    Type
REMARK                         _______ _______ _______ _____ _____    ______ ____
ROOT
ATOM      1  C   UNL     1       5.165   1.030  -0.042  0.00  0.00    +0.170 C 
ENDROOT
BRANCH   1   2
ATOM      2  C   UNL     1       6.527   1.677  -0.052  0.00  0.00    +0.228 C 
ATOM      3  O   UNL     1       6.624   2.885  -0.047  0.00  0.00    -0.275 OA
ATOM      4  N   UNL     1       7.636   0.911  -0.067  0.00  0.00    -0.278 N 
ATOM      5  H   UNL     1       7.558  -0.056  -0.071  0.00  0.00    +0.155 HD
BRANCH   4   6
ATOM      6  C   UNL     1       8.890   1.506  -0.076  0.00  0.00    +0.089 A 
ATOM      7  C   UNL     1      10.128   0.883  -0.097  0.00  0.00    +0.080 A 
ATOM      8  C   UNL     1      11.286   1.747  -0.103  0.00  0.00    +0.028 A 
ATOM      9  C   UNL     1      11.032   3.069  -0.087  0.00  0.00    +0.048 A 
ATOM     10  S   UNL     1       9.254   3.144  -0.072  0.00  0.00    -0.081 S 
BRANCH   7  11
ATOM     11  C   UNL     1      10.253  -0.543  -0.111  0.00  0.00    +0.102 C 
ATOM     12  N   UNL     1      10.352  -1.675  -0.123  0.00  0.00    -0.191 NA
ENDBRANCH   7  11
ENDBRANCH   4   6
ENDBRANCH   1   2
BRANCH   1  13
ATOM     13  S   UNL     1       3.886   2.316  -0.023  0.00  0.00    -0.116 S 
BRANCH  13  16
ATOM     14  C   UNL     1      -0.017   1.396   0.010  0.00  0.00    +0.016 A 
ATOM     15  C   UNL     1       1.157   2.093   0.002  0.00  0.00    +0.015 A 
ATOM     16  C   UNL     1       2.373   1.413  -0.013  0.00  0.00    +0.008 A 
ATOM     17  C   UNL     1       2.396   0.019  -0.021  0.00  0.00    +0.015 A 
ATOM     18  C   UNL     1       1.226  -0.684  -0.013  0.00  0.00    +0.016 A 
ATOM     19  C   UNL     1       0.002  -0.004   0.002  0.00  0.00    +0.063 A 
BRANCH  19  20
ATOM     20  C   UNL     1      -1.261  -0.758   0.010  0.00  0.00    +0.387 C 
ATOM     21  O   UNL     1      -2.329  -0.163   0.023  0.00  0.00    -0.241 OA
ATOM     22  O   UNL     1      -1.242  -1.982   0.003  0.00  0.00    -0.241 OA
ENDBRANCH  19  20
ENDBRANCH  13  16
ENDBRANCH   1  13
TORSDOF 6
