REMARK  Name = ZINC39676566
REMARK  10 active torsions:
REMARK  status: ('A' for Active; 'I' for Inactive)
REMARK    1  A    between atoms: C_1  and  C_2
REMARK    2  A    between atoms: C_2  and  C_3
REMARK    3  A    between atoms: C_7  and  C_16
REMARK    4  A    between atoms: N_18  and  C_19
REMARK    5  A    between atoms: C_19  and  C_20
REMARK    6  A    between atoms: C_19  and  C_28
REMARK    7  A    between atoms: C_23  and  O_26
REMARK    8  A    between atoms: O_26  and  C_27
REMARK    9  A    between atoms: C_31  and  O_34
REMARK   10  A    between atoms: O_34  and  C_35
REMARK                            x       y       z     vdW  Elec       q    Type
REMARK                         _______ _______ _______ _____ _____    ______ ____
ROOT
ATOM      1  C   UNL     1       0.195  -5.377  -1.122  0.00  0.00    +0.219 C 
ATOM      2  O   UNL     1       0.842  -6.129  -1.820  0.00  0.00    -0.275 OA
ATOM      3  N   UNL     1      -0.228  -5.782   0.092  0.00  0.00    -0.304 N 
ATOM      4  H   UNL     1      -0.746  -5.181   0.650  0.00  0.00    +0.150 HD
ENDROOT
BRANCH   1   9
ATOM      5  C   UNL     1       0.628  -1.548  -4.173  0.00  0.00    +0.215 C 
ATOM      6  O   UNL     1      -0.076  -1.041  -5.021  0.00  0.00    -0.276 OA
ATOM      7  N   UNL     1       0.259  -2.709  -3.597  0.00  0.00    -0.300 N 
ATOM      8  C   UNL     1       0.977  -3.471  -2.548  0.00  0.00    +0.121 C 
ATOM      9  C   UNL     1      -0.137  -3.992  -1.612  0.00  0.00    +0.100 C 
ATOM     10  C   UNL     1      -1.402  -4.019  -2.486  0.00  0.00    -0.004 C 
ATOM     11  C   UNL     1      -0.959  -3.510  -3.866  0.00  0.00    +0.115 C 
ATOM     12  C   UNL     1      -2.466  -3.092  -1.905  0.00  0.00    -0.010 C 
ATOM     13  C   UNL     1      -3.734  -3.179  -2.759  0.00  0.00    -0.082 C 
ATOM     14  N   UNL     1      -4.220  -4.565  -2.776  0.00  0.00    +0.379 N 
ATOM     15  C   UNL     1      -3.229  -5.435  -3.420  0.00  0.00    -0.082 C 
ATOM     16  C   UNL     1      -1.939  -5.443  -2.595  0.00  0.00    -0.010 C 
ATOM     17  H   UNL     1      -4.375  -4.877  -1.829  0.00  0.00    -0.086 HD
ATOM     18  H   UNL     1      -5.088  -4.609  -3.288  0.00  0.00    -0.086 HD
BRANCH   5  20
ATOM     19  C   UNL     1       2.095   0.413  -4.563  0.00  0.00    +0.013 C 
ATOM     20  C   UNL     1       1.915  -0.879  -3.764  0.00  0.00    +0.092 C 
ENDBRANCH   5  20
ENDBRANCH   1   9
BRANCH   3  21
ATOM     21  C   UNL     1       0.094  -7.129   0.569  0.00  0.00    +0.134 C 
BRANCH  21  22
ATOM     22  C   UNL     1       1.460  -7.123   1.206  0.00  0.00    -0.023 A 
ATOM     23  C   UNL     1       1.844  -6.061   2.005  0.00  0.00    +0.009 A 
ATOM     24  C   UNL     1       3.095  -6.053   2.590  0.00  0.00    +0.046 A 
ATOM     25  C   UNL     1       3.967  -7.111   2.376  0.00  0.00    +0.120 A 
ATOM     26  C   UNL     1       3.579  -8.175   1.575  0.00  0.00    +0.046 A 
ATOM     27  C   UNL     1       2.324  -8.181   0.997  0.00  0.00    +0.009 A 
BRANCH  25  28
ATOM     28  O   UNL     1       5.199  -7.105   2.950  0.00  0.00    -0.495 OA
ATOM     29  C   UNL     1       6.043  -8.227   2.687  0.00  0.00    +0.277 C 
ENDBRANCH  25  28
ENDBRANCH  21  22
BRANCH  21  30
ATOM     30  C   UNL     1      -0.932  -7.561   1.584  0.00  0.00    -0.023 A 
ATOM     31  C   UNL     1      -1.412  -6.654   2.510  0.00  0.00    +0.009 A 
ATOM     32  C   UNL     1      -2.352  -7.048   3.442  0.00  0.00    +0.046 A 
ATOM     33  C   UNL     1      -2.816  -8.356   3.448  0.00  0.00    +0.120 A 
ATOM     34  C   UNL     1      -2.333  -9.264   2.517  0.00  0.00    +0.046 A 
ATOM     35  C   UNL     1      -1.396  -8.864   1.584  0.00  0.00    +0.009 A 
BRANCH  33  36
ATOM     36  O   UNL     1      -3.740  -8.746   4.364  0.00  0.00    -0.495 OA
ATOM     37  C   UNL     1      -4.172 -10.107   4.311  0.00  0.00    +0.277 C 
ENDBRANCH  33  36
ENDBRANCH  21  30
ENDBRANCH   3  21
TORSDOF 7
