REMARK  Name = ZINC08512526
REMARK  7 active torsions:
REMARK  status: ('A' for Active; 'I' for Inactive)
REMARK    1  A    between atoms: C_1  and  C_2
REMARK    2  A    between atoms: C_4  and  C_23
REMARK    3  A    between atoms: N_5  and  C_7
REMARK    4  A    between atoms: C_7  and  C_8
REMARK    5  A    between atoms: N_10  and  N_11
REMARK    6  A    between atoms: C_12  and  C_13
REMARK    7  A    between atoms: C_15  and  N_20
REMARK                            x       y       z     vdW  Elec       q    Type
REMARK                         _______ _______ _______ _____ _____    ______ ____
ROOT
ATOM      1  C   UNL     1       1.482  -3.682   1.773  0.00  0.00    +0.254 C 
ATOM      2  O   UNL     1       2.393  -3.031   1.306  0.00  0.00    -0.272 OA
ATOM      3  N   UNL     1       1.747  -4.751   2.550  0.00  0.00    -0.205 N 
ATOM      4  H   UNL     1       1.019  -5.271   2.923  0.00  0.00    +0.177 HD
ENDROOT
BRANCH   3   5
ATOM      5  N   UNL     1       3.075  -5.110   2.818  0.00  0.00    -0.188 NA
ATOM      6  C   UNL     1       3.330  -6.140   3.566  0.00  0.00    +0.139 C 
BRANCH   6   7
ATOM      7  C   UNL     1       4.727  -6.518   3.848  0.00  0.00    +0.015 A 
ATOM      8  C   UNL     1       5.005  -7.629   4.648  0.00  0.00    +0.043 A 
ATOM      9  C   UNL     1       6.314  -7.978   4.907  0.00  0.00    +0.127 A 
ATOM     10  C   UNL     1       7.351  -7.230   4.377  0.00  0.00    +0.034 A 
ATOM     11  C   UNL     1       7.084  -6.128   3.584  0.00  0.00    +0.023 A 
ATOM     12  C   UNL     1       5.779  -5.771   3.311  0.00  0.00    +0.050 A 
ATOM     13 CL   UNL     1       5.445  -4.392   2.310  0.00  0.00    -0.083 Cl
BRANCH   9  14
ATOM     14  N   UNL     1       6.610  -9.154   5.755  0.00  0.00    +0.056 N 
ATOM     15  O   UNL     1       5.705  -9.808   6.219  0.00  0.00    -0.126 OA
ATOM     16  O   UNL     1       7.757  -9.461   5.983  0.00  0.00    -0.126 OA
ENDBRANCH   9  14
ENDBRANCH   6   7
ENDBRANCH   3   5
BRANCH   1  17
ATOM     17  C   UNL     1       0.055  -3.295   1.485  0.00  0.00    +0.241 C 
BRANCH  17  22
ATOM     18  C   UNL     1      -0.018   1.503   0.010  0.00  0.00    +0.067 C 
ATOM     19  C   UNL     1       0.002  -0.004   0.002  0.00  0.00    +0.060 A 
ATOM     20  C   UNL     1       0.008  -0.818  -1.135  0.00  0.00    +0.047 A 
ATOM     21  C   UNL     1       0.028  -2.107  -0.725  0.00  0.00    +0.037 A 
ATOM     22  N   UNL     1       0.034  -2.109   0.625  0.00  0.00    -0.259 N 
ATOM     23  N   UNL     1       0.023  -0.777   1.058  0.00  0.00    -0.176 NA
ATOM     24  C   UNL     1       0.040  -3.323  -1.615  0.00  0.00    +0.065 C 
ENDBRANCH  17  22
ENDBRANCH   1  17
TORSDOF 5
