REMARK  Name = ZINC19984155
REMARK  2 active torsions:
REMARK  status: ('A' for Active; 'I' for Inactive)
REMARK    1  A    between atoms: C_6  and  N_7
REMARK    2  A    between atoms: N_7  and  C_8
REMARK                            x       y       z     vdW  Elec       q    Type
REMARK                         _______ _______ _______ _____ _____    ______ ____
ROOT
ATOM      1  C   UNL     1      -1.177  -2.185   0.002  0.00  0.00    +0.190 C 
ATOM      2  C   UNL     1      -2.465  -2.737   0.566  0.00  0.00    +0.004 A 
ATOM      3  C   UNL     1      -3.070  -2.627   1.798  0.00  0.00    +0.027 A 
ATOM      4  C   UNL     1      -4.281  -3.258   2.032  0.00  0.00    +0.041 A 
ATOM      5  C   UNL     1      -4.877  -3.996   1.025  0.00  0.00    +0.022 A 
ATOM      6  C   UNL     1      -4.272  -4.107  -0.210  0.00  0.00    +0.025 A 
ATOM      7  C   UNL     1      -3.054  -3.475  -0.452  0.00  0.00    +0.039 A 
ATOM      8  N   UNL     1      -2.257  -3.438  -1.598  0.00  0.00    -0.283 N 
ATOM      9  C   UNL     1      -1.140  -2.707  -1.419  0.00  0.00    +0.242 C 
ATOM     10  O   UNL     1      -0.270  -2.504  -2.239  0.00  0.00    -0.273 OA
ATOM     11 CL   UNL     1      -5.048  -3.123   3.584  0.00  0.00    -0.084 Cl
ATOM     12  H   UNL     1      -2.482  -3.888  -2.427  0.00  0.00    +0.155 HD
ENDROOT
BRANCH   1  13
ATOM     13  N   UNL     1      -1.198  -0.720   0.010  0.00  0.00    -0.329 N 
ATOM     14  H   UNL     1      -2.045  -0.248   0.020  0.00  0.00    +0.147 HD
BRANCH  13  20
ATOM     15  C   UNL     1      -0.017   1.385   0.010  0.00  0.00    +0.024 A 
ATOM     16  C   UNL     1       1.171   2.091   0.002  0.00  0.00    +0.023 A 
ATOM     17  C   UNL     1       2.378   1.416  -0.013  0.00  0.00    +0.059 A 
ATOM     18  C   UNL     1       2.401   0.031  -0.021  0.00  0.00    +0.061 A 
ATOM     19  C   UNL     1       1.216  -0.680  -0.013  0.00  0.00    +0.044 A 
ATOM     20  C   UNL     1       0.002  -0.004   0.002  0.00  0.00    +0.029 A 
ATOM     21 CL   UNL     1       3.918  -0.812  -0.041  0.00  0.00    -0.082 Cl
ATOM     22 CL   UNL     1       3.868   2.307  -0.024  0.00  0.00    -0.082 Cl
ENDBRANCH  13  20
ENDBRANCH   1  13
TORSDOF 2
