REMARK  Name = ZINC39440480
REMARK  7 active torsions:
REMARK  status: ('A' for Active; 'I' for Inactive)
REMARK    1  A    between atoms: C_1  and  C_2
REMARK    2  A    between atoms: C_4  and  C_28
REMARK    3  A    between atoms: C_6  and  S_8
REMARK    4  A    between atoms: S_8  and  C_9
REMARK    5  A    between atoms: C_9  and  C_10
REMARK    6  A    between atoms: C_10  and  C_12
REMARK    7  A    between atoms: C_20  and  C_22
REMARK                            x       y       z     vdW  Elec       q    Type
REMARK                         _______ _______ _______ _____ _____    ______ ____
ROOT
ATOM      1  C   UNL     1       0.055  -2.123   5.307  0.00  0.00    +0.172 C 
ATOM      2  O   UNL     1       0.071  -3.330   5.447  0.00  0.00    -0.291 OA
ENDROOT
BRANCH   1   3
ATOM      3  C   UNL     1       0.049  -1.282   6.440  0.00  0.00    +0.031 C 
ATOM      4  C   UNL     1       0.024   0.101   6.455  0.00  0.00    +0.007 A 
ATOM      5  C   UNL     1      -0.000   1.074   5.428  0.00  0.00    +0.010 A 
ATOM      6  C   UNL     1      -0.021   2.390   5.736  0.00  0.00    +0.001 A 
ATOM      7  C   UNL     1      -0.019   2.854   7.061  0.00  0.00    +0.002 A 
ATOM      8  C   UNL     1       0.004   2.008   8.114  0.00  0.00    +0.026 A 
ATOM      9  C   UNL     1       0.026   0.557   7.866  0.00  0.00    +0.044 A 
ATOM     10  N   UNL     1       0.051  -0.463   8.676  0.00  0.00    -0.373 N 
ATOM     11  C   UNL     1       0.061  -1.703   7.893  0.00  0.00    +0.144 C 
ATOM     12  H   UNL     1       0.057  -0.411   9.644  0.00  0.00    +0.161 HD
BRANCH  11  13
ATOM     13  C   UNL     1       1.308  -2.493   8.194  0.00  0.00    -0.021 A 
ATOM     14  C   UNL     1       2.503  -1.836   8.424  0.00  0.00    +0.006 A 
ATOM     15  C   UNL     1       3.648  -2.561   8.700  0.00  0.00    +0.000 A 
ATOM     16  C   UNL     1       3.598  -3.941   8.746  0.00  0.00    +0.000 A 
ATOM     17  C   UNL     1       2.403  -4.598   8.517  0.00  0.00    +0.000 A 
ATOM     18  C   UNL     1       1.257  -3.873   8.245  0.00  0.00    +0.006 A 
ENDBRANCH  11  13
ENDBRANCH   1   3
BRANCH   1  19
ATOM     19  C   UNL     1       0.041  -1.525   3.924  0.00  0.00    +0.156 C 
BRANCH  19  20
ATOM     20  S   UNL     1       0.053  -2.855   2.690  0.00  0.00    -0.078 S 
BRANCH  20  26
ATOM     21  C   UNL     1      -0.018   1.503   0.010  0.00  0.00    +0.066 C 
ATOM     22  C   UNL     1       0.002  -0.004   0.002  0.00  0.00    +0.043 A 
ATOM     23  C   UNL     1       0.006  -0.697  -1.196  0.00  0.00    +0.051 A 
ATOM     24  C   UNL     1       0.025  -2.093  -1.158  0.00  0.00    +0.076 A 
ATOM     25  N   UNL     1       0.039  -2.706   0.024  0.00  0.00    -0.222 NA
ATOM     26  C   UNL     1       0.035  -2.005   1.147  0.00  0.00    +0.189 A 
ATOM     27  N   UNL     1       0.022  -0.679   1.140  0.00  0.00    -0.227 NA
BRANCH  24  28
ATOM     28  C   UNL     1       0.029  -2.881  -2.414  0.00  0.00    +0.000 A 
ATOM     29  C   UNL     1       0.020  -2.231  -3.647  0.00  0.00    +0.010 A 
ATOM     30  C   UNL     1       0.025  -2.970  -4.813  0.00  0.00    +0.001 A 
ATOM     31  C   UNL     1       0.038  -4.352  -4.760  0.00  0.00    +0.000 A 
ATOM     32  C   UNL     1       0.047  -5.002  -3.539  0.00  0.00    +0.001 A 
ATOM     33  C   UNL     1       0.048  -4.274  -2.366  0.00  0.00    +0.010 A 
ENDBRANCH  24  28
ENDBRANCH  20  26
ENDBRANCH  19  20
ENDBRANCH   1  19
TORSDOF 6
