REMARK  Name = ZINC38886896
REMARK  8 active torsions:
REMARK  status: ('A' for Active; 'I' for Inactive)
REMARK    1  A    between atoms: C_1  and  C_2
REMARK    2  A    between atoms: C_7  and  C_8
REMARK    3  A    between atoms: C_10  and  C_13
REMARK    4  A    between atoms: C_13  and  N_14
REMARK    5  A    between atoms: C_18  and  C_21
REMARK    6  A    between atoms: N_26  and  C_29
REMARK    7  A    between atoms: C_29  and  C_30
REMARK    8  A    between atoms: C_29  and  C_36
REMARK                            x       y       z     vdW  Elec       q    Type
REMARK                         _______ _______ _______ _____ _____    ______ ____
ROOT
ATOM      1  C   UNL     1       3.076  -0.801   9.945  0.00  0.00    +0.217 C 
ATOM      2  O   UNL     1       2.103  -1.184  10.558  0.00  0.00    -0.275 OA
ATOM      3  N   UNL     1       4.270  -0.710  10.563  0.00  0.00    -0.299 N 
ATOM      4  C   UNL     1       5.482  -0.345   9.815  0.00  0.00    +0.123 C 
ATOM      5  C   UNL     1       6.180   0.805  10.548  0.00  0.00    +0.104 C 
ATOM      6  N   UNL     1       6.406   0.424  11.948  0.00  0.00    -0.289 NA
ATOM      7  C   UNL     1       5.135   0.202  12.652  0.00  0.00    +0.104 C 
ATOM      8  C   UNL     1       4.394  -0.968  12.006  0.00  0.00    +0.123 C 
ENDROOT
BRANCH   1  13
ATOM      9  N   UNL     1       1.617  -0.773   6.464  0.00  0.00    +0.386 N 
ATOM     10  C   UNL     1       1.361   0.667   6.343  0.00  0.00    -0.078 C 
ATOM     11  C   UNL     1       2.554   1.450   6.894  0.00  0.00    -0.018 C 
ATOM     12  C   UNL     1       2.758   1.089   8.368  0.00  0.00    +0.009 C 
ATOM     13  C   UNL     1       2.951  -0.425   8.491  0.00  0.00    +0.059 C 
ATOM     14  C   UNL     1       1.742  -1.139   7.880  0.00  0.00    -0.065 C 
ATOM     15  H   UNL     1       2.473  -1.002   5.982  0.00  0.00    -0.081 HD
BRANCH   9  16
ATOM     16  C   UNL     1       0.504  -1.519   5.864  0.00  0.00    +0.022 C 
BRANCH  16  19
ATOM     17  C   UNL     1       0.801  -1.391   2.249  0.00  0.00    +0.202 A 
ATOM     18  N   UNL     1       1.069  -1.915   3.458  0.00  0.00    -0.193 NA
ATOM     19  C   UNL     1       0.451  -1.238   4.384  0.00  0.00    +0.211 A 
ATOM     20  O   UNL     1      -0.240  -0.251   3.799  0.00  0.00    -0.340 OA
ATOM     21  N   UNL     1       0.005  -0.362   2.405  0.00  0.00    -0.056 NA
BRANCH  17  28
ATOM     22  C   UNL     1       3.612  -2.023   1.987  0.00  0.00    +0.044 C 
ATOM     23  C   UNL     1       2.677  -2.199   0.818  0.00  0.00    -0.040 A 
ATOM     24  C   UNL     1       3.158  -2.670  -0.387  0.00  0.00    +0.004 A 
ATOM     25  C   UNL     1       2.302  -2.831  -1.461  0.00  0.00    +0.000 A 
ATOM     26  C   UNL     1       0.959  -2.522  -1.334  0.00  0.00    +0.001 A 
ATOM     27  C   UNL     1       0.468  -2.050  -0.134  0.00  0.00    +0.012 A 
ATOM     28  C   UNL     1       1.325  -1.891   0.953  0.00  0.00    +0.025 A 
ENDBRANCH  17  28
ENDBRANCH  16  19
ENDBRANCH   9  16
ENDBRANCH   1  13
BRANCH   6  29
ATOM     29  C   UNL     1       7.223   1.427  12.642  0.00  0.00    +0.117 C 
BRANCH  29  30
ATOM     30  C   UNL     1       7.434   1.003  14.073  0.00  0.00    -0.026 A 
ATOM     31  C   UNL     1       7.678  -0.325  14.371  0.00  0.00    +0.005 A 
ATOM     32  C   UNL     1       7.870  -0.715  15.683  0.00  0.00    +0.000 A 
ATOM     33  C   UNL     1       7.820   0.223  16.697  0.00  0.00    +0.000 A 
ATOM     34  C   UNL     1       7.577   1.551  16.399  0.00  0.00    +0.000 A 
ATOM     35  C   UNL     1       7.388   1.941  15.087  0.00  0.00    +0.005 A 
ENDBRANCH  29  30
BRANCH  29  36
ATOM     36  C   UNL     1       8.558   1.551  11.954  0.00  0.00    -0.026 A 
ATOM     37  C   UNL     1       9.200   0.421  11.482  0.00  0.00    +0.005 A 
ATOM     38  C   UNL     1      10.424   0.535  10.851  0.00  0.00    +0.000 A 
ATOM     39  C   UNL     1      11.007   1.778  10.690  0.00  0.00    +0.000 A 
ATOM     40  C   UNL     1      10.364   2.908  11.161  0.00  0.00    +0.000 A 
ATOM     41  C   UNL     1       9.138   2.795  11.789  0.00  0.00    +0.005 A 
ENDBRANCH  29  36
ENDBRANCH   6  29
TORSDOF 7
