REMARK  Name = ZINC32622685
REMARK  10 active torsions:
REMARK  status: ('A' for Active; 'I' for Inactive)
REMARK    1  A    between atoms: C_1  and  C_2
REMARK    2  A    between atoms: C_2  and  C_3
REMARK    3  A    between atoms: C_2  and  C_4
REMARK    4  A    between atoms: C_2  and  C_5
REMARK    5  A    between atoms: C_8  and  C_11
REMARK    6  A    between atoms: C_11  and  C_13
REMARK    7  A    between atoms: C_11  and  N_32
REMARK    8  A    between atoms: C_13  and  N_14
REMARK    9  A    between atoms: C_15  and  C_17
REMARK   10  A    between atoms: C_19  and  C_22
REMARK                            x       y       z     vdW  Elec       q    Type
REMARK                         _______ _______ _______ _____ _____    ______ ____
ROOT
ATOM      1  C   UNL     1      -8.717  -3.057  -0.028  0.00  0.00    +0.094 C 
ENDROOT
BRANCH   1   2
ATOM      2  N   UNL     1      -7.574  -3.618  -0.752  0.00  0.00    -0.311 N 
ATOM      3  C   UNL     1      -6.450  -2.890  -0.904  0.00  0.00    +0.266 C 
ATOM      4  O   UNL     1      -6.385  -1.769  -0.441  0.00  0.00    -0.268 OA
ATOM      5  H   UNL     1      -7.633  -4.633  -1.172  0.00  0.00    +0.149 HD
BRANCH   3   6
ATOM      6  C   UNL     1      -5.292  -3.458  -1.637  0.00  0.00    +0.168 A 
ATOM      7  C   UNL     1      -4.044  -2.827  -1.876  0.00  0.00    +0.086 A 
ATOM      8  C   UNL     1      -3.338  -3.759  -2.587  0.00  0.00    +0.168 A 
ATOM      9  O   UNL     1      -4.144  -4.827  -2.717  0.00  0.00    -0.354 OA
ATOM     10  N   UNL     1      -5.216  -4.645  -2.189  0.00  0.00    -0.073 NA
BRANCH   8  11
ATOM     11  C   UNL     1      -1.960  -3.621  -3.103  0.00  0.00    +0.024 A 
ATOM     12  C   UNL     1      -1.245  -2.442  -2.885  0.00  0.00    +0.015 A 
ATOM     13  C   UNL     1       0.038  -2.314  -3.372  0.00  0.00    +0.050 A 
ATOM     14  C   UNL     1       0.627  -3.358  -4.074  0.00  0.00    +0.162 A 
ATOM     15  C   UNL     1      -0.079  -4.537  -4.292  0.00  0.00    +0.163 A 
ATOM     16  C   UNL     1      -1.369  -4.670  -3.810  0.00  0.00    +0.061 A 
ATOM     17  O   UNL     1       0.484  -5.570  -4.978  0.00  0.00    -0.485 OA
ATOM     18  C   UNL     1       1.637  -5.264  -5.769  0.00  0.00    +0.270 C 
ATOM     19  C   UNL     1       2.586  -4.406  -4.922  0.00  0.00    +0.270 C 
ATOM     20  O   UNL     1       1.895  -3.210  -4.546  0.00  0.00    -0.485 OA
ENDBRANCH   8  11
ENDBRANCH   3   6
ENDBRANCH   1   2
BRANCH   1  21
ATOM     21  C   UNL     1      -9.894  -4.033  -0.098  0.00  0.00    -0.020 C 
BRANCH  21  22
ATOM     22  N   UNL     1      -9.476  -5.341   0.425  0.00  0.00    +0.385 N 
ATOM     23  C   UNL     1     -10.477  -6.372   0.122  0.00  0.00    -0.078 C 
ATOM     24  C   UNL     1      -9.945  -7.742   0.551  0.00  0.00    -0.019 C 
ATOM     25  C   UNL     1      -9.645  -7.720   2.052  0.00  0.00    -0.004 C 
ATOM     26  C   UNL     1      -8.637  -6.606   2.347  0.00  0.00    -0.019 C 
ATOM     27  C   UNL     1      -9.206  -5.269   1.867  0.00  0.00    -0.078 C 
ATOM     28  H   UNL     1      -8.540  -5.624  -0.078  0.00  0.00    -0.081 HD
ENDBRANCH  21  22
BRANCH  21  32
ATOM     29  C   UNL     1     -13.132  -2.530   2.248  0.00  0.00    -0.042 A 
ATOM     30  C   UNL     1     -13.363  -2.987   0.964  0.00  0.00    +0.004 A 
ATOM     31  C   UNL     1     -12.315  -3.473   0.205  0.00  0.00    +0.002 A 
ATOM     32  C   UNL     1     -11.036  -3.502   0.730  0.00  0.00    -0.059 A 
ATOM     33  C   UNL     1     -10.806  -3.050   2.016  0.00  0.00    +0.002 A 
ATOM     34  C   UNL     1     -11.853  -2.559   2.773  0.00  0.00    +0.004 A 
BRANCH  29  36
ATOM     35  C   UNL     1     -15.325  -3.099   3.258  0.00  0.00    +0.015 C 
ATOM     36  C   UNL     1     -14.274  -2.001   3.076  0.00  0.00    -0.013 C 
ATOM     37  C   UNL     1     -13.752  -1.564   4.446  0.00  0.00    +0.015 C 
ATOM     38  C   UNL     1     -14.907  -0.803   2.365  0.00  0.00    +0.015 C 
ENDBRANCH  29  36
ENDBRANCH  21  32
ENDBRANCH   1  21
TORSDOF 7
