REMARK  Name = ZINC65774129
REMARK  4 active torsions:
REMARK  status: ('A' for Active; 'I' for Inactive)
REMARK    1  A    between atoms: C_1  and  C_2
REMARK    2  A    between atoms: C_10  and  C_11
REMARK    3  A    between atoms: N_13  and  N_14
REMARK    4  A    between atoms: N_17  and  C_18
REMARK                            x       y       z     vdW  Elec       q    Type
REMARK                         _______ _______ _______ _____ _____    ______ ____
ROOT
ATOM      1  N   UNL     1       0.054  -0.867   4.814  0.00  0.00    -0.218 N 
ATOM      2  C   UNL     1       0.083  -1.776   5.809  0.00  0.00    +0.320 C 
ATOM      3  O   UNL     1       0.093  -1.408   6.968  0.00  0.00    -0.251 OA
ATOM      4  N   UNL     1       0.099  -3.092   5.520  0.00  0.00    -0.267 N 
ATOM      5  H   UNL     1       0.043   0.080   5.023  0.00  0.00    +0.174 HD
ATOM      6  H   UNL     1       0.021  -3.387   4.599  0.00  0.00    +0.156 HD
ENDROOT
BRANCH   4   7
ATOM      7  C   UNL     1       0.228  -4.035   6.550  0.00  0.00    +0.051 A 
ATOM      8  C   UNL     1      -0.359  -3.806   7.793  0.00  0.00    +0.028 A 
ATOM      9  C   UNL     1      -0.207  -4.763   8.779  0.00  0.00    +0.043 A 
ATOM     10  C   UNL     1       0.522  -5.915   8.500  0.00  0.00    +0.099 A 
ATOM     11  N   UNL     1       1.065  -6.099   7.307  0.00  0.00    -0.348 N 
ATOM     12  C   UNL     1       0.935  -5.209   6.341  0.00  0.00    +0.107 A 
ATOM     13  N   UNL     1       0.681  -6.885   9.486  0.00  0.00    -0.317 N 
ATOM     14  C   UNL     1       0.133  -6.820  10.848  0.00  0.00    +0.106 C 
ATOM     15  C   UNL     1       0.586  -8.097  11.586  0.00  0.00    +0.020 C 
ATOM     16  C   UNL     1       1.834  -8.540  10.779  0.00  0.00    +0.020 C 
ATOM     17  C   UNL     1       1.423  -8.150   9.335  0.00  0.00    +0.106 C 
ATOM     18  H   UNL     1       1.568  -6.910   7.137  0.00  0.00    +0.167 HD
ENDBRANCH   4   7
BRANCH   1  21
ATOM     19  C   UNL     1       0.013  -0.382   2.484  0.00  0.00    +0.296 C 
ATOM     20  O   UNL     1      -0.001   0.806   2.745  0.00  0.00    -0.265 OA
ATOM     21  N   UNL     1       0.042  -1.291   3.479  0.00  0.00    -0.227 N 
ATOM     22  H   UNL     1       0.053  -2.238   3.271  0.00  0.00    +0.173 HD
BRANCH  19  32
ATOM     23  C   UNL     1      -0.051   1.503   0.011  0.00  0.00    +0.048 C 
ATOM     24  C   UNL     1      -0.028  -0.004   0.003  0.00  0.00    +0.008 A 
ATOM     25  C   UNL     1      -0.025  -0.877  -1.171  0.00  0.00    +0.024 A 
ATOM     26  C   UNL     1      -0.040  -0.654  -2.550  0.00  0.00    +0.012 A 
ATOM     27  C   UNL     1      -0.032  -1.718  -3.408  0.00  0.00    +0.001 A 
ATOM     28  C   UNL     1      -0.008  -3.017  -2.917  0.00  0.00    +0.004 A 
ATOM     29  C   UNL     1       0.008  -3.257  -1.561  0.00  0.00    +0.047 A 
ATOM     30  C   UNL     1      -0.000  -2.191  -0.668  0.00  0.00    +0.136 A 
ATOM     31  O   UNL     1       0.011  -2.113   0.676  0.00  0.00    -0.450 OA
ATOM     32  C   UNL     1       0.000  -0.826   1.083  0.00  0.00    +0.195 A 
ENDBRANCH  19  32
ENDBRANCH   1  21
TORSDOF 3
