REMARK  Name = ZINC12480027
REMARK  15 active torsions:
REMARK  status: ('A' for Active; 'I' for Inactive)
REMARK    1  A    between atoms: C_1  and  C_2
REMARK    2  A    between atoms: C_5  and  N_9
REMARK    3  A    between atoms: C_6  and  C_8
REMARK    4  A    between atoms: N_9  and  C_10
REMARK    5  A    between atoms: C_10  and  C_12
REMARK    6  A    between atoms: C_10  and  C_18
REMARK    7  A    between atoms: C_15  and  C_17
REMARK    8  A    between atoms: N_20  and  C_21
REMARK    9  A    between atoms: C_21  and  C_22
REMARK   10  A    between atoms: C_22  and  C_23
REMARK   11  A    between atoms: C_23  and  C_24
REMARK   12  A    between atoms: C_23  and  C_25
REMARK   13  A    between atoms: C_26  and  C_28
REMARK   14  A    between atoms: C_29  and  N_36
REMARK   15  A    between atoms: C_30  and  C_33
REMARK                            x       y       z     vdW  Elec       q    Type
REMARK                         _______ _______ _______ _____ _____    ______ ____
ROOT
ATOM      1  N   UNL     1      -1.808  -0.133   5.023  0.00  0.00    -0.248 N 
ATOM      2  C   UNL     1      -1.297   0.055   6.256  0.00  0.00    +0.262 C 
ATOM      3  O   UNL     1      -1.487   1.106   6.840  0.00  0.00    -0.269 OA
ENDROOT
BRANCH   1   8
ATOM      4  C   UNL     1      -0.924  -5.030   2.301  0.00  0.00    +0.044 C 
ATOM      5  C   UNL     1      -1.159  -3.729   3.023  0.00  0.00    -0.050 A 
ATOM      6  C   UNL     1      -2.281  -3.573   3.817  0.00  0.00    +0.005 A 
ATOM      7  C   UNL     1      -2.496  -2.384   4.486  0.00  0.00    +0.024 A 
ATOM      8  C   UNL     1      -1.590  -1.340   4.352  0.00  0.00    +0.041 A 
ATOM      9  C   UNL     1      -0.464  -1.499   3.554  0.00  0.00    -0.029 A 
ATOM     10  C   UNL     1      -0.252  -2.693   2.893  0.00  0.00    +0.008 A 
ATOM     11  C   UNL     1       0.525  -0.371   3.410  0.00  0.00    +0.045 C 
ENDBRANCH   1   8
BRANCH   2  12
ATOM     12  C   UNL     1      -0.514  -1.006   6.893  0.00  0.00    +0.116 A 
ATOM     13  C   UNL     1       0.103  -1.020   8.145  0.00  0.00    +0.076 A 
ATOM     14  C   UNL     1       0.761  -2.223   8.403  0.00  0.00    +0.155 A 
ATOM     15  N   UNL     1       0.747  -3.171   7.492  0.00  0.00    -0.203 NA
ATOM     16  S   UNL     1      -0.088  -2.620   6.274  0.00  0.00    +0.019 S 
BRANCH  14  17
ATOM     17  C   UNL     1       1.469  -2.426   9.680  0.00  0.00    +0.262 C 
ATOM     18  O   UNL     1       1.478  -1.544  10.517  0.00  0.00    -0.269 OA
ATOM     19  N   UNL     1       2.107  -3.589   9.919  0.00  0.00    -0.324 N 
ATOM     20  H   UNL     1       2.100  -4.292   9.251  0.00  0.00    +0.145 HD
ATOM     21  H   UNL     1       2.572  -3.723  10.759  0.00  0.00    +0.145 HD
ENDBRANCH  14  17
BRANCH  13  22
ATOM     22  N   UNL     1       0.063   0.044   9.037  0.00  0.00    -0.355 N 
ATOM     23  H   UNL     1      -0.413   0.855   8.802  0.00  0.00    +0.142 HD
ATOM     24  H   UNL     1       0.512  -0.025   9.894  0.00  0.00    +0.142 HD
ENDBRANCH  13  22
ENDBRANCH   2  12
BRANCH   1  25
ATOM     25  C   UNL     1      -2.591   0.929   4.385  0.00  0.00    +0.233 C 
BRANCH  25  26
ATOM     26  C   UNL     1      -2.021   1.225   3.022  0.00  0.00    +0.135 A 
ATOM     27  C   UNL     1      -1.710   2.444   2.547  0.00  0.00    +0.047 A 
ATOM     28  C   UNL     1      -1.204   2.258   1.240  0.00  0.00    +0.045 A 
ATOM     29  C   UNL     1      -1.243   0.936   0.992  0.00  0.00    +0.102 A 
ATOM     30  O   UNL     1      -1.735   0.315   2.076  0.00  0.00    -0.462 OA
ATOM     31  C   UNL     1      -0.802   0.266  -0.284  0.00  0.00    +0.086 C 
ENDBRANCH  25  26
BRANCH  25  32
ATOM     32  C   UNL     1      -4.023   0.481   4.245  0.00  0.00    +0.242 C 
ATOM     33  O   UNL     1      -4.345  -0.637   4.587  0.00  0.00    -0.273 OA
ATOM     34  N   UNL     1      -4.945   1.323   3.737  0.00  0.00    -0.313 N 
ATOM     35  H   UNL     1      -4.688   2.216   3.463  0.00  0.00    +0.149 HD
BRANCH  34  36
ATOM     36  C   UNL     1      -6.337   0.887   3.600  0.00  0.00    +0.104 C 
BRANCH  36  37
ATOM     37  C   UNL     1      -7.171   2.023   3.004  0.00  0.00    +0.022 C 
BRANCH  37  38
ATOM     38  C   UNL     1      -8.625   1.568   2.861  0.00  0.00    -0.016 C 
ATOM     39  C   UNL     1      -9.482   2.742   2.382  0.00  0.00    +0.007 C 
ATOM     40  C   UNL     1      -8.705   0.429   1.842  0.00  0.00    +0.007 C 
ENDBRANCH  37  38
ENDBRANCH  36  37
ENDBRANCH  34  36
ENDBRANCH  25  32
ENDBRANCH   1  25
TORSDOF 10
