REMARK  Name = ZINC34788852
REMARK  5 active torsions:
REMARK  status: ('A' for Active; 'I' for Inactive)
REMARK    1  A    between atoms: C_1  and  S_2
REMARK    2  A    between atoms: S_2  and  C_3
REMARK    3  A    between atoms: C_9  and  S_12
REMARK    4  A    between atoms: S_12  and  C_13
REMARK    5  A    between atoms: C_13  and  C_14
REMARK                            x       y       z     vdW  Elec       q    Type
REMARK                         _______ _______ _______ _____ _____    ______ ____
ROOT
ATOM      1  C   UNL     1      -1.702  -0.454   0.016  0.00  0.00    +0.177 A 
ATOM      2  N   UNL     1      -2.642   0.468   0.024  0.00  0.00    -0.226 NA
ATOM      3  C   UNL     1      -3.962   0.203   0.032  0.00  0.00    +0.065 A 
ATOM      4  C   UNL     1      -4.402  -1.087   0.001  0.00  0.00    +0.079 A 
ATOM      5  C   UNL     1      -3.431  -2.114   0.015  0.00  0.00    +0.179 A 
ATOM      6  N   UNL     1      -2.079  -1.770   0.012  0.00  0.00    -0.248 N 
ATOM      7  C   UNL     1      -1.403  -2.939   0.011  0.00  0.00    +0.198 A 
ATOM      8  N   UNL     1      -2.298  -3.906   0.011  0.00  0.00    -0.122 NA
ATOM      9  N   UNL     1      -3.492  -3.414   0.022  0.00  0.00    -0.127 NA
ATOM     10  S   UNL     1      -6.117  -1.442  -0.085  0.00  0.00    -0.088 S 
ATOM     11  C   UNL     1      -6.812   0.021  -0.800  0.00  0.00    -0.010 C 
ATOM     12  C   UNL     1      -6.205   1.176  -0.663  0.00  0.00    -0.054 C 
ATOM     13  C   UNL     1      -4.922   1.343   0.103  0.00  0.00    +0.088 C 
ATOM     14  C   UNL     1      -6.760   2.453  -1.263  0.00  0.00    +0.032 C 
ATOM     15  C   UNL     1      -7.777   2.157  -2.357  0.00  0.00    +0.005 C 
ATOM     16  C   UNL     1      -8.810   1.178  -1.782  0.00  0.00    +0.005 C 
ATOM     17  C   UNL     1      -8.104  -0.156  -1.562  0.00  0.00    +0.042 C 
ENDROOT
BRANCH   1  19
ATOM     18  C   UNL     1      -0.022   1.810   0.012  0.00  0.00    +0.093 C 
ATOM     19  S   UNL     1       0.002  -0.004   0.002  0.00  0.00    -0.091 S 
ENDBRANCH   1  19
BRANCH   7  20
ATOM     20  S   UNL     1       0.348  -3.134   0.011  0.00  0.00    -0.076 S 
BRANCH  20  21
ATOM     21  C   UNL     1       0.589  -4.932   0.009  0.00  0.00    +0.173 C 
BRANCH  21  22
ATOM     22  C   UNL     1       2.064  -5.241   0.009  0.00  0.00    +0.229 C 
ATOM     23  O   UNL     1       2.873  -4.338   0.009  0.00  0.00    -0.275 OA
ATOM     24  N   UNL     1       2.484  -6.522   0.008  0.00  0.00    -0.264 N 
ATOM     25  C   UNL     1       3.845  -6.807   0.007  0.00  0.00    +0.164 A 
ATOM     26  N   UNL     1       4.856  -5.966   0.013  0.00  0.00    -0.233 NA
ATOM     27  C   UNL     1       6.104  -6.399   0.011  0.00  0.00    +0.120 A 
ATOM     28  C   UNL     1       6.290  -7.742   0.003  0.00  0.00    +0.068 A 
ATOM     29  S   UNL     1       4.598  -8.312   0.006  0.00  0.00    -0.061 S 
ATOM     30  H   UNL     1       1.837  -7.245   0.008  0.00  0.00    +0.157 HD
ENDBRANCH  21  22
ENDBRANCH  20  21
ENDBRANCH   7  20
TORSDOF 4
