REMARK  Name = ZINC48843919
REMARK  3 active torsions:
REMARK  status: ('A' for Active; 'I' for Inactive)
REMARK    1  A    between atoms: C_1  and  C_2
REMARK    2  A    between atoms: C_2  and  C_3
REMARK    3  A    between atoms: C_2  and  N_4
REMARK                            x       y       z     vdW  Elec       q    Type
REMARK                         _______ _______ _______ _____ _____    ______ ____
ROOT
ATOM      1  N   UNL     1      -1.464  -0.309  -2.312  0.00  0.00    -0.297 N 
ATOM      2  C   UNL     1      -2.051  -0.643  -1.145  0.00  0.00    +0.303 C 
ATOM      3  O   UNL     1      -1.411  -0.609  -0.111  0.00  0.00    -0.253 OA
ATOM      4  N   UNL     1      -3.346  -1.013  -1.123  0.00  0.00    -0.281 N 
ATOM      5  C   UNL     1      -4.038  -1.271   0.149  0.00  0.00    +0.116 C 
ATOM      6  C   UNL     1      -5.157  -0.239   0.329  0.00  0.00    +0.072 C 
ATOM      7  C   UNL     1      -5.925  -0.115  -0.965  0.00  0.00    +0.023 A 
ATOM      8  C   UNL     1      -5.458  -0.524  -2.165  0.00  0.00    -0.002 A 
ATOM      9  C   UNL     1      -6.480  -0.228  -3.147  0.00  0.00    +0.006 A 
ATOM     10  C   UNL     1      -6.553  -0.423  -4.529  0.00  0.00    +0.030 A 
ATOM     11  C   UNL     1      -7.705  -0.011  -5.154  0.00  0.00    +0.042 A 
ATOM     12  C   UNL     1      -8.753   0.572  -4.458  0.00  0.00    +0.022 A 
ATOM     13  C   UNL     1      -8.706   0.776  -3.090  0.00  0.00    +0.027 A 
ATOM     14  C   UNL     1      -7.549   0.368  -2.429  0.00  0.00    +0.047 A 
ATOM     15  N   UNL     1      -7.179   0.419  -1.116  0.00  0.00    -0.358 N 
ATOM     16  H   UNL     1      -7.722   0.778  -0.397  0.00  0.00    +0.166 HD
ATOM     17 CL   UNL     1      -7.854  -0.226  -6.871  0.00  0.00    -0.084 Cl
ATOM     18  C   UNL     1      -4.112  -1.165  -2.374  0.00  0.00    +0.146 C 
ATOM     19  H   UNL     1      -1.952  -0.406  -3.144  0.00  0.00    +0.150 HD
ENDROOT
BRANCH   1  21
ATOM     20  C   UNL     1       0.889  -0.976  -2.334  0.00  0.00    +0.027 C 
ATOM     21  C   UNL     1      -0.091   0.200  -2.322  0.00  0.00    +0.068 C 
ATOM     22  C   UNL     1       0.126   1.057  -3.570  0.00  0.00    +0.027 C 
ENDBRANCH   1  21
TORSDOF 1
