REMARK  Name = ZINC09433322
REMARK  13 active torsions:
REMARK  status: ('A' for Active; 'I' for Inactive)
REMARK    1  A    between atoms: C_1  and  C_2
REMARK    2  A    between atoms: C_2  and  C_3
REMARK    3  A    between atoms: C_2  and  C_4
REMARK    4  A    between atoms: C_4  and  N_5
REMARK    5  A    between atoms: C_6  and  C_35
REMARK    6  A    between atoms: C_8  and  C_18
REMARK    7  A    between atoms: N_20  and  C_21
REMARK    8  A    between atoms: C_21  and  C_22
REMARK    9  A    between atoms: C_22  and  C_23
REMARK   10  A    between atoms: C_23  and  N_77
REMARK   11  A    between atoms: C_24  and  C_25
REMARK   12  A    between atoms: C_24  and  N_77
REMARK   13  A    between atoms: C_30  and  N_77
REMARK                            x       y       z     vdW  Elec       q    Type
REMARK                         _______ _______ _______ _____ _____    ______ ____
ROOT
ATOM      1  N   UNL     1       0.917   3.870  -7.232  0.00  0.00    -0.289 N 
ATOM      2  C   UNL     1       1.992   4.388  -6.389  0.00  0.00    +0.129 C 
ATOM      3  C   UNL     1       2.266   3.453  -5.214  0.00  0.00    +0.131 C 
ATOM      4  C   UNL     1       2.445   2.041  -5.707  0.00  0.00    -0.021 A 
ATOM      5  C   UNL     1       3.313   1.180  -5.072  0.00  0.00    +0.005 A 
ATOM      6  C   UNL     1       3.456  -0.119  -5.529  0.00  0.00    +0.000 A 
ATOM      7  C   UNL     1       2.729  -0.562  -6.620  0.00  0.00    +0.001 A 
ATOM      8  C   UNL     1       1.859   0.293  -7.268  0.00  0.00    +0.013 A 
ATOM      9  C   UNL     1       1.719   1.604  -6.816  0.00  0.00    +0.041 A 
ATOM     10  C   UNL     1       0.825   2.555  -7.510  0.00  0.00    +0.247 C 
ATOM     11  O   UNL     1       0.016   2.155  -8.324  0.00  0.00    -0.270 OA
ENDROOT
BRANCH   2  12
ATOM     12  C   UNL     1       1.598   5.744  -5.862  0.00  0.00    +0.011 A 
ATOM     13  C   UNL     1       2.289   6.909  -5.901  0.00  0.00    +0.013 A 
ATOM     14  C   UNL     1       1.722   8.043  -5.351  0.00  0.00    +0.008 A 
ATOM     15  C   UNL     1       0.496   7.955  -4.779  0.00  0.00    +0.045 A 
ATOM     16  S   UNL     1       0.102   6.230  -5.017  0.00  0.00    -0.100 S 
ENDBRANCH   2  12
BRANCH   3  17
ATOM     17  C   UNL     1       1.105   3.505  -4.254  0.00  0.00    +0.223 C 
ATOM     18  O   UNL     1      -0.029   3.389  -4.668  0.00  0.00    -0.275 OA
ATOM     19  N   UNL     1       1.328   3.679  -2.937  0.00  0.00    -0.315 N 
ATOM     20  H   UNL     1       2.235   3.772  -2.606  0.00  0.00    +0.149 HD
BRANCH  19  21
ATOM     21  C   UNL     1       0.200   3.729  -2.003  0.00  0.00    +0.102 C 
BRANCH  21  22
ATOM     22  C   UNL     1       0.724   3.934  -0.581  0.00  0.00    +0.000 C 
BRANCH  22  23
ATOM     23  C   UNL     1      -0.455   3.986   0.394  0.00  0.00    -0.076 C 
BRANCH  23  24
ATOM     24  N   UNL     1       0.054   4.323   1.740  0.00  0.00    +0.386 N 
ATOM     25  H   UNL     1       0.623   5.175   1.678  0.00  0.00    -0.081 HD
BRANCH  24  26
ATOM     26  C   UNL     1       0.895   3.221   2.253  0.00  0.00    -0.068 C 
ATOM     27  C   UNL     1       2.302   3.323   1.629  0.00  0.00    -0.015 C 
ATOM     28  C   UNL     1       2.729   1.849   1.412  0.00  0.00    -0.002 C 
ATOM     29  C   UNL     1       1.408   1.171   0.972  0.00  0.00    -0.002 C 
ATOM     30  C   UNL     1       0.327   1.853   1.836  0.00  0.00    -0.015 C 
ENDBRANCH  24  26
BRANCH  24  31
ATOM     31  C   UNL     1      -1.076   4.566   2.661  0.00  0.00    -0.003 C 
BRANCH  31  32
ATOM     32  C   UNL     1      -0.552   5.244   3.901  0.00  0.00    +0.089 A 
ATOM     33  C   UNL     1      -0.497   6.572   4.109  0.00  0.00    +0.042 A 
ATOM     34  C   UNL     1       0.059   6.762   5.395  0.00  0.00    +0.041 A 
ATOM     35  C   UNL     1       0.310   5.540   5.896  0.00  0.00    +0.195 A 
ATOM     36  O   UNL     1      -0.068   4.624   4.990  0.00  0.00    -0.470 OA
ENDBRANCH  31  32
ENDBRANCH  24  31
ENDBRANCH  23  24
ENDBRANCH  22  23
ENDBRANCH  21  22
ENDBRANCH  19  21
ENDBRANCH   3  17
BRANCH   1  37
ATOM     37  C   UNL     1      -0.077   4.794  -7.782  0.00  0.00    +0.111 C 
BRANCH  37  39
ATOM     38  C   UNL     1      -0.760   6.080  -9.812  0.00  0.00    +0.009 C 
ATOM     39  C   UNL     1       0.314   5.171  -9.213  0.00  0.00    +0.000 C 
ATOM     40  C   UNL     1       1.655   5.909  -9.197  0.00  0.00    +0.009 C 
ENDBRANCH  37  39
ENDBRANCH   1  37
TORSDOF 11
