REMARK  Name = ZINC59810558
REMARK  7 active torsions:
REMARK  status: ('A' for Active; 'I' for Inactive)
REMARK    1  A    between atoms: C_1  and  C_2
REMARK    2  A    between atoms: C_2  and  C_4
REMARK    3  A    between atoms: C_2  and  S_10
REMARK    4  A    between atoms: N_6  and  C_7
REMARK    5  A    between atoms: S_10  and  C_11
REMARK    6  A    between atoms: C_14  and  C_17
REMARK    7  A    between atoms: N_15  and  N_16
REMARK                            x       y       z     vdW  Elec       q    Type
REMARK                         _______ _______ _______ _____ _____    ______ ____
ROOT
ATOM      1  C   UNL     1      -0.189  -0.057  -2.809  0.00  0.00    +0.209 A 
ATOM      2  N   UNL     1      -1.313   0.615  -2.693  0.00  0.00    -0.121 NA
ATOM      3  N   UNL     1      -1.815   0.839  -3.855  0.00  0.00    -0.127 NA
ATOM      4  C   UNL     1      -1.044   0.324  -4.783  0.00  0.00    +0.182 A 
ATOM      5  N   UNL     1       0.025  -0.260  -4.143  0.00  0.00    -0.224 N 
ENDROOT
BRANCH   4   6
ATOM      6  C   UNL     1      -1.275   0.369  -6.243  0.00  0.00    +0.021 A 
ATOM      7  C   UNL     1      -0.561  -0.477  -7.092  0.00  0.00    +0.013 A 
ATOM      8  C   UNL     1      -0.781  -0.430  -8.453  0.00  0.00    +0.016 A 
ATOM      9  C   UNL     1      -1.709   0.454  -8.977  0.00  0.00    +0.018 A 
ATOM     10  C   UNL     1      -2.420   1.297  -8.139  0.00  0.00    +0.016 A 
ATOM     11  C   UNL     1      -2.213   1.255  -6.776  0.00  0.00    +0.013 A 
ATOM     12 BR   UNL     1      -2.004   0.512 -10.844  0.00  0.00    -0.050 Br
ENDBRANCH   4   6
BRANCH   5  13
ATOM     13  N   UNL     1       1.078  -0.911  -4.720  0.00  0.00    -0.295 N 
ATOM     14  H   UNL     1       0.881  -1.895  -4.825  0.00  0.00    +0.163 HD
ATOM     15  H   UNL     1       1.319  -0.493  -5.606  0.00  0.00    +0.163 HD
ENDBRANCH   5  13
BRANCH   1  16
ATOM     16  S   UNL     1       0.851  -0.589  -1.490  0.00  0.00    -0.072 S 
BRANCH  16  18
ATOM     17  C   UNL     1      -0.019   1.526   0.010  0.00  0.00    +0.029 C 
ATOM     18  C   UNL     1       0.002  -0.004   0.002  0.00  0.00    +0.137 C 
BRANCH  18  19
ATOM     19  C   UNL     1       0.731  -0.503   1.223  0.00  0.00    +0.226 C 
ATOM     20  O   UNL     1       1.911  -0.775   1.156  0.00  0.00    -0.275 OA
ATOM     21  N   UNL     1       0.071  -0.647   2.389  0.00  0.00    -0.312 N 
ATOM     22  H   UNL     1      -0.872  -0.430   2.443  0.00  0.00    +0.149 HD
BRANCH  21  23
ATOM     23  C   UNL     1       0.780  -1.133   3.576  0.00  0.00    +0.073 C 
ATOM     24  C   UNL     1       0.076  -2.181   4.440  0.00  0.00    +0.024 C 
ATOM     25  C   UNL     1       0.216  -0.744   4.944  0.00  0.00    +0.024 C 
ENDBRANCH  21  23
ENDBRANCH  18  19
ENDBRANCH  16  18
ENDBRANCH   1  16
TORSDOF 6
