REMARK  Name = ZINC03984361
REMARK  7 active torsions:
REMARK  status: ('A' for Active; 'I' for Inactive)
REMARK    1  A    between atoms: C_1  and  C_2
REMARK    2  A    between atoms: C_2  and  O_3
REMARK    3  A    between atoms: O_3  and  C_4
REMARK    4  A    between atoms: C_4  and  C_6
REMARK    5  A    between atoms: C_7  and  N_30
REMARK    6  A    between atoms: C_12  and  C_29
REMARK    7  A    between atoms: C_21  and  C_23
REMARK                            x       y       z     vdW  Elec       q    Type
REMARK                         _______ _______ _______ _____ _____    ______ ____
ROOT
ATOM      1  C   UNL     1       2.298   1.466  -0.384  0.00  0.00    +0.105 C 
ATOM      2  C   UNL     1       1.121   2.038  -0.020  0.00  0.00    +0.195 C 
ATOM      3  O   UNL     1      -0.028   1.342  -0.023  0.00  0.00    -0.441 OA
ATOM      4  C   UNL     1      -0.001  -0.005  -0.008  0.00  0.00    +0.148 A 
ATOM      5  C   UNL     1      -1.193  -0.758   0.407  0.00  0.00    +0.041 A 
ATOM      6  C   UNL     1      -2.366  -0.102   0.787  0.00  0.00    +0.017 A 
ATOM      7  C   UNL     1      -3.458  -0.832   1.166  0.00  0.00    -0.050 A 
ATOM      8  C   UNL     1      -3.411  -2.219   1.177  0.00  0.00    +0.005 A 
ATOM      9  C   UNL     1      -2.263  -2.886   0.806  0.00  0.00    +0.026 A 
ATOM     10  C   UNL     1      -1.141  -2.163   0.417  0.00  0.00    +0.053 A 
ATOM     11  N   UNL     1       0.022  -2.803   0.040  0.00  0.00    -0.322 N 
ATOM     12  H   UNL     1       0.059  -3.802   0.049  0.00  0.00    +0.169 HD
ATOM     13  C   UNL     1       1.107  -2.106  -0.338  0.00  0.00    +0.257 A 
ATOM     14  O   UNL     1       2.114  -2.711  -0.665  0.00  0.00    -0.267 OA
ATOM     15  C   UNL     1       1.114  -0.700  -0.370  0.00  0.00    +0.072 A 
ATOM     16  C   UNL     1       2.359   0.025  -0.807  0.00  0.00    +0.100 C 
ATOM     17  C   UNL     1      -4.724  -0.124   1.576  0.00  0.00    +0.044 C 
ENDROOT
BRANCH  16  18
ATOM     18  C   UNL     1       2.481  -0.050  -2.307  0.00  0.00    -0.035 A 
ATOM     19  C   UNL     1       1.483   0.474  -3.108  0.00  0.00    +0.004 A 
ATOM     20  C   UNL     1       1.597   0.409  -4.485  0.00  0.00    +0.000 A 
ATOM     21  C   UNL     1       2.703  -0.188  -5.060  0.00  0.00    +0.000 A 
ATOM     22  C   UNL     1       3.697  -0.717  -4.259  0.00  0.00    +0.000 A 
ATOM     23  C   UNL     1       3.586  -0.648  -2.882  0.00  0.00    +0.004 A 
ENDBRANCH  16  18
BRANCH   2  24
ATOM     24  N   UNL     1       1.106   3.354   0.358  0.00  0.00    -0.329 N 
ATOM     25  H   UNL     1       0.287   3.753   0.692  0.00  0.00    +0.145 HD
ATOM     26  H   UNL     1       1.913   3.887   0.292  0.00  0.00    +0.145 HD
ENDBRANCH   2  24
BRANCH   1  27
ATOM     27  C   UNL     1       3.473   2.232  -0.366  0.00  0.00    +0.341 C 
ATOM     28  O   UNL     1       4.258   2.120   0.559  0.00  0.00    -0.245 OA
BRANCH  27  29
ATOM     29  O   UNL     1       3.735   3.093  -1.373  0.00  0.00    -0.462 OA
BRANCH  29  31
ATOM     30  C   UNL     1       5.072   4.754  -2.510  0.00  0.00    +0.048 C 
ATOM     31  C   UNL     1       4.950   3.840  -1.289  0.00  0.00    +0.229 C 
ENDBRANCH  29  31
ENDBRANCH  27  29
ENDBRANCH   1  27
TORSDOF 5
