REMARK  Name = ZINC14170872
REMARK  7 active torsions:
REMARK  status: ('A' for Active; 'I' for Inactive)
REMARK    1  A    between atoms: C_1  and  C_2
REMARK    2  A    between atoms: C_2  and  C_3
REMARK    3  A    between atoms: C_3  and  N_4
REMARK    4  A    between atoms: C_5  and  C_7
REMARK    5  A    between atoms: C_18  and  C_20
REMARK    6  A    between atoms: C_23  and  N_26
REMARK    7  A    between atoms: C_27  and  C_37
REMARK                            x       y       z     vdW  Elec       q    Type
REMARK                         _______ _______ _______ _____ _____    ______ ____
ROOT
ATOM      1  C   UNL     1      -1.073   1.583  -3.382  0.00  0.00    +0.276 C 
ATOM      2  C   UNL     1      -1.359   0.981  -2.003  0.00  0.00    +0.168 C 
ATOM      3  N   UNL     1      -0.644   1.791  -1.002  0.00  0.00    -0.260 N 
ATOM      4  C   UNL     1      -0.662   3.187  -1.157  0.00  0.00    +0.079 A 
ATOM      5  C   UNL     1      -0.259   4.008  -0.116  0.00  0.00    +0.027 A 
ATOM      6  C   UNL     1      -0.276   5.381  -0.275  0.00  0.00    +0.002 A 
ATOM      7  C   UNL     1      -0.694   5.934  -1.471  0.00  0.00    +0.004 A 
ATOM      8  C   UNL     1      -1.099   5.121  -2.513  0.00  0.00    +0.047 A 
ATOM      9  C   UNL     1      -1.087   3.742  -2.361  0.00  0.00    +0.143 A 
ATOM     10  O   UNL     1      -1.494   2.949  -3.388  0.00  0.00    -0.476 OA
ATOM     11  C   UNL     1       0.010   1.212   0.025  0.00  0.00    +0.251 C 
ATOM     12  O   UNL     1       0.555   1.903   0.865  0.00  0.00    -0.270 OA
ENDROOT
BRANCH  11  13
ATOM     13  C   UNL     1       0.058  -0.259   0.134  0.00  0.00    +0.037 A 
ATOM     14  C   UNL     1      -0.990  -1.034  -0.370  0.00  0.00    +0.015 A 
ATOM     15  C   UNL     1      -0.939  -2.406  -0.272  0.00  0.00    +0.027 A 
ATOM     16  C   UNL     1       0.149  -3.021   0.338  0.00  0.00    +0.051 A 
ATOM     17  C   UNL     1       1.191  -2.253   0.847  0.00  0.00    +0.027 A 
ATOM     18  C   UNL     1       1.149  -0.880   0.748  0.00  0.00    +0.015 A 
BRANCH  16  19
ATOM     19  N   UNL     1       0.196  -4.413   0.441  0.00  0.00    -0.265 N 
ATOM     20  C   UNL     1       0.799  -5.143  -0.537  0.00  0.00    +0.114 A 
ATOM     21  N   UNL     1       0.887  -6.437  -0.510  0.00  0.00    -0.233 NA
ATOM     22  C   UNL     1       0.363  -7.165   0.508  0.00  0.00    +0.078 A 
ATOM     23  C   UNL     1       0.452  -8.558   0.533  0.00  0.00    +0.028 A 
ATOM     24  C   UNL     1      -0.094  -9.257   1.586  0.00  0.00    +0.002 A 
ATOM     25  C   UNL     1      -0.734  -8.594   2.625  0.00  0.00    +0.001 A 
ATOM     26  C   UNL     1      -0.835  -7.220   2.622  0.00  0.00    +0.015 A 
ATOM     27  C   UNL     1      -0.288  -6.493   1.566  0.00  0.00    +0.065 A 
ATOM     28  C   UNL     1      -0.365  -5.026   1.509  0.00  0.00    +0.266 A 
ATOM     29  O   UNL     1      -0.913  -4.388   2.389  0.00  0.00    -0.267 OA
ATOM     30  C   UNL     1       1.403  -4.409  -1.707  0.00  0.00    +0.086 C 
ENDBRANCH  16  19
ENDBRANCH  11  13
BRANCH   1  32
ATOM     31  N   UNL     1      -1.520  -0.471  -4.684  0.00  0.00    -0.312 N 
ATOM     32  C   UNL     1      -1.827   0.818  -4.439  0.00  0.00    +0.255 C 
ATOM     33  O   UNL     1      -2.709   1.362  -5.068  0.00  0.00    -0.272 OA
ATOM     34  H   UNL     1      -0.814  -0.906  -4.181  0.00  0.00    +0.149 HD
BRANCH  31  35
ATOM     35  C   UNL     1      -2.253  -1.216  -5.711  0.00  0.00    +0.104 C 
BRANCH  35  37
ATOM     36  C   UNL     1      -2.479  -3.423  -6.861  0.00  0.00    +0.005 C 
ATOM     37  C   UNL     1      -1.713  -2.645  -5.788  0.00  0.00    +0.015 C 
ENDBRANCH  35  37
ENDBRANCH  31  35
ENDBRANCH   1  32
TORSDOF 5
