REMARK  Name = ZINC39657112
REMARK  10 active torsions:
REMARK  status: ('A' for Active; 'I' for Inactive)
REMARK    1  A    between atoms: C_1  and  C_2
REMARK    2  A    between atoms: C_2  and  C_3
REMARK    3  A    between atoms: C_3  and  C_4
REMARK    4  A    between atoms: C_4  and  C_5
REMARK    5  A    between atoms: C_5  and  C_7
REMARK    6  A    between atoms: C_5  and  C_8
REMARK    7  A    between atoms: C_12  and  C_21
REMARK    8  A    between atoms: N_23  and  C_24
REMARK    9  A    between atoms: C_24  and  C_26
REMARK   10  A    between atoms: C_24  and  C_27
REMARK                            x       y       z     vdW  Elec       q    Type
REMARK                         _______ _______ _______ _____ _____    ______ ____
ROOT
ATOM      1  C   UNL     1       1.519  -3.750  -2.662  0.00  0.00    +0.218 C 
ATOM      2  O   UNL     1       1.018  -4.275  -1.690  0.00  0.00    -0.275 OA
ATOM      3  N   UNL     1       2.137  -4.504  -3.592  0.00  0.00    -0.300 N 
ATOM      4  C   UNL     1       2.808  -4.048  -4.832  0.00  0.00    +0.121 C 
ATOM      5  C   UNL     1       4.066  -4.939  -4.946  0.00  0.00    +0.100 C 
ATOM      6  C   UNL     1       3.725  -6.204  -4.140  0.00  0.00    -0.004 C 
ATOM      7  C   UNL     1       2.305  -5.977  -3.602  0.00  0.00    +0.115 C 
ATOM      8  C   UNL     1       4.702  -6.370  -2.980  0.00  0.00    -0.010 C 
ATOM      9  C   UNL     1       4.378  -7.665  -2.228  0.00  0.00    -0.082 C 
ATOM     10  N   UNL     1       4.480  -8.805  -3.148  0.00  0.00    +0.379 N 
ATOM     11  C   UNL     1       3.474  -8.683  -4.210  0.00  0.00    -0.082 C 
ATOM     12  C   UNL     1       3.759  -7.432  -5.045  0.00  0.00    -0.010 C 
ATOM     13  H   UNL     1       5.401  -8.822  -3.559  0.00  0.00    -0.086 HD
ATOM     14  H   UNL     1       4.326  -9.661  -2.637  0.00  0.00    -0.086 HD
ENDROOT
BRANCH   5  15
ATOM     15  C   UNL     1       5.259  -4.239  -4.348  0.00  0.00    +0.219 C 
ATOM     16  O   UNL     1       5.109  -3.460  -3.430  0.00  0.00    -0.275 OA
ATOM     17  N   UNL     1       6.494  -4.478  -4.834  0.00  0.00    -0.308 N 
ATOM     18  H   UNL     1       6.614  -5.101  -5.567  0.00  0.00    +0.149 HD
BRANCH  17  19
ATOM     19  C   UNL     1       7.654  -3.798  -4.253  0.00  0.00    +0.100 C 
ATOM     20  C   UNL     1       8.143  -4.577  -3.030  0.00  0.00    +0.033 C 
BRANCH  19  21
ATOM     21  C   UNL     1       8.758  -3.725  -5.276  0.00  0.00    -0.027 A 
ATOM     22  C   UNL     1       9.000  -4.801  -6.109  0.00  0.00    +0.006 A 
ATOM     23  C   UNL     1      10.012  -4.734  -7.049  0.00  0.00    +0.015 A 
ATOM     24  C   UNL     1      10.782  -3.590  -7.155  0.00  0.00    +0.018 A 
ATOM     25  C   UNL     1      10.539  -2.513  -6.321  0.00  0.00    +0.015 A 
ATOM     26  C   UNL     1       9.523  -2.579  -5.386  0.00  0.00    +0.006 A 
ATOM     27 BR   UNL     1      12.167  -3.497  -8.439  0.00  0.00    -0.050 Br
ENDBRANCH  19  21
ENDBRANCH  17  19
ENDBRANCH   5  15
BRANCH   1  28
ATOM     28  C   UNL     1       1.451  -2.253  -2.829  0.00  0.00    +0.072 C 
ATOM     29  C   UNL     1       0.713  -1.919  -4.127  0.00  0.00    +0.017 C 
BRANCH  28  30
ATOM     30  C   UNL     1       0.702  -1.641  -1.644  0.00  0.00    +0.012 C 
BRANCH  30  31
ATOM     31  C   UNL     1       0.741  -0.116  -1.749  0.00  0.00    +0.000 C 
BRANCH  31  33
ATOM     32  C   UNL     1       0.030   2.022  -0.669  0.00  0.00    +0.004 C 
ATOM     33  C   UNL     1      -0.008   0.496  -0.564  0.00  0.00    -0.003 C 
ENDBRANCH  31  33
ENDBRANCH  30  31
ENDBRANCH  28  30
ENDBRANCH   1  28
TORSDOF 7
