REMARK  Name = ZINC02134065
REMARK  8 active torsions:
REMARK  status: ('A' for Active; 'I' for Inactive)
REMARK    1  A    between atoms: C_1  and  C_2
REMARK    2  A    between atoms: C_8  and  N_16
REMARK    3  A    between atoms: C_9  and  C_12
REMARK    4  A    between atoms: C_12  and  O_14
REMARK    5  A    between atoms: O_14  and  C_15
REMARK    6  A    between atoms: C_17  and  C_19
REMARK    7  A    between atoms: C_19  and  C_21
REMARK    8  A    between atoms: C_19  and  N_61
REMARK                            x       y       z     vdW  Elec       q    Type
REMARK                         _______ _______ _______ _____ _____    ______ ____
ROOT
ATOM      1  N   UNL     1      -1.462   5.890   1.958  0.00  0.00    -0.284 N 
ATOM      2  C   UNL     1      -1.278   5.758   0.630  0.00  0.00    +0.203 C 
ATOM      3  O   UNL     1      -1.555   4.712   0.081  0.00  0.00    -0.277 OA
ATOM      4  H   UNL     1      -1.306   6.747   2.386  0.00  0.00    +0.155 HD
ENDROOT
BRANCH   1  12
ATOM      5  C   UNL     1      -4.917   2.022  -0.311  0.00  0.00    +0.044 C 
ATOM      6  C   UNL     1      -4.201   2.320   0.981  0.00  0.00    -0.050 A 
ATOM      7  C   UNL     1      -4.336   1.454   2.059  0.00  0.00    +0.005 A 
ATOM      8  C   UNL     1      -3.691   1.708   3.248  0.00  0.00    +0.026 A 
ATOM      9  C   UNL     1      -2.893   2.842   3.377  0.00  0.00    +0.049 A 
ATOM     10  C   UNL     1      -2.760   3.716   2.282  0.00  0.00    +0.022 A 
ATOM     11  C   UNL     1      -3.425   3.439   1.083  0.00  0.00    +0.015 A 
ATOM     12  C   UNL     1      -1.873   4.799   2.716  0.00  0.00    +0.073 A 
ATOM     13  C   UNL     1      -1.527   4.524   4.023  0.00  0.00    +0.147 A 
ATOM     14  N   UNL     1      -2.140   3.343   4.413  0.00  0.00    -0.348 N 
ATOM     15  H   UNL     1      -2.052   2.932   5.287  0.00  0.00    +0.166 HD
BRANCH  13  16
ATOM     16  C   UNL     1      -0.677   5.319   4.834  0.00  0.00    +0.357 C 
ATOM     17  O   UNL     1      -0.112   6.286   4.359  0.00  0.00    -0.243 OA
BRANCH  16  18
ATOM     18  O   UNL     1      -0.496   5.003   6.133  0.00  0.00    -0.463 OA
ATOM     19  C   UNL     1       0.373   5.846   6.891  0.00  0.00    +0.280 C 
ENDBRANCH  16  18
ENDBRANCH  13  16
ENDBRANCH   1  12
BRANCH   2  20
ATOM     20  C   UNL     1      -0.730   6.908  -0.174  0.00  0.00    +0.016 C 
ATOM     21  C   UNL     1      -1.748   8.050  -0.191  0.00  0.00    -0.004 C 
BRANCH  20  35
ATOM     22  C   UNL     1      -1.721   6.233  -2.274  0.00  0.00    -0.073 C 
ATOM     23  C   UNL     1      -1.453   5.716  -3.680  0.00  0.00    -0.007 C 
ATOM     24  C   UNL     1      -0.527   6.668  -4.442  0.00  0.00    +0.011 C 
ATOM     25  C   UNL     1       0.759   6.817  -3.622  0.00  0.00    +0.020 C 
ATOM     26  C   UNL     1       0.387   7.427  -2.260  0.00  0.00    -0.068 C 
ATOM     27  C   UNL     1       1.344   5.447  -3.361  0.00  0.00    +0.023 A 
ATOM     28  C   UNL     1       2.691   5.360  -3.201  0.00  0.00    +0.022 A 
ATOM     29  C   UNL     1       3.292   4.135  -2.893  0.00  0.00    +0.007 A 
ATOM     30  C   UNL     1       2.502   3.035  -2.731  0.00  0.00    +0.070 A 
ATOM     31  C   UNL     1       1.116   3.160  -2.900  0.00  0.00    +0.251 A 
ATOM     32  O   UNL     1       0.393   2.198  -2.697  0.00  0.00    -0.268 OA
ATOM     33  N   UNL     1       0.570   4.340  -3.287  0.00  0.00    -0.312 N 
ATOM     34  C   UNL     1      -0.844   4.324  -3.663  0.00  0.00    +0.126 C 
ATOM     35  N   UNL     1      -0.453   6.439  -1.547  0.00  0.00    +0.388 N 
ATOM     36  H   UNL     1       0.051   5.546  -1.499  0.00  0.00    -0.081 HD
ENDBRANCH  20  35
ENDBRANCH   2  20
TORSDOF 5
