REMARK  Name = ZINC25566338
REMARK  9 active torsions:
REMARK  status: ('A' for Active; 'I' for Inactive)
REMARK    1  A    between atoms: C_1  and  C_2
REMARK    2  A    between atoms: C_5  and  C_8
REMARK    3  A    between atoms: C_8  and  C_10
REMARK    4  A    between atoms: C_8  and  N_13
REMARK    5  A    between atoms: C_14  and  C_16
REMARK    6  A    between atoms: C_16  and  N_17
REMARK    7  A    between atoms: N_20  and  S_23
REMARK    8  A    between atoms: S_23  and  C_26
REMARK    9  A    between atoms: C_31  and  N_32
REMARK                            x       y       z     vdW  Elec       q    Type
REMARK                         _______ _______ _______ _____ _____    ______ ____
ROOT
ATOM      1  N   UNL     1      -0.674   1.242  -0.961  0.00  0.00    +0.387 N 
ATOM      2  C   UNL     1       0.041   0.848   0.260  0.00  0.00    -0.061 C 
ATOM      3  C   UNL     1      -0.687   1.420   1.482  0.00  0.00    +0.091 C 
ATOM      4  N   UNL     1      -0.847   2.870   1.294  0.00  0.00    -0.180 NA
ATOM      5  C   UNL     1      -1.431   3.349   0.032  0.00  0.00    +0.091 C 
ATOM      6  C   UNL     1      -0.674   2.701  -1.132  0.00  0.00    -0.061 C 
ATOM      7  H   UNL     1      -1.720   0.918  -0.856  0.00  0.00    -0.081 HD
ENDROOT
BRANCH   4   8
ATOM      8  S   UNL     1      -0.381   3.936   2.473  0.00  0.00    +0.063 S 
ATOM      9  O   UNL     1       0.519   3.236   3.321  0.00  0.00    -0.153 OA
ATOM     10  O   UNL     1      -0.022   5.142   1.812  0.00  0.00    -0.153 OA
BRANCH   8  11
ATOM     11  C   UNL     1      -1.808   4.298   3.441  0.00  0.00    +0.136 A 
ATOM     12  C   UNL     1      -3.061   3.929   2.990  0.00  0.00    +0.031 A 
ATOM     13  C   UNL     1      -4.180   4.209   3.752  0.00  0.00    +0.002 A 
ATOM     14  C   UNL     1      -4.046   4.866   4.960  0.00  0.00    +0.002 A 
ATOM     15  C   UNL     1      -2.793   5.240   5.409  0.00  0.00    +0.035 A 
ATOM     16  C   UNL     1      -1.674   4.955   4.649  0.00  0.00    +0.152 A 
BRANCH  16  17
ATOM     17  N   UNL     1      -0.332   5.356   5.130  0.00  0.00    +0.058 N 
ATOM     18  O   UNL     1      -0.199   5.820   6.248  0.00  0.00    -0.126 OA
ATOM     19  O   UNL     1       0.639   5.220   4.407  0.00  0.00    -0.126 OA
ENDBRANCH  16  17
ENDBRANCH   8  11
ENDBRANCH   4   8
BRANCH   1  20
ATOM     20  C   UNL     1      -0.109   0.574  -2.141  0.00  0.00    +0.019 C 
BRANCH  20  22
ATOM     21  N   UNL     1      -0.688   0.280  -4.527  0.00  0.00    -0.310 N 
ATOM     22  C   UNL     1      -1.009   0.803  -3.328  0.00  0.00    +0.197 C 
ATOM     23  O   UNL     1      -2.021   1.459  -3.203  0.00  0.00    -0.278 OA
ATOM     24  H   UNL     1       0.230  -0.315  -4.640  0.00  0.00    +0.149 HD
BRANCH  21  25
ATOM     25  C   UNL     1      -1.563   0.503  -5.681  0.00  0.00    +0.106 C 
BRANCH  25  30
ATOM     26  C   UNL     1       1.521   0.059 -10.549  0.00  0.00    +0.044 C 
ATOM     27  C   UNL     1       0.716   0.174  -9.280  0.00  0.00    -0.050 A 
ATOM     28  C   UNL     1      -0.252   1.154  -9.162  0.00  0.00    +0.004 A 
ATOM     29  C   UNL     1      -0.990   1.260  -7.997  0.00  0.00    +0.006 A 
ATOM     30  C   UNL     1      -0.759   0.387  -6.951  0.00  0.00    -0.027 A 
ATOM     31  C   UNL     1       0.213  -0.589  -7.067  0.00  0.00    +0.006 A 
ATOM     32  C   UNL     1       0.947  -0.699  -8.233  0.00  0.00    +0.004 A 
ENDBRANCH  25  30
BRANCH  25  33
ATOM     33  C   UNL     1      -2.678  -0.545  -5.686  0.00  0.00    +0.014 C 
ATOM     34  C   UNL     1      -4.118  -0.043  -5.814  0.00  0.00    +0.006 C 
ATOM     35  C   UNL     1      -3.612  -0.588  -4.475  0.00  0.00    +0.006 C 
ENDBRANCH  25  33
ENDBRANCH  21  25
ENDBRANCH  20  22
ENDBRANCH   1  20
TORSDOF 8
