REMARK  Name = ZINC36065365
REMARK  12 active torsions:
REMARK  status: ('A' for Active; 'I' for Inactive)
REMARK    1  A    between atoms: C_1  and  C_2
REMARK    2  A    between atoms: C_2  and  C_3
REMARK    3  A    between atoms: C_3  and  C_5
REMARK    4  A    between atoms: C_3  and  N_6
REMARK    5  A    between atoms: C_7  and  C_9
REMARK    6  A    between atoms: C_12  and  C_14
REMARK    7  A    between atoms: C_14  and  N_15
REMARK    8  A    between atoms: N_15  and  C_16
REMARK    9  A    between atoms: N_15  and  C_27
REMARK   10  A    between atoms: C_16  and  C_17
REMARK   11  A    between atoms: C_21  and  C_23
REMARK   12  A    between atoms: C_27  and  C_28
REMARK                            x       y       z     vdW  Elec       q    Type
REMARK                         _______ _______ _______ _____ _____    ______ ____
ROOT
ATOM      1  N   UNL     1      -3.660   2.634  -6.366  0.00  0.00    +0.391 N 
ATOM      2  H   UNL     1      -3.098   3.389  -6.729  0.00  0.00    -0.080 HD
ENDROOT
BRANCH   1   3
ATOM      3  C   UNL     1      -3.041   1.349  -6.718  0.00  0.00    +0.020 C 
BRANCH   3   7
ATOM      4  C   UNL     1      -1.895   1.443 -10.154  0.00  0.00    +0.163 A 
ATOM      5  C   UNL     1      -3.159   0.970 -10.330  0.00  0.00    +0.230 A 
ATOM      6  O   UNL     1      -3.718   0.882  -9.112  0.00  0.00    -0.449 OA
ATOM      7  C   UNL     1      -2.817   1.291  -8.207  0.00  0.00    +0.179 A 
ATOM      8  N   UNL     1      -1.719   1.625  -8.817  0.00  0.00    -0.210 NA
BRANCH   4  10
ATOM      9  N   UNL     1       0.351   2.075 -10.883  0.00  0.00    -0.307 N 
ATOM     10  C   UNL     1      -0.902   1.702 -11.211  0.00  0.00    +0.266 C 
ATOM     11  O   UNL     1      -1.213   1.581 -12.381  0.00  0.00    -0.268 OA
ATOM     12  H   UNL     1       0.579   2.245  -9.955  0.00  0.00    +0.149 HD
BRANCH   9  13
ATOM     13  C   UNL     1       1.369   2.221 -11.926  0.00  0.00    +0.070 C 
ATOM     14  C   UNL     1       2.006   0.860 -12.212  0.00  0.00    +0.028 C 
BRANCH  13  16
ATOM     15  C   UNL     1       1.834   4.591 -11.285  0.00  0.00    +0.005 C 
ATOM     16  C   UNL     1       2.447   3.199 -11.452  0.00  0.00    +0.018 C 
ENDBRANCH  13  16
ENDBRANCH   9  13
ENDBRANCH   4  10
ENDBRANCH   3   7
ENDBRANCH   1   3
BRANCH   1  17
ATOM     17  C   UNL     1      -5.008   2.703  -6.948  0.00  0.00    -0.042 C 
BRANCH  17  18
ATOM     18  C   UNL     1      -5.595   4.067  -6.691  0.00  0.00    -0.063 A 
ATOM     19  C   UNL     1      -6.325   4.300  -5.540  0.00  0.00    +0.002 A 
ATOM     20  C   UNL     1      -6.864   5.551  -5.305  0.00  0.00    +0.001 A 
ATOM     21  C   UNL     1      -6.673   6.569  -6.221  0.00  0.00    +0.012 A 
ATOM     22  C   UNL     1      -5.943   6.337  -7.370  0.00  0.00    +0.055 A 
ATOM     23  C   UNL     1      -5.400   5.087  -7.604  0.00  0.00    +0.014 A 
BRANCH  22  24
ATOM     24  C   UNL     1      -5.735   7.447  -8.368  0.00  0.00    +0.417 C 
ATOM     25  F   UNL     1      -6.370   8.607  -7.914  0.00  0.00    -0.166 F 
ATOM     26  F   UNL     1      -4.365   7.692  -8.515  0.00  0.00    -0.166 F 
ATOM     27  F   UNL     1      -6.276   7.071  -9.603  0.00  0.00    -0.166 F 
ENDBRANCH  22  24
ENDBRANCH  17  18
ENDBRANCH   1  17
BRANCH   1  28
ATOM     28  C   UNL     1      -3.751   2.749  -4.904  0.00  0.00    -0.039 C 
BRANCH  28  29
ATOM     29  C   UNL     1      -2.364   2.807  -4.318  0.00  0.00    -0.029 A 
ATOM     30  C   UNL     1      -1.825   1.691  -3.707  0.00  0.00    +0.004 A 
ATOM     31  C   UNL     1      -0.552   1.744  -3.169  0.00  0.00    +0.000 A 
ATOM     32  C   UNL     1       0.182   2.914  -3.241  0.00  0.00    +0.003 A 
ATOM     33  C   UNL     1      -0.356   4.031  -3.852  0.00  0.00    +0.038 A 
ATOM     34  C   UNL     1      -1.628   3.977  -4.396  0.00  0.00    +0.125 A 
ATOM     35  F   UNL     1      -2.153   5.067  -4.997  0.00  0.00    -0.205 F 
ENDBRANCH  28  29
ENDBRANCH   1  28
TORSDOF 10
