REMARK  Name = ZINC00958446
REMARK  10 active torsions:
REMARK  status: ('A' for Active; 'I' for Inactive)
REMARK    1  A    between atoms: C_1  and  C_2
REMARK    2  A    between atoms: C_2  and  C_3
REMARK    3  A    between atoms: C_3  and  C_5
REMARK    4  A    between atoms: C_3  and  N_9
REMARK    5  A    between atoms: C_5  and  O_7
REMARK    6  A    between atoms: O_7  and  C_8
REMARK    7  A    between atoms: C_16  and  C_29
REMARK    8  A    between atoms: C_17  and  C_19
REMARK    9  A    between atoms: N_21  and  C_22
REMARK   10  A    between atoms: C_27  and  C_28
REMARK                            x       y       z     vdW  Elec       q    Type
REMARK                         _______ _______ _______ _____ _____    ______ ____
ROOT
ATOM      1  N   UNL     1       7.013  -0.635   0.272  0.00  0.00    -0.285 N 
ATOM      2  C   UNL     1       6.504  -1.888   0.361  0.00  0.00    +0.204 A 
ATOM      3  N   UNL     1       5.218  -2.113   0.353  0.00  0.00    -0.230 NA
ATOM      4  C   UNL     1       4.340  -1.123   0.259  0.00  0.00    +0.116 A 
ATOM      5  C   UNL     1       4.745   0.228   0.160  0.00  0.00    +0.076 A 
ATOM      6  C   UNL     1       6.210   0.443   0.171  0.00  0.00    +0.263 A 
ATOM      7  O   UNL     1       6.678   1.565   0.091  0.00  0.00    -0.267 OA
ATOM      8  C   UNL     1       3.716   1.166   0.061  0.00  0.00    -0.017 A 
ATOM      9  C   UNL     1       2.416   0.752   0.073  0.00  0.00    +0.080 A 
ATOM     10  S   UNL     1       2.568  -1.020   0.215  0.00  0.00    -0.064 S 
ATOM     11  C   UNL     1       4.040   2.634  -0.055  0.00  0.00    +0.046 C 
ENDROOT
BRANCH   9  12
ATOM     12  C   UNL     1       1.197   1.562  -0.015  0.00  0.00    +0.255 C 
ATOM     13  O   UNL     1       1.277   2.773  -0.110  0.00  0.00    -0.269 OA
ATOM     14  N   UNL     1      -0.011   0.966   0.007  0.00  0.00    -0.281 N 
ATOM     15  H   UNL     1      -0.074  -0.002   0.016  0.00  0.00    +0.155 HD
BRANCH  14  16
ATOM     16  C   UNL     1      -1.174   1.742   0.013  0.00  0.00    +0.037 A 
ATOM     17  C   UNL     1      -1.213   2.942  -0.687  0.00  0.00    +0.023 A 
ATOM     18  C   UNL     1      -2.365   3.704  -0.684  0.00  0.00    +0.002 A 
ATOM     19  C   UNL     1      -3.475   3.279   0.024  0.00  0.00    +0.000 A 
ATOM     20  C   UNL     1      -3.437   2.088   0.726  0.00  0.00    +0.005 A 
ATOM     21  C   UNL     1      -2.290   1.319   0.722  0.00  0.00    -0.029 A 
ATOM     22  C   UNL     1      -2.250   0.022   1.488  0.00  0.00    +0.045 C 
ENDBRANCH  14  16
ENDBRANCH   9  12
BRANCH   1  23
ATOM     23  C   UNL     1       8.466  -0.448   0.284  0.00  0.00    +0.199 C 
BRANCH  23  25
ATOM     24  C   UNL     1       8.515  -0.171   2.767  0.00  0.00    +0.006 C 
ATOM     25  C   UNL     1       9.040  -0.999   1.591  0.00  0.00    +0.033 C 
ENDBRANCH  23  25
BRANCH  23  26
ATOM     26  C   UNL     1       9.077  -1.183  -0.881  0.00  0.00    +0.330 C 
ATOM     27  O   UNL     1       8.371  -1.800  -1.644  0.00  0.00    -0.249 OA
BRANCH  26  28
ATOM     28  O   UNL     1      10.405  -1.153  -1.072  0.00  0.00    -0.466 OA
ATOM     29  C   UNL     1      10.924  -1.884  -2.214  0.00  0.00    +0.280 C 
ENDBRANCH  26  28
ENDBRANCH  23  26
ENDBRANCH   1  23
TORSDOF 6
