REMARK  Name = ZINC13399718
REMARK  7 active torsions:
REMARK  status: ('A' for Active; 'I' for Inactive)
REMARK    1  A    between atoms: C_1  and  C_2
REMARK    2  A    between atoms: C_5  and  C_8
REMARK    3  A    between atoms: C_11  and  S_20
REMARK    4  A    between atoms: N_12  and  C_13
REMARK    5  A    between atoms: S_20  and  C_21
REMARK    6  A    between atoms: C_21  and  C_22
REMARK    7  A    between atoms: C_28  and  C_31
REMARK                            x       y       z     vdW  Elec       q    Type
REMARK                         _______ _______ _______ _____ _____    ______ ____
ROOT
ATOM      1  C   UNL     1      -1.229  12.094  -1.537  0.00  0.00    +0.169 A 
ATOM      2  N   UNL     1       0.000  11.632  -1.535  0.00  0.00    -0.128 NA
ATOM      3  N   UNL     1      -0.011  10.352  -1.649  0.00  0.00    -0.122 NA
ATOM      4  C   UNL     1      -1.248   9.917  -1.741  0.00  0.00    +0.197 A 
ATOM      5  N   UNL     1      -2.068  11.010  -1.669  0.00  0.00    -0.270 N 
ENDROOT
BRANCH   1  10
ATOM      6  C   UNL     1      -2.810  17.608  -1.078  0.00  0.00    +0.044 C 
ATOM      7  C   UNL     1      -2.396  16.164  -1.199  0.00  0.00    -0.050 A 
ATOM      8  C   UNL     1      -3.318  15.161  -0.958  0.00  0.00    +0.004 A 
ATOM      9  C   UNL     1      -2.946  13.837  -1.067  0.00  0.00    +0.012 A 
ATOM     10  C   UNL     1      -1.635  13.511  -1.420  0.00  0.00    +0.020 A 
ATOM     11  C   UNL     1      -0.709  14.528  -1.655  0.00  0.00    +0.012 A 
ATOM     12  C   UNL     1      -1.096  15.848  -1.549  0.00  0.00    +0.004 A 
ENDBRANCH   1  10
BRANCH   5  13
ATOM     13  C   UNL     1      -3.469  11.023  -1.720  0.00  0.00    +0.051 A 
ATOM     14  C   UNL     1      -4.120  11.584  -2.810  0.00  0.00    +0.028 A 
ATOM     15  C   UNL     1      -5.500  11.591  -2.861  0.00  0.00    +0.022 A 
ATOM     16  C   UNL     1      -6.234  11.049  -1.820  0.00  0.00    +0.041 A 
ATOM     17  C   UNL     1      -5.588  10.495  -0.730  0.00  0.00    +0.022 A 
ATOM     18  C   UNL     1      -4.208  10.480  -0.677  0.00  0.00    +0.028 A 
ATOM     19 CL   UNL     1      -7.969  11.065  -1.883  0.00  0.00    -0.084 Cl
ENDBRANCH   5  13
BRANCH   4  20
ATOM     20  S   UNL     1      -1.756   8.239  -1.917  0.00  0.00    -0.076 S 
BRANCH  20  21
ATOM     21  C   UNL     1      -0.140   7.422  -1.933  0.00  0.00    +0.173 C 
BRANCH  21  22
ATOM     22  C   UNL     1      -0.331   5.934  -2.079  0.00  0.00    +0.226 C 
ATOM     23  O   UNL     1      -1.449   5.472  -2.163  0.00  0.00    -0.275 OA
ATOM     24  N   UNL     1       0.740   5.118  -2.116  0.00  0.00    -0.300 N 
ATOM     25  C   UNL     1       2.101   5.663  -2.015  0.00  0.00    +0.108 C 
ATOM     26  C   UNL     1       2.838   4.943  -0.882  0.00  0.00    +0.020 C 
ATOM     27  C   UNL     1       2.783   3.433  -1.122  0.00  0.00    +0.018 C 
ATOM     28  C   UNL     1       1.325   2.967  -1.122  0.00  0.00    +0.119 C 
ATOM     29  C   UNL     1       0.570   3.665  -2.258  0.00  0.00    +0.122 C 
BRANCH  28  30
ATOM     30  C   UNL     1       1.273   1.475  -1.326  0.00  0.00    +0.361 C 
ATOM     31  O   UNL     1       2.297   0.848  -1.458  0.00  0.00    -0.246 OA
ATOM     32  O   UNL     1       0.089   0.843  -1.361  0.00  0.00    -0.246 OA
ENDBRANCH  28  30
ENDBRANCH  21  22
ENDBRANCH  20  21
ENDBRANCH   4  20
TORSDOF 6
