REMARK  Name = ZINC04161151
REMARK  12 active torsions:
REMARK  status: ('A' for Active; 'I' for Inactive)
REMARK    1  A    between atoms: C_1  and  C_2
REMARK    2  A    between atoms: C_2  and  C_3
REMARK    3  A    between atoms: C_3  and  C_5
REMARK    4  A    between atoms: C_3  and  N_12
REMARK    5  A    between atoms: N_7  and  C_8
REMARK    6  A    between atoms: C_8  and  C_9
REMARK    7  A    between atoms: C_8  and  C_10
REMARK    8  A    between atoms: C_8  and  C_11
REMARK    9  A    between atoms: N_12  and  C_13
REMARK   10  A    between atoms: C_18  and  C_20
REMARK   11  A    between atoms: C_21  and  N_28
REMARK   12  A    between atoms: C_22  and  C_25
REMARK                            x       y       z     vdW  Elec       q    Type
REMARK                         _______ _______ _______ _____ _____    ______ ____
ROOT
ATOM      1  N   UNL     1      -1.343   3.013  -0.691  0.00  0.00    -0.282 N 
ATOM      2  C   UNL     1      -0.958   4.293  -0.868  0.00  0.00    +0.257 C 
ATOM      3  O   UNL     1      -1.786   5.148  -1.121  0.00  0.00    -0.269 OA
ENDROOT
BRANCH   1   4
ATOM      4  C   UNL     1      -2.713   2.609  -1.018  0.00  0.00    +0.077 C 
ATOM      5  C   UNL     1      -3.072   3.065  -2.447  0.00  0.00    +0.022 C 
ATOM      6  C   UNL     1      -4.562   3.482  -2.348  0.00  0.00    +0.002 C 
ATOM      7  C   UNL     1      -4.637   4.157  -0.956  0.00  0.00    +0.002 C 
ATOM      8  C   UNL     1      -3.707   3.302  -0.070  0.00  0.00    +0.022 C 
ENDBRANCH   1   4
BRANCH   2   9
ATOM      9  C   UNL     1       0.456   4.654  -0.756  0.00  0.00    +0.115 A 
ATOM     10  C   UNL     1       1.294   5.256  -1.697  0.00  0.00    +0.076 A 
ATOM     11  C   UNL     1       2.589   5.445  -1.216  0.00  0.00    +0.155 A 
ATOM     12  N   UNL     1       2.886   5.053   0.003  0.00  0.00    -0.203 NA
ATOM     13  S   UNL     1       1.571   4.436   0.616  0.00  0.00    +0.019 S 
BRANCH  11  14
ATOM     14  C   UNL     1       3.616   6.073  -2.067  0.00  0.00    +0.262 C 
ATOM     15  O   UNL     1       3.334   6.433  -3.194  0.00  0.00    -0.269 OA
ATOM     16  N   UNL     1       4.867   6.247  -1.597  0.00  0.00    -0.324 N 
ATOM     17  H   UNL     1       5.092   5.960  -0.699  0.00  0.00    +0.145 HD
ATOM     18  H   UNL     1       5.543   6.660  -2.158  0.00  0.00    +0.145 HD
ENDBRANCH  11  14
BRANCH  10  19
ATOM     19  N   UNL     1       0.881   5.628  -2.969  0.00  0.00    -0.355 N 
ATOM     20  H   UNL     1      -0.035   5.473  -3.247  0.00  0.00    +0.142 HD
ATOM     21  H   UNL     1       1.510   6.043  -3.581  0.00  0.00    +0.142 HD
ENDBRANCH  10  19
ENDBRANCH   2   9
BRANCH   1  22
ATOM     22  C   UNL     1      -0.392   2.027  -0.172  0.00  0.00    +0.162 C 
BRANCH  22  23
ATOM     23  C   UNL     1      -0.826   1.584   1.201  0.00  0.00    +0.234 C 
ATOM     24  O   UNL     1      -1.831   2.047   1.698  0.00  0.00    -0.274 OA
ATOM     25  N   UNL     1      -0.098   0.674   1.877  0.00  0.00    -0.309 N 
ATOM     26  H   UNL     1       0.706   0.304   1.480  0.00  0.00    +0.149 HD
BRANCH  25  27
ATOM     27  C   UNL     1      -0.520   0.244   3.212  0.00  0.00    +0.026 C 
ATOM     28  C   UNL     1      -1.912  -0.386   3.129  0.00  0.00    +0.031 C 
ATOM     29  C   UNL     1       0.473  -0.786   3.754  0.00  0.00    +0.031 C 
ATOM     30  C   UNL     1      -0.562   1.453   4.149  0.00  0.00    +0.031 C 
ENDBRANCH  25  27
ENDBRANCH  22  23
BRANCH  22  32
ATOM     31  C   UNL     1       0.210   1.244  -2.468  0.00  0.00    +0.006 C 
ATOM     32  C   UNL     1      -0.349   0.818  -1.109  0.00  0.00    +0.028 C 
ENDBRANCH  22  32
ENDBRANCH   1  22
TORSDOF 8
