REMARK  Name = ZINC15397504
REMARK  7 active torsions:
REMARK  status: ('A' for Active; 'I' for Inactive)
REMARK    1  A    between atoms: C_1  and  C_2
REMARK    2  A    between atoms: C_2  and  C_4
REMARK    3  A    between atoms: C_2  and  N_14
REMARK    4  A    between atoms: C_15  and  C_17
REMARK    5  A    between atoms: C_17  and  N_18
REMARK    6  A    between atoms: C_21  and  C_25
REMARK    7  A    between atoms: C_21  and  C_26
REMARK                            x       y       z     vdW  Elec       q    Type
REMARK                         _______ _______ _______ _____ _____    ______ ____
ROOT
ATOM      1  N   UNL     1      -0.240  -1.150  -4.711  0.00  0.00    -0.215 N 
ATOM      2  C   UNL     1      -0.988  -2.230  -5.014  0.00  0.00    +0.254 C 
ATOM      3  O   UNL     1      -1.000  -3.297  -4.439  0.00  0.00    -0.272 OA
ATOM      4  C   UNL     1      -1.811  -1.831  -6.223  0.00  0.00    +0.168 C 
ATOM      5  N   UNL     1      -1.392  -0.444  -6.485  0.00  0.00    -0.279 N 
ATOM      6  C   UNL     1      -0.477  -0.134  -5.549  0.00  0.00    +0.310 C 
ATOM      7  O   UNL     1       0.074   0.946  -5.474  0.00  0.00    -0.252 OA
ATOM      8  C   UNL     1      -3.305  -1.891  -5.899  0.00  0.00    +0.050 C 
ATOM      9  H   UNL     1      -1.716   0.135  -7.193  0.00  0.00    +0.152 HD
ENDROOT
BRANCH   4  10
ATOM     10  C   UNL     1      -1.487  -2.715  -7.400  0.00  0.00    +0.138 A 
ATOM     11  C   UNL     1      -1.551  -2.336  -8.684  0.00  0.00    +0.056 A 
ATOM     12  C   UNL     1      -1.153  -3.506  -9.476  0.00  0.00    +0.020 A 
ATOM     13  C   UNL     1      -1.017  -3.759 -10.840  0.00  0.00    +0.011 A 
ATOM     14  C   UNL     1      -0.614  -4.996 -11.263  0.00  0.00    +0.001 A 
ATOM     15  C   UNL     1      -0.340  -5.998 -10.343  0.00  0.00    +0.004 A 
ATOM     16  C   UNL     1      -0.469  -5.766  -8.990  0.00  0.00    +0.047 A 
ATOM     17  C   UNL     1      -0.876  -4.516  -8.539  0.00  0.00    +0.135 A 
ATOM     18  O   UNL     1      -1.085  -3.995  -7.314  0.00  0.00    -0.457 OA
ENDBRANCH   4  10
BRANCH   1  19
ATOM     19  C   UNL     1       0.712  -1.094  -3.598  0.00  0.00    +0.213 C 
BRANCH  19  21
ATOM     20  N   UNL     1       0.688  -0.476  -1.203  0.00  0.00    -0.307 N 
ATOM     21  C   UNL     1       0.006  -0.608  -2.358  0.00  0.00    +0.231 C 
ATOM     22  O   UNL     1      -1.175  -0.336  -2.400  0.00  0.00    -0.274 OA
ATOM     23  H   UNL     1       1.632  -0.695  -1.170  0.00  0.00    +0.149 HD
BRANCH  20  25
ATOM     24  C   UNL     1      -0.019   1.526   0.010  0.00  0.00    +0.033 C 
ATOM     25  C   UNL     1       0.002  -0.004   0.002  0.00  0.00    +0.100 C 
BRANCH  25  26
ATOM     26  C   UNL     1       0.731  -0.503   1.223  0.00  0.00    -0.027 A 
ATOM     27  C   UNL     1       2.125  -0.509   1.236  0.00  0.00    +0.006 A 
ATOM     28  C   UNL     1       2.813  -0.954   2.322  0.00  0.00    +0.009 A 
ATOM     29  C   UNL     1       2.112  -1.414   3.450  0.00  0.00    -0.018 A 
ATOM     30  C   UNL     1       2.789  -1.880   4.590  0.00  0.00    +0.008 A 
ATOM     31  C   UNL     1       2.076  -2.318   5.663  0.00  0.00    +0.001 A 
ATOM     32  C   UNL     1       0.682  -2.312   5.651  0.00  0.00    +0.001 A 
ATOM     33  C   UNL     1      -0.006  -1.867   4.564  0.00  0.00    +0.008 A 
ATOM     34  C   UNL     1       0.695  -1.408   3.437  0.00  0.00    -0.018 A 
ATOM     35  C   UNL     1       0.018  -0.936   2.299  0.00  0.00    +0.014 A 
ENDBRANCH  25  26
ENDBRANCH  20  25
ENDBRANCH  19  21
ENDBRANCH   1  19
TORSDOF 5
