REMARK  Name = ZINC11449950
REMARK  12 active torsions:
REMARK  status: ('A' for Active; 'I' for Inactive)
REMARK    1  A    between atoms: C_1  and  C_2
REMARK    2  A    between atoms: C_5  and  N_8
REMARK    3  A    between atoms: C_9  and  C_31
REMARK    4  A    between atoms: C_12  and  S_13
REMARK    5  A    between atoms: S_13  and  C_14
REMARK    6  A    between atoms: C_14  and  C_15
REMARK    7  A    between atoms: C_15  and  C_17
REMARK    8  A    between atoms: C_18  and  N_30
REMARK    9  A    between atoms: N_19  and  C_26
REMARK   10  A    between atoms: C_26  and  C_27
REMARK   11  A    between atoms: C_27  and  C_28
REMARK   12  A    between atoms: C_27  and  C_29
REMARK                            x       y       z     vdW  Elec       q    Type
REMARK                         _______ _______ _______ _____ _____    ______ ____
ROOT
ATOM      1  S   UNL     1      -2.690   0.756   0.102  0.00  0.00    -0.078 S 
ENDROOT
BRANCH   1   6
ATOM      2  N   UNL     1      -5.385   1.508   0.182  0.00  0.00    -0.270 N 
ATOM      3  C   UNL     1      -6.083   2.696   0.227  0.00  0.00    +0.169 A 
ATOM      4  N   UNL     1      -5.195   3.663   0.223  0.00  0.00    -0.128 NA
ATOM      5  N   UNL     1      -4.009   3.172   0.183  0.00  0.00    -0.122 NA
ATOM      6  C   UNL     1      -4.063   1.859   0.159  0.00  0.00    +0.197 A 
BRANCH   2  11
ATOM      7  C   UNL     1      -7.547  -3.739   0.112  0.00  0.00    +0.044 C 
ATOM      8  C   UNL     1      -6.973  -2.346   0.130  0.00  0.00    -0.050 A 
ATOM      9  C   UNL     1      -6.217  -1.926   1.209  0.00  0.00    +0.005 A 
ATOM     10  C   UNL     1      -5.689  -0.649   1.229  0.00  0.00    +0.026 A 
ATOM     11  C   UNL     1      -5.919   0.212   0.164  0.00  0.00    +0.051 A 
ATOM     12  C   UNL     1      -6.683  -0.211  -0.915  0.00  0.00    +0.026 A 
ATOM     13  C   UNL     1      -7.203  -1.491  -0.932  0.00  0.00    +0.005 A 
ENDBRANCH   2  11
BRANCH   3  14
ATOM     14  C   UNL     1      -7.552   2.851   0.268  0.00  0.00    +0.020 A 
ATOM     15  C   UNL     1      -8.364   1.758   0.575  0.00  0.00    +0.011 A 
ATOM     16  C   UNL     1      -9.735   1.911   0.616  0.00  0.00    +0.001 A 
ATOM     17  C   UNL     1     -10.305   3.142   0.344  0.00  0.00    +0.000 A 
ATOM     18  C   UNL     1      -9.506   4.228   0.033  0.00  0.00    +0.001 A 
ATOM     19  C   UNL     1      -8.134   4.090  -0.006  0.00  0.00    +0.011 A 
ENDBRANCH   3  14
ENDBRANCH   1   6
BRANCH   1  20
ATOM     20  C   UNL     1      -1.329   1.949   0.089  0.00  0.00    +0.157 C 
BRANCH  20  21
ATOM     21  C   UNL     1      -0.015   1.213   0.041  0.00  0.00    +0.182 C 
ATOM     22  O   UNL     1      -0.001  -0.002   0.017  0.00  0.00    -0.291 OA
BRANCH  21  23
ATOM     23  C   UNL     1       1.198   1.934   0.017  0.00  0.00    +0.120 A 
ATOM     24  C   UNL     1       2.436   1.273   0.091  0.00  0.00    +0.116 A 
ATOM     25  N   UNL     1       3.583   2.014   0.059  0.00  0.00    -0.281 N 
ATOM     26  C   UNL     1       3.547   3.352  -0.030  0.00  0.00    +0.331 A 
ATOM     27  O   UNL     1       4.595   3.966  -0.049  0.00  0.00    -0.246 OA
ATOM     28  N   UNL     1       2.394   4.038  -0.098  0.00  0.00    -0.274 N 
ATOM     29  H   UNL     1       2.417   5.036  -0.164  0.00  0.00    +0.173 HD
ATOM     30  C   UNL     1       1.206   3.399  -0.080  0.00  0.00    +0.266 A 
ATOM     31  O   UNL     1       0.164   4.024  -0.142  0.00  0.00    -0.267 OA
BRANCH  24  32
ATOM     32  N   UNL     1       2.491  -0.083   0.187  0.00  0.00    -0.344 N 
ATOM     33  H   UNL     1       1.678  -0.608   0.122  0.00  0.00    +0.144 HD
ATOM     34  H   UNL     1       3.344  -0.526   0.321  0.00  0.00    +0.144 HD
ENDBRANCH  24  32
BRANCH  25  35
ATOM     35  C   UNL     1       4.879   1.334   0.131  0.00  0.00    +0.131 C 
BRANCH  35  36
ATOM     36  C   UNL     1       5.300   1.192   1.595  0.00  0.00    +0.003 C 
ATOM     37  C   UNL     1       6.590   0.374   1.678  0.00  0.00    +0.009 C 
ATOM     38  C   UNL     1       5.537   2.580   2.194  0.00  0.00    +0.009 C 
ENDBRANCH  35  36
ENDBRANCH  25  35
ENDBRANCH  21  23
ENDBRANCH  20  21
ENDBRANCH   1  20
TORSDOF 9
