REMARK  Name = ZINC09818171
REMARK  8 active torsions:
REMARK  status: ('A' for Active; 'I' for Inactive)
REMARK    1  A    between atoms: C_3  and  O_29
REMARK    2  A    between atoms: C_6  and  N_7
REMARK    3  A    between atoms: C_8  and  C_10
REMARK    4  A    between atoms: C_10  and  S_11
REMARK    5  A    between atoms: S_11  and  C_12
REMARK    6  A    between atoms: N_15  and  C_19
REMARK    7  A    between atoms: C_19  and  C_20
REMARK    8  A    between atoms: O_29  and  C_30
REMARK                            x       y       z     vdW  Elec       q    Type
REMARK                         _______ _______ _______ _____ _____    ______ ____
ROOT
ATOM      1  S   UNL     1       2.674   4.088   0.001  0.00  0.00    -0.096 S 
ENDROOT
BRANCH   1   2
ATOM      2  C   UNL     1       1.145   3.213   0.021  0.00  0.00    +0.108 A 
ATOM      3  C   UNL     1      -0.077   3.921   0.037  0.00  0.00    +0.004 A 
ATOM      4  C   UNL     1      -1.236   3.225   0.053  0.00  0.00    +0.029 A 
ATOM      5  N   UNL     1      -1.194   1.860   0.049  0.00  0.00    -0.293 N 
ATOM      6  C   UNL     1      -0.014   1.215   0.039  0.00  0.00    +0.350 A 
ATOM      7  O   UNL     1       0.003  -0.005   0.041  0.00  0.00    -0.244 OA
ATOM      8  N   UNL     1       1.136   1.886   0.023  0.00  0.00    -0.186 NA
ATOM      9  C   UNL     1      -2.415   4.173   0.067  0.00  0.00    +0.054 C 
ATOM     10  C   UNL     1      -1.839   5.536  -0.377  0.00  0.00    +0.011 C 
ATOM     11  C   UNL     1      -0.357   5.407   0.038  0.00  0.00    +0.040 C 
BRANCH   5  12
ATOM     12  C   UNL     1      -2.442   1.094   0.060  0.00  0.00    +0.158 C 
BRANCH  12  13
ATOM     13  C   UNL     1      -2.864   0.828   1.507  0.00  0.00    +0.138 C 
ATOM     14  C   UNL     1      -4.145  -0.043   1.542  0.00  0.00    +0.035 C 
ATOM     15  C   UNL     1      -4.015  -0.702   2.942  0.00  0.00    +0.031 C 
ATOM     16  C   UNL     1      -2.487  -0.873   3.083  0.00  0.00    +0.160 C 
ATOM     17  O   UNL     1      -1.864   0.051   2.184  0.00  0.00    -0.375 OA
ENDBRANCH  12  13
ENDBRANCH   5  12
ENDBRANCH   1   2
BRANCH   1  18
ATOM     18  C   UNL     1       3.832   2.697  -0.012  0.00  0.00    +0.171 C 
BRANCH  18  20
ATOM     19  N   UNL     1       6.282   2.359  -0.043  0.00  0.00    -0.285 N 
ATOM     20  C   UNL     1       5.245   3.219  -0.031  0.00  0.00    +0.227 C 
ATOM     21  O   UNL     1       5.449   4.415  -0.035  0.00  0.00    -0.275 OA
ATOM     22  H   UNL     1       6.121   1.405   0.028  0.00  0.00    +0.155 HD
BRANCH  19  28
ATOM     23  C   UNL     1       8.542   2.113  -0.862  0.00  0.00    +0.027 A 
ATOM     24  C   UNL     1       9.832   2.592  -0.979  0.00  0.00    +0.048 A 
ATOM     25  C   UNL     1      10.182   3.795  -0.385  0.00  0.00    +0.130 A 
ATOM     26  C   UNL     1       9.235   4.521   0.323  0.00  0.00    +0.048 A 
ATOM     27  C   UNL     1       7.943   4.046   0.437  0.00  0.00    +0.027 A 
ATOM     28  C   UNL     1       7.592   2.841  -0.158  0.00  0.00    +0.034 A 
BRANCH  25  29
ATOM     29  O   UNL     1      11.453   4.263  -0.495  0.00  0.00    -0.406 OA
BRANCH  29  30
ATOM     30  C   UNL     1      12.376   3.465  -1.238  0.00  0.00    +0.575 C 
ATOM     31  F   UNL     1      11.914   3.317  -2.551  0.00  0.00    -0.133 F 
ATOM     32  F   UNL     1      13.628   4.089  -1.252  0.00  0.00    -0.133 F 
ATOM     33  F   UNL     1      12.490   2.205  -0.640  0.00  0.00    -0.133 F 
ENDBRANCH  29  30
ENDBRANCH  25  29
ENDBRANCH  19  28
ENDBRANCH  18  20
ENDBRANCH   1  18
TORSDOF 8
