REMARK  Name = ZINC33870631
REMARK  7 active torsions:
REMARK  status: ('A' for Active; 'I' for Inactive)
REMARK    1  A    between atoms: C_5  and  C_7
REMARK    2  A    between atoms: N_15  and  C_18
REMARK    3  A    between atoms: C_22  and  N_24
REMARK    4  A    between atoms: C_27  and  C_29
REMARK    5  A    between atoms: C_27  and  C_39
REMARK    6  A    between atoms: C_29  and  C_30
REMARK    7  A    between atoms: C_33  and  N_36
REMARK                            x       y       z     vdW  Elec       q    Type
REMARK                         _______ _______ _______ _____ _____    ______ ____
ROOT
ATOM      1  C   UNL     1       1.250  -2.168  -0.023  0.00  0.00    +0.116 C 
ATOM      2  C   UNL     1       2.117  -2.681  -1.169  0.00  0.00    +0.113 C 
ATOM      3  C   UNL     1       2.330  -4.141  -0.615  0.00  0.00    +0.121 C 
ATOM      4  C   UNL     1       2.777  -4.846  -1.792  0.00  0.00    +0.232 C 
ATOM      5  O   UNL     1       3.567  -5.763  -1.847  0.00  0.00    -0.274 OA
ATOM      6  N   UNL     1       2.113  -4.250  -2.835  0.00  0.00    -0.210 N 
ATOM      7  C   UNL     1       1.513  -3.058  -2.485  0.00  0.00    +0.232 C 
ATOM      8  O   UNL     1       0.669  -2.445  -3.102  0.00  0.00    -0.274 OA
ATOM      9  C   UNL     1       2.721  -3.922   0.784  0.00  0.00    +0.138 C 
ATOM     10  N   UNL     1       1.949  -2.690   1.196  0.00  0.00    -0.292 NA
ATOM     11  H   UNL     1       2.571  -1.996   1.582  0.00  0.00    +0.124 HD
ENDROOT
BRANCH   1  16
ATOM     12  C   UNL     1      -0.017   1.382   0.010  0.00  0.00    +0.003 A 
ATOM     13  C   UNL     1       1.194   2.059   0.002  0.00  0.00    +0.020 A 
ATOM     14  C   UNL     1       2.370   1.334  -0.013  0.00  0.00    +0.111 A 
ATOM     15  N   UNL     1       2.350   0.015  -0.021  0.00  0.00    -0.258 NA
ATOM     16  C   UNL     1       1.218  -0.661  -0.014  0.00  0.00    +0.059 A 
ATOM     17  C   UNL     1       0.002  -0.004   0.002  0.00  0.00    +0.025 A 
ENDBRANCH   1  16
BRANCH   6  18
ATOM     18  C   UNL     1       2.059  -4.788  -4.129  0.00  0.00    +0.046 A 
ATOM     19  C   UNL     1       2.695  -5.990  -4.409  0.00  0.00    +0.024 A 
ATOM     20  C   UNL     1       2.639  -6.518  -5.684  0.00  0.00    +0.004 A 
ATOM     21  C   UNL     1       1.952  -5.850  -6.681  0.00  0.00    +0.033 A 
ATOM     22  C   UNL     1       1.318  -4.653  -6.405  0.00  0.00    +0.128 A 
ATOM     23  C   UNL     1       1.365  -4.123  -5.130  0.00  0.00    +0.056 A 
BRANCH  22  24
ATOM     24  N   UNL     1       0.584  -3.941  -7.475  0.00  0.00    +0.056 N 
ATOM     25  O   UNL     1       0.538  -4.407  -8.590  0.00  0.00    -0.126 OA
ATOM     26  O   UNL     1       0.029  -2.894  -7.234  0.00  0.00    -0.126 OA
ENDBRANCH  22  24
ENDBRANCH   6  18
BRANCH   9  27
ATOM     27  C   UNL     1       4.208  -3.699   0.884  0.00  0.00    +0.377 C 
ATOM     28  O   UNL     1       4.638  -2.655   1.343  0.00  0.00    -0.244 OA
ATOM     29  O   UNL     1       4.981  -4.563   0.507  0.00  0.00    -0.244 OA
ENDBRANCH   9  27
BRANCH   9  30
ATOM     30  C   UNL     1       2.299  -5.112   1.648  0.00  0.00    +0.069 C 
BRANCH  30  31
ATOM     31  C   UNL     1       2.599  -4.813   3.095  0.00  0.00    -0.045 A 
ATOM     32  C   UNL     1       3.829  -5.150   3.629  0.00  0.00    +0.006 A 
ATOM     33  C   UNL     1       4.104  -4.877   4.956  0.00  0.00    +0.033 A 
ATOM     34  C   UNL     1       3.151  -4.265   5.748  0.00  0.00    +0.126 A 
ATOM     35  C   UNL     1       1.921  -3.927   5.213  0.00  0.00    +0.033 A 
ATOM     36  C   UNL     1       1.648  -4.197   3.885  0.00  0.00    +0.006 A 
BRANCH  34  37
ATOM     37  N   UNL     1       3.445  -3.973   7.168  0.00  0.00    +0.056 N 
ATOM     38  O   UNL     1       4.520  -4.269   7.636  0.00  0.00    -0.126 OA
ATOM     39  O   UNL     1       2.611  -3.438   7.861  0.00  0.00    -0.126 OA
ENDBRANCH  34  37
ENDBRANCH  30  31
ENDBRANCH   9  30
TORSDOF 7
