REMARK  Name = ZINC25981215
REMARK  11 active torsions:
REMARK  status: ('A' for Active; 'I' for Inactive)
REMARK    1  A    between atoms: C_1  and  C_2
REMARK    2  A    between atoms: C_2  and  O_3
REMARK    3  A    between atoms: O_3  and  C_4
REMARK    4  A    between atoms: C_4  and  C_6
REMARK    5  A    between atoms: C_7  and  C_22
REMARK    6  A    between atoms: C_12  and  C_14
REMARK    7  A    between atoms: C_17  and  O_20
REMARK    8  A    between atoms: O_20  and  C_21
REMARK    9  A    between atoms: C_22  and  S_23
REMARK   10  A    between atoms: S_23  and  C_24
REMARK   11  A    between atoms: N_32  and  C_33
REMARK                            x       y       z     vdW  Elec       q    Type
REMARK                         _______ _______ _______ _____ _____    ______ ____
ROOT
ATOM      1  C   UNL     1      -0.583   1.627   1.302  0.00  0.00    +0.079 C 
ATOM      2  C   UNL     1      -1.727   2.341   1.234  0.00  0.00    +0.034 C 
ATOM      3  N   UNL     1      -2.313   2.619   0.033  0.00  0.00    -0.272 N 
ATOM      4  C   UNL     1      -1.819   2.219  -1.145  0.00  0.00    +0.304 C 
ATOM      5  O   UNL     1      -2.413   2.515  -2.164  0.00  0.00    -0.252 OA
ATOM      6  N   UNL     1      -0.685   1.498  -1.239  0.00  0.00    -0.288 N 
ATOM      7  C   UNL     1       0.026   1.145   0.001  0.00  0.00    +0.144 C 
ATOM      8  H   UNL     1      -3.245   3.203  -0.002  0.00  0.00    +0.156 HD
ATOM      9  H   UNL     1      -0.288   1.173  -2.212  0.00  0.00    +0.151 HD
ENDROOT
BRANCH   7  10
ATOM     10  C   UNL     1       1.424   1.700  -0.091  0.00  0.00    -0.022 A 
ATOM     11  C   UNL     1       1.628   2.979  -0.576  0.00  0.00    +0.009 A 
ATOM     12  C   UNL     1       2.908   3.493  -0.656  0.00  0.00    +0.046 A 
ATOM     13  C   UNL     1       3.990   2.720  -0.261  0.00  0.00    +0.120 A 
ATOM     14  C   UNL     1       3.784   1.435   0.220  0.00  0.00    +0.046 A 
ATOM     15  C   UNL     1       2.501   0.928   0.304  0.00  0.00    +0.009 A 
BRANCH  13  16
ATOM     16  O   UNL     1       5.251   3.220  -0.345  0.00  0.00    -0.495 OA
ATOM     17  C   UNL     1       5.389   4.550  -0.849  0.00  0.00    +0.277 C 
ENDBRANCH  13  16
ENDBRANCH   7  10
BRANCH   1  18
ATOM     18  C   UNL     1       0.026   1.339   2.546  0.00  0.00    +0.339 C 
ATOM     19  O   UNL     1      -0.106   0.238   3.048  0.00  0.00    -0.245 OA
BRANCH  18  20
ATOM     20  O   UNL     1       0.754   2.284   3.176  0.00  0.00    -0.462 OA
BRANCH  20  22
ATOM     21  C   UNL     1       2.122   3.115   4.987  0.00  0.00    +0.048 C 
ATOM     22  C   UNL     1       1.341   1.924   4.428  0.00  0.00    +0.229 C 
ENDBRANCH  20  22
ENDBRANCH  18  20
ENDBRANCH   1  18
BRANCH   2  23
ATOM     23  C   UNL     1      -2.366   2.839   2.505  0.00  0.00    +0.128 C 
BRANCH  23  24
ATOM     24  S   UNL     1      -2.061   4.615   2.678  0.00  0.00    -0.082 S 
BRANCH  24  25
ATOM     25  C   UNL     1      -2.894   4.921   4.200  0.00  0.00    +0.174 A 
ATOM     26  N   UNL     1      -3.528   4.018   4.907  0.00  0.00    -0.222 NA
ATOM     27  C   UNL     1      -4.051   4.595   6.021  0.00  0.00    +0.090 A 
ATOM     28  C   UNL     1      -4.800   4.105   7.093  0.00  0.00    +0.030 A 
ATOM     29  C   UNL     1      -5.199   4.960   8.096  0.00  0.00    +0.002 A 
ATOM     30  C   UNL     1      -4.862   6.304   8.050  0.00  0.00    +0.002 A 
ATOM     31  C   UNL     1      -4.123   6.804   6.997  0.00  0.00    +0.028 A 
ATOM     32  C   UNL     1      -3.712   5.957   5.979  0.00  0.00    +0.074 A 
ATOM     33  N   UNL     1      -2.981   6.138   4.817  0.00  0.00    -0.262 N 
BRANCH  33  34
ATOM     34  C   UNL     1      -2.406   7.397   4.338  0.00  0.00    +0.450 C 
ATOM     35  F   UNL     1      -3.428   8.332   4.142  0.00  0.00    -0.185 F 
ATOM     36  F   UNL     1      -1.502   7.888   5.287  0.00  0.00    -0.185 F 
ENDBRANCH  33  34
ENDBRANCH  24  25
ENDBRANCH  23  24
ENDBRANCH   2  23
TORSDOF 9
