REMARK  Name = ZINC36735202
REMARK  12 active torsions:
REMARK  status: ('A' for Active; 'I' for Inactive)
REMARK    1  A    between atoms: C_1  and  C_2
REMARK    2  A    between atoms: C_5  and  N_8
REMARK    3  A    between atoms: C_9  and  C_33
REMARK    4  A    between atoms: C_10  and  N_14
REMARK    5  A    between atoms: C_11  and  C_13
REMARK    6  A    between atoms: C_15  and  C_17
REMARK    7  A    between atoms: C_17  and  O_18
REMARK    8  A    between atoms: O_18  and  C_19
REMARK    9  A    between atoms: C_19  and  C_21
REMARK   10  A    between atoms: C_22  and  N_32
REMARK   11  A    between atoms: C_24  and  C_31
REMARK   12  A    between atoms: C_26  and  C_30
REMARK                            x       y       z     vdW  Elec       q    Type
REMARK                         _______ _______ _______ _____ _____    ______ ____
ROOT
ATOM      1  C   UNL     1       2.327 -11.340   1.582  0.00  0.00    +0.328 C 
ENDROOT
BRANCH   1   3
ATOM      2  N   UNL     1       2.580  -8.939   1.043  0.00  0.00    -0.280 N 
ATOM      3  C   UNL     1       1.853 -10.068   0.927  0.00  0.00    +0.255 C 
ATOM      4  O   UNL     1       0.817 -10.060   0.296  0.00  0.00    -0.272 OA
ATOM      5  H   UNL     1       3.455  -8.966   1.462  0.00  0.00    +0.155 HD
BRANCH   2   8
ATOM      6  N   UNL     1       1.476  -5.616   0.404  0.00  0.00    -0.235 N 
ATOM      7  C   UNL     1       2.047  -6.540   1.224  0.00  0.00    +0.063 A 
ATOM      8  C   UNL     1       2.071  -7.721   0.555  0.00  0.00    +0.078 A 
ATOM      9  C   UNL     1       1.499  -7.511  -0.709  0.00  0.00    +0.082 A 
ATOM     10  N   UNL     1       1.139  -6.256  -0.795  0.00  0.00    -0.170 NA
ATOM     11  C   UNL     1       1.323  -8.555  -1.781  0.00  0.00    +0.069 C 
ATOM     12  C   UNL     1       2.560  -6.296   2.620  0.00  0.00    +0.068 C 
BRANCH   6  17
ATOM     13  C   UNL     1       0.593  -0.146   1.634  0.00  0.00    +0.044 C 
ATOM     14  C   UNL     1       0.828  -1.598   1.307  0.00  0.00    -0.050 A 
ATOM     15  C   UNL     1       1.151  -1.972   0.015  0.00  0.00    +0.005 A 
ATOM     16  C   UNL     1       1.366  -3.302  -0.287  0.00  0.00    +0.028 A 
ATOM     17  C   UNL     1       1.259  -4.265   0.708  0.00  0.00    +0.066 A 
ATOM     18  C   UNL     1       0.935  -3.887   2.004  0.00  0.00    +0.028 A 
ATOM     19  C   UNL     1       0.726  -2.554   2.301  0.00  0.00    +0.005 A 
ENDBRANCH   6  17
ENDBRANCH   2   8
ENDBRANCH   1   3
BRANCH   1  20
ATOM     20  O   UNL     1       1.393 -12.388   1.317  0.00  0.00    -0.451 OA
BRANCH  20  21
ATOM     21  C   UNL     1       1.671 -13.602   1.837  0.00  0.00    +0.348 C 
ATOM     22  O   UNL     1       2.681 -13.765   2.496  0.00  0.00    -0.244 OA
BRANCH  21  23
ATOM     23  C   UNL     1       0.790 -14.686   1.614  0.00  0.00    +0.119 A 
ATOM     24  C   UNL     1       0.901 -15.985   2.063  0.00  0.00    +0.055 A 
ATOM     25  C   UNL     1      -0.143 -16.931   1.702  0.00  0.00    +0.030 A 
ATOM     26  C   UNL     1      -0.248 -18.304   2.040  0.00  0.00    -0.037 A 
ATOM     27  C   UNL     1      -1.330 -19.021   1.587  0.00  0.00    +0.025 A 
ATOM     28  C   UNL     1      -2.303 -18.408   0.812  0.00  0.00    +0.014 A 
ATOM     29  N   UNL     1      -2.202 -17.131   0.499  0.00  0.00    -0.353 N 
ATOM     30  C   UNL     1      -1.186 -16.402   0.909  0.00  0.00    +0.088 A 
ATOM     31  S   UNL     1      -0.736 -14.698   0.693  0.00  0.00    -0.062 S 
ATOM     32  C   UNL     1      -3.484 -19.206   0.323  0.00  0.00    +0.063 C 
ATOM     33  C   UNL     1       0.811 -18.968   2.882  0.00  0.00    +0.044 C 
ATOM     34  H   UNL     1      -2.892 -16.719  -0.045  0.00  0.00    +0.166 HD
BRANCH  24  35
ATOM     35  N   UNL     1       1.981 -16.379   2.839  0.00  0.00    -0.356 N 
ATOM     36  H   UNL     1       2.807 -15.870   2.814  0.00  0.00    +0.142 HD
ATOM     37  H   UNL     1       1.911 -17.163   3.405  0.00  0.00    +0.142 HD
ENDBRANCH  24  35
ENDBRANCH  21  23
ENDBRANCH  20  21
ENDBRANCH   1  20
TORSDOF 7
