REMARK  Name = ZINC36736916
REMARK  5 active torsions:
REMARK  status: ('A' for Active; 'I' for Inactive)
REMARK    1  A    between atoms: C_1  and  C_2
REMARK    2  A    between atoms: C_5  and  N_20
REMARK    3  A    between atoms: C_6  and  N_9
REMARK    4  A    between atoms: C_7  and  C_8
REMARK    5  A    between atoms: C_10  and  C_12
REMARK                            x       y       z     vdW  Elec       q    Type
REMARK                         _______ _______ _______ _____ _____    ______ ____
ROOT
ATOM      1  N   UNL     1       0.328  -3.092   2.179  0.00  0.00    -0.280 N 
ATOM      2  C   UNL     1       0.106  -2.639   3.429  0.00  0.00    +0.249 C 
ATOM      3  O   UNL     1      -0.140  -1.463   3.615  0.00  0.00    -0.270 OA
ATOM      4  H   UNL     1       0.581  -4.018   2.037  0.00  0.00    +0.155 HD
ENDROOT
BRANCH   1  10
ATOM      5  C   UNL     1       1.911   0.826  -0.334  0.00  0.00    +0.044 C 
ATOM      6  C   UNL     1       0.946  -0.319  -0.157  0.00  0.00    -0.046 A 
ATOM      7  C   UNL     1      -0.070  -0.512  -1.075  0.00  0.00    +0.005 A 
ATOM      8  C   UNL     1      -0.958  -1.560  -0.919  0.00  0.00    +0.025 A 
ATOM      9  C   UNL     1      -0.831  -2.421   0.161  0.00  0.00    +0.046 A 
ATOM     10  C   UNL     1       0.194  -2.226   1.086  0.00  0.00    +0.058 A 
ATOM     11  C   UNL     1       1.084  -1.176   0.918  0.00  0.00    -0.025 A 
ATOM     12  C   UNL     1       2.197  -0.964   1.913  0.00  0.00    +0.046 C 
BRANCH   9  13
ATOM     13  N   UNL     1      -1.728  -3.482   0.321  0.00  0.00    -0.357 N 
ATOM     14  H   UNL     1      -2.382  -3.674  -0.370  0.00  0.00    +0.142 HD
ATOM     15  H   UNL     1      -1.697  -4.027   1.123  0.00  0.00    +0.142 HD
ENDBRANCH   9  13
ENDBRANCH   1  10
BRANCH   2  16
ATOM     16  C   UNL     1       0.161  -3.572   4.574  0.00  0.00    +0.054 A 
ATOM     17  C   UNL     1       0.448  -4.922   4.364  0.00  0.00    +0.052 A 
ATOM     18  C   UNL     1       0.498  -5.789   5.439  0.00  0.00    +0.124 A 
ATOM     19  C   UNL     1       0.263  -5.320   6.722  0.00  0.00    +0.039 A 
ATOM     20  C   UNL     1      -0.022  -3.984   6.935  0.00  0.00    +0.019 A 
ATOM     21  C   UNL     1      -0.069  -3.106   5.870  0.00  0.00    +0.030 A 
ATOM     22 BR   UNL     1      -0.452  -1.278   6.165  0.00  0.00    -0.050 Br
ATOM     23  F   UNL     1       0.775  -7.096   5.239  0.00  0.00    -0.205 F 
ENDBRANCH   2  16
TORSDOF 3
