REMARK  Name = ZINC12562989
REMARK  2 active torsions:
REMARK  status: ('A' for Active; 'I' for Inactive)
REMARK    1  A    between atoms: C_6  and  N_7
REMARK    2  A    between atoms: C_9  and  C_19
REMARK                            x       y       z     vdW  Elec       q    Type
REMARK                         _______ _______ _______ _____ _____    ______ ____
ROOT
ATOM      1  N   UNL     1      -2.686   0.003  -0.503  0.00  0.00    -0.213 NA
ATOM      2  C   UNL     1      -2.589   1.210   0.010  0.00  0.00    +0.233 A 
ATOM      3  C   UNL     1      -1.300   1.931   0.020  0.00  0.00    +0.099 A 
ATOM      4  C   UNL     1      -1.352   3.319   0.021  0.00  0.00    +0.030 A 
ATOM      5  C   UNL     1      -2.677   3.943   0.017  0.00  0.00    +0.020 A 
ATOM      6  C   UNL     1      -2.825   5.309  -0.251  0.00  0.00    +0.031 A 
ATOM      7  C   UNL     1      -4.083   5.870  -0.252  0.00  0.00    +0.042 A 
ATOM      8  C   UNL     1      -5.200   5.089   0.009  0.00  0.00    +0.023 A 
ATOM      9  C   UNL     1      -5.070   3.741   0.276  0.00  0.00    +0.048 A 
ATOM     10  C   UNL     1      -3.813   3.155   0.285  0.00  0.00    +0.138 A 
ATOM     11  O   UNL     1      -3.669   1.834   0.551  0.00  0.00    -0.437 OA
ATOM     12 CL   UNL     1      -4.272   7.564  -0.583  0.00  0.00    -0.084 Cl
ENDROOT
BRANCH   1  18
ATOM     13  C   UNL     1      -4.137  -1.446   0.737  0.00  0.00    +0.029 A 
ATOM     14  C   UNL     1      -5.327  -2.136   0.832  0.00  0.00    +0.022 A 
ATOM     15  C   UNL     1      -6.243  -2.091  -0.206  0.00  0.00    +0.041 A 
ATOM     16  C   UNL     1      -5.973  -1.347  -1.343  0.00  0.00    +0.022 A 
ATOM     17  C   UNL     1      -4.790  -0.647  -1.448  0.00  0.00    +0.029 A 
ATOM     18  C   UNL     1      -3.862  -0.689  -0.405  0.00  0.00    +0.068 A 
ATOM     19 CL   UNL     1      -7.735  -2.969  -0.082  0.00  0.00    -0.084 Cl
ENDBRANCH   1  18
BRANCH   3  20
ATOM     20  C   UNL     1      -0.016   1.210   0.023  0.00  0.00    +0.247 C 
ATOM     21  O   UNL     1      -0.002  -0.006   0.022  0.00  0.00    -0.270 OA
ATOM     22  N   UNL     1       1.143   1.897   0.021  0.00  0.00    -0.325 N 
ATOM     23  H   UNL     1       1.989   1.422   0.019  0.00  0.00    +0.145 HD
ATOM     24  H   UNL     1       1.131   2.867   0.022  0.00  0.00    +0.145 HD
ENDBRANCH   3  20
TORSDOF 2
