REMARK  Name = ZINC13636986
REMARK  3 active torsions:
REMARK  status: ('A' for Active; 'I' for Inactive)
REMARK    1  A    between atoms: C_3  and  O_27
REMARK    2  A    between atoms: C_6  and  C_7
REMARK    3  A    between atoms: C_17  and  N_24
REMARK                            x       y       z     vdW  Elec       q    Type
REMARK                         _______ _______ _______ _____ _____    ______ ____
ROOT
ATOM      1  C   UNL     1      -3.666   1.970   0.347  0.00  0.00    +0.105 C 
ATOM      2  C   UNL     1      -3.582   3.240  -0.474  0.00  0.00    +0.029 C 
ATOM      3  C   UNL     1      -4.748   4.232  -0.387  0.00  0.00    +0.033 C 
ATOM      4  C   UNL     1      -4.036   5.561  -0.653  0.00  0.00    -0.030 C 
ATOM      5  C   UNL     1      -2.760   5.471  -0.295  0.00  0.00    -0.023 C 
ATOM      6  C   UNL     1      -2.521   4.117   0.262  0.00  0.00    +0.051 C 
ATOM      7  C   UNL     1      -1.225   3.416   0.128  0.00  0.00    +0.014 A 
ATOM      8  C   UNL     1      -0.034   4.107   0.036  0.00  0.00    +0.132 A 
ATOM      9  C   UNL     1       1.165   3.428  -0.070  0.00  0.00    +0.036 A 
ATOM     10  C   UNL     1       1.169   2.045  -0.079  0.00  0.00    +0.042 A 
ATOM     11  C   UNL     1      -0.016   1.347   0.009  0.00  0.00    +0.145 A 
ATOM     12  C   UNL     1      -1.238   2.020   0.101  0.00  0.00    +0.069 A 
ATOM     13  N   UNL     1      -2.398   1.248   0.155  0.00  0.00    -0.334 N 
ATOM     14  F   UNL     1       0.002  -0.004   0.001  0.00  0.00    -0.204 F 
ATOM     15  H   UNL     1      -2.453   0.627  -0.639  0.00  0.00    +0.147 HD
ENDROOT
BRANCH   1  21
ATOM     16  C   UNL     1      -4.676   0.343  -1.264  0.00  0.00    +0.009 A 
ATOM     17  C   UNL     1      -5.728  -0.438  -1.701  0.00  0.00    +0.046 A 
ATOM     18  C   UNL     1      -6.931  -0.429  -1.011  0.00  0.00    +0.117 A 
ATOM     19  C   UNL     1      -7.072   0.360   0.121  0.00  0.00    +0.046 A 
ATOM     20  C   UNL     1      -6.016   1.135   0.558  0.00  0.00    +0.009 A 
ATOM     21  C   UNL     1      -4.817   1.124  -0.132  0.00  0.00    -0.027 A 
BRANCH  18  22
ATOM     22  O   UNL     1      -7.969  -1.193  -1.442  0.00  0.00    -0.507 OA
ATOM     23  H   UNL     1      -8.553  -0.744  -2.070  0.00  0.00    +0.292 HD
ENDBRANCH  18  22
ENDBRANCH   1  21
BRANCH   8  24
ATOM     24  N   UNL     1      -0.041   5.587   0.050  0.00  0.00    +0.057 N 
ATOM     25  O   UNL     1       0.548   6.207  -0.818  0.00  0.00    -0.126 OA
ATOM     26  O   UNL     1      -0.635   6.185   0.929  0.00  0.00    -0.126 OA
ENDBRANCH   8  24
TORSDOF 3
