REMARK  Name = ZINC09349848
REMARK  7 active torsions:
REMARK  status: ('A' for Active; 'I' for Inactive)
REMARK    1  A    between atoms: C_1  and  C_2
REMARK    2  A    between atoms: C_4  and  C_34
REMARK    3  A    between atoms: C_8  and  C_28
REMARK    4  A    between atoms: C_10  and  S_11
REMARK    5  A    between atoms: S_11  and  C_12
REMARK    6  A    between atoms: C_12  and  C_13
REMARK    7  A    between atoms: N_15  and  N_16
REMARK                            x       y       z     vdW  Elec       q    Type
REMARK                         _______ _______ _______ _____ _____    ______ ____
ROOT
ATOM      1  S   UNL     1      -1.332   1.107  -1.590  0.00  0.00    -0.077 S 
ENDROOT
BRANCH   1  11
ATOM      2  C   UNL     1       1.917   0.173  -7.080  0.00  0.00    +0.046 C 
ATOM      3  C   UNL     1       0.840   0.840  -6.263  0.00  0.00    -0.021 A 
ATOM      4  C   UNL     1       0.018   1.770  -6.828  0.00  0.00    +0.030 A 
ATOM      5  C   UNL     1      -0.983   2.386  -6.060  0.00  0.00    +0.059 A 
ATOM      6  N   UNL     1      -1.151   2.087  -4.801  0.00  0.00    -0.169 NA
ATOM      7  N   UNL     1      -0.335   1.136  -4.180  0.00  0.00    -0.206 N 
ATOM      8  C   UNL     1       0.667   0.513  -4.910  0.00  0.00    +0.097 A 
ATOM      9  C   UNL     1       1.302  -0.362  -4.035  0.00  0.00    +0.100 A 
ATOM     10  N   UNL     1       0.694  -0.246  -2.841  0.00  0.00    -0.220 NA
ATOM     11  C   UNL     1      -0.274   0.640  -2.918  0.00  0.00    +0.191 A 
ATOM     12  C   UNL     1      -1.881   3.411  -6.703  0.00  0.00    +0.067 C 
BRANCH   9  13
ATOM     13  C   UNL     1       2.436  -1.254  -4.358  0.00  0.00    +0.003 A 
ATOM     14  C   UNL     1       2.408  -2.033  -5.517  0.00  0.00    +0.010 A 
ATOM     15  C   UNL     1       3.471  -2.860  -5.814  0.00  0.00    +0.001 A 
ATOM     16  C   UNL     1       4.559  -2.927  -4.962  0.00  0.00    +0.000 A 
ATOM     17  C   UNL     1       4.591  -2.162  -3.809  0.00  0.00    +0.001 A 
ATOM     18  C   UNL     1       3.537  -1.327  -3.502  0.00  0.00    +0.010 A 
ENDBRANCH   9  13
ENDBRANCH   1  11
BRANCH   1  19
ATOM     19  C   UNL     1      -0.756   0.101  -0.195  0.00  0.00    +0.174 C 
BRANCH  19  20
ATOM     20  C   UNL     1      -1.589   0.407   1.023  0.00  0.00    +0.240 C 
ATOM     21  O   UNL     1      -2.483   1.224   0.957  0.00  0.00    -0.273 OA
ATOM     22  N   UNL     1      -1.341  -0.227   2.186  0.00  0.00    -0.223 N 
ATOM     23  H   UNL     1      -0.626  -0.880   2.239  0.00  0.00    +0.174 HD
BRANCH  22  24
ATOM     24  N   UNL     1      -2.115   0.058   3.319  0.00  0.00    -0.137 N 
ATOM     25  C   UNL     1      -3.072  -0.758   3.808  0.00  0.00    +0.263 C 
ATOM     26  O   UNL     1      -3.412  -1.836   3.369  0.00  0.00    -0.271 OA
ATOM     27  C   UNL     1      -3.630  -0.046   5.019  0.00  0.00    +0.114 C 
ATOM     28  C   UNL     1      -3.406  -0.880   6.275  0.00  0.00    +0.035 C 
ATOM     29  C   UNL     1      -3.952  -0.130   7.493  0.00  0.00    +0.003 C 
ATOM     30  C   UNL     1      -5.445   0.139   7.298  0.00  0.00    +0.000 C 
ATOM     31  C   UNL     1      -5.651   0.997   6.048  0.00  0.00    +0.003 C 
ATOM     32  C   UNL     1      -5.112   0.251   4.824  0.00  0.00    +0.035 C 
ATOM     33  N   UNL     1      -2.858   1.202   5.085  0.00  0.00    -0.284 N 
ATOM     34  C   UNL     1      -1.993   1.170   4.053  0.00  0.00    +0.326 C 
ATOM     35  O   UNL     1      -1.194   2.054   3.814  0.00  0.00    -0.251 OA
ATOM     36  H   UNL     1      -2.951   1.908   5.744  0.00  0.00    +0.151 HD
ENDBRANCH  22  24
ENDBRANCH  19  20
ENDBRANCH   1  19
TORSDOF 5
