REMARK  Name = ZINC20836605
REMARK  8 active torsions:
REMARK  status: ('A' for Active; 'I' for Inactive)
REMARK    1  A    between atoms: C_1  and  C_2
REMARK    2  A    between atoms: N_5  and  S_8
REMARK    3  A    between atoms: S_8  and  C_11
REMARK    4  A    between atoms: C_14  and  N_17
REMARK    5  A    between atoms: C_18  and  C_20
REMARK    6  A    between atoms: C_20  and  S_21
REMARK    7  A    between atoms: S_21  and  C_22
REMARK    8  A    between atoms: N_27  and  N_28
REMARK                            x       y       z     vdW  Elec       q    Type
REMARK                         _______ _______ _______ _____ _____    ______ ____
ROOT
ATOM      1  N   UNL     1       1.237  -2.079  -0.020  0.00  0.00    -0.285 N 
ATOM      2  C   UNL     1       0.186  -2.768  -0.507  0.00  0.00    +0.227 C 
ATOM      3  O   UNL     1      -0.741  -2.177  -1.021  0.00  0.00    -0.275 OA
ATOM      4  H   UNL     1       2.115  -2.617   0.367  0.00  0.00    +0.155 HD
ENDROOT
BRANCH   1   8
ATOM      5  C   UNL     1       1.163   2.086   0.018  0.00  0.00    +0.106 A 
ATOM      6  C   UNL     1      -0.008   1.373   0.198  0.00  0.00    +0.030 A 
ATOM      7  C   UNL     1       0.013  -0.008   0.186  0.00  0.00    +0.025 A 
ATOM      8  C   UNL     1       1.212  -0.681  -0.008  0.00  0.00    +0.034 A 
ATOM      9  C   UNL     1       2.387   0.038  -0.189  0.00  0.00    +0.025 A 
ATOM     10  C   UNL     1       2.359   1.419  -0.175  0.00  0.00    +0.030 A 
BRANCH   5  11
ATOM     11  S   UNL     1       1.132   3.847   0.034  0.00  0.00    +0.061 S 
ATOM     12  O   UNL     1       2.269   4.281  -0.700  0.00  0.00    -0.153 OA
ATOM     13  O   UNL     1      -0.191   4.233  -0.312  0.00  0.00    -0.153 OA
BRANCH  11  18
ATOM     14  C   UNL     1       1.753   7.500   4.410  0.00  0.00    +0.007 C 
ATOM     15  C   UNL     1       1.679   6.110   3.775  0.00  0.00    -0.012 C 
ATOM     16  C   UNL     1       2.782   5.972   2.722  0.00  0.00    +0.020 C 
ATOM     17  C   UNL     1       2.727   4.567   2.113  0.00  0.00    +0.110 C 
ATOM     18  N   UNL     1       1.371   4.327   1.601  0.00  0.00    -0.177 NA
ATOM     19  C   UNL     1       0.229   4.526   2.505  0.00  0.00    +0.110 C 
ATOM     20  C   UNL     1       0.313   5.925   3.112  0.00  0.00    +0.020 C 
ENDBRANCH  11  18
ENDBRANCH   5  11
ENDBRANCH   1   8
BRANCH   2  21
ATOM     21  C   UNL     1       0.160  -4.272  -0.412  0.00  0.00    +0.173 C 
BRANCH  21  22
ATOM     22  S   UNL     1      -1.374  -4.898  -1.149  0.00  0.00    -0.075 S 
BRANCH  22  23
ATOM     23  C   UNL     1      -1.254  -6.646  -0.963  0.00  0.00    +0.211 A 
ATOM     24  N   UNL     1      -2.181  -7.563  -1.370  0.00  0.00    -0.186 NA
ATOM     25  C   UNL     1      -1.717  -8.807  -1.045  0.00  0.00    +0.232 A 
ATOM     26  N   UNL     1      -0.552  -8.665  -0.462  0.00  0.00    -0.245 N 
ATOM     27  N   UNL     1      -0.255  -7.296  -0.414  0.00  0.00    -0.144 NA
ATOM     28  N   UNL     1      -2.365 -10.010  -1.290  0.00  0.00    -0.205 N 
ATOM     29  H   UNL     1      -3.345 -10.014  -1.789  0.00  0.00    +0.177 HD
ATOM     30  H   UNL     1       0.001  -9.550  -0.113  0.00  0.00    +0.192 HD
BRANCH  28  31
ATOM     31  N   UNL     1      -1.771 -11.218  -0.901  0.00  0.00    -0.189 NA
ATOM     32  C   UNL     1      -2.369 -12.327  -1.127  0.00  0.00    +0.037 C 
ATOM     33  C   UNL     1      -3.718 -12.500  -1.795  0.00  0.00    +0.052 C 
ATOM     34  C   UNL     1      -4.008 -14.015  -1.831  0.00  0.00    +0.006 C 
ATOM     35  C   UNL     1      -3.140 -14.581  -0.679  0.00  0.00    +0.006 C 
ATOM     36  C   UNL     1      -1.861 -13.712  -0.770  0.00  0.00    +0.052 C 
ENDBRANCH  28  31
ENDBRANCH  22  23
ENDBRANCH  21  22
ENDBRANCH   2  21
TORSDOF 7
