REMARK  Name = ZINC44916699
REMARK  2 active torsions:
REMARK  status: ('A' for Active; 'I' for Inactive)
REMARK    1  A    between atoms: C_5  and  C_6
REMARK    2  A    between atoms: C_12  and  C_14
REMARK                            x       y       z     vdW  Elec       q    Type
REMARK                         _______ _______ _______ _____ _____    ______ ____
ROOT
ATOM      1  C   UNL     1      -1.128  -0.947   0.008  0.00  0.00    +0.192 A 
ATOM      2  N   UNL     1      -2.380  -0.656   0.291  0.00  0.00    -0.126 NA
ATOM      3  N   UNL     1      -3.106  -1.716   0.200  0.00  0.00    -0.120 NA
ATOM      4  C   UNL     1      -2.364  -2.727  -0.141  0.00  0.00    +0.219 A 
ATOM      5  N   UNL     1      -1.066  -2.302  -0.290  0.00  0.00    -0.185 N 
ATOM      6  N   UNL     1      -0.137  -3.264  -0.663  0.00  0.00    -0.155 NA
ATOM      7  C   UNL     1      -0.493  -4.508  -0.862  0.00  0.00    +0.133 A 
ATOM      8  S   UNL     1      -2.245  -4.457  -0.520  0.00  0.00    -0.026 S 
ENDROOT
BRANCH   1  13
ATOM      9  C   UNL     1      -0.017   1.368   0.010  0.00  0.00    +0.020 A 
ATOM     10  C   UNL     1       1.183   2.045   0.002  0.00  0.00    +0.023 A 
ATOM     11  C   UNL     1       2.343   1.337  -0.013  0.00  0.00    +0.056 A 
ATOM     12  S   UNL     1       1.754  -0.348  -0.017  0.00  0.00    -0.078 S 
ATOM     13  C   UNL     1       0.002  -0.004   0.002  0.00  0.00    +0.059 A 
ATOM     14 BR   UNL     1       4.123   1.974  -0.028  0.00  0.00    -0.043 Br
ENDBRANCH   1  13
BRANCH   7  15
ATOM     15  C   UNL     1       0.344  -5.661  -1.258  0.00  0.00    +0.016 A 
ATOM     16  C   UNL     1      -0.217  -6.928  -1.430  0.00  0.00    +0.018 A 
ATOM     17  C   UNL     1       0.632  -7.916  -1.793  0.00  0.00    +0.046 A 
ATOM     18  S   UNL     1       2.193  -7.061  -1.887  0.00  0.00    -0.104 S 
ATOM     19  C   UNL     1       1.682  -5.516  -1.471  0.00  0.00    +0.055 A 
ENDBRANCH   7  15
TORSDOF 2
