REMARK  Name = ZINC04029155
REMARK  11 active torsions:
REMARK  status: ('A' for Active; 'I' for Inactive)
REMARK    1  A    between atoms: C_1  and  C_2
REMARK    2  A    between atoms: C_2  and  C_5
REMARK    3  A    between atoms: N_3  and  O_4
REMARK    4  A    between atoms: C_5  and  O_34
REMARK    5  A    between atoms: C_6  and  O_33
REMARK    6  A    between atoms: C_11  and  C_32
REMARK    7  A    between atoms: C_21  and  C_31
REMARK    8  A    between atoms: C_24  and  O_27
REMARK    9  A    between atoms: O_27  and  C_28
REMARK   10  A    between atoms: C_28  and  C_30
REMARK   11  A    between atoms: O_34  and  C_35
REMARK                            x       y       z     vdW  Elec       q    Type
REMARK                         _______ _______ _______ _____ _____    ______ ____
ROOT
ATOM      1  C   UNL     1      -0.258  -0.259  -1.657  0.00  0.00    +0.141 C 
ATOM      2  C   UNL     1      -1.547   0.315  -2.282  0.00  0.00    +0.153 C 
ATOM      3  C   UNL     1      -2.426  -0.897  -2.661  0.00  0.00    +0.039 C 
ATOM      4  C   UNL     1      -1.933  -2.028  -1.709  0.00  0.00    +0.004 C 
ATOM      5  C   UNL     1      -0.416  -1.784  -1.698  0.00  0.00    +0.008 C 
ATOM      6  C   UNL     1       0.280  -2.474  -0.547  0.00  0.00    +0.010 C 
ATOM      7  C   UNL     1      -0.358  -2.083   0.784  0.00  0.00    +0.005 C 
ATOM      8  C   UNL     1      -1.833  -2.506   0.770  0.00  0.00    +0.003 C 
ATOM      9  C   UNL     1      -2.569  -1.751  -0.343  0.00  0.00    +0.000 C 
ATOM     10  C   UNL     1      -4.025  -2.238  -0.398  0.00  0.00    +0.031 C 
ATOM     11  C   UNL     1      -4.649  -2.145   0.962  0.00  0.00    -0.027 C 
ATOM     12  C   UNL     1      -3.968  -2.114   2.062  0.00  0.00    -0.064 C 
ATOM     13  C   UNL     1      -2.441  -2.158   2.124  0.00  0.00    -0.008 C 
ATOM     14  C   UNL     1      -1.894  -0.831   2.645  0.00  0.00    +0.015 C 
ATOM     15  C   UNL     1      -2.920  -0.166   3.562  0.00  0.00    +0.046 C 
ATOM     16  C   UNL     1      -3.706  -1.208   4.355  0.00  0.00    +0.180 C 
ATOM     17  C   UNL     1      -4.693  -1.992   3.393  0.00  0.00    +0.075 C 
ATOM     18  C   UNL     1      -2.042  -3.247   3.122  0.00  0.00    +0.016 C 
ATOM     19  C   UNL     1       0.181  -2.311  -3.005  0.00  0.00    +0.015 C 
ENDROOT
BRANCH   1  21
ATOM     20  C   UNL     1       1.217   0.120   0.463  0.00  0.00    +0.067 C 
ATOM     21  C   UNL     1      -0.117   0.211  -0.233  0.00  0.00    +0.089 C 
ATOM     22  N   UNL     1      -1.131   0.687   0.387  0.00  0.00    -0.094 NA
BRANCH  22  23
ATOM     23  O   UNL     1      -0.950   1.401   1.597  0.00  0.00    -0.409 OA
ATOM     24  H   UNL     1      -1.762   1.789   1.950  0.00  0.00    +0.328 HD
ENDBRANCH  22  23
ENDBRANCH   1  21
BRANCH   2  25
ATOM     25  O   UNL     1      -2.228   1.137  -1.332  0.00  0.00    -0.389 OA
ATOM     26  H   UNL     1      -3.047   1.528  -1.666  0.00  0.00    +0.210 HD
ENDBRANCH   2  25
BRANCH   1  27
ATOM     27  O   UNL     1       0.881   0.140  -2.422  0.00  0.00    -0.368 OA
ATOM     28  C   UNL     1       1.135   1.546  -2.398  0.00  0.00    +0.195 C 
ENDBRANCH   1  27
BRANCH  16  29
ATOM     29  O   UNL     1      -2.798  -2.135   4.954  0.00  0.00    -0.461 OA
BRANCH  29  30
ATOM     30  C   UNL     1      -3.176  -2.696   6.112  0.00  0.00    +0.304 C 
ATOM     31  O   UNL     1      -4.243  -2.411   6.602  0.00  0.00    -0.251 OA
ATOM     32  C   UNL     1      -2.271  -3.683   6.803  0.00  0.00    +0.136 C 
ENDBRANCH  29  30
ENDBRANCH  16  29
TORSDOF 6
