REMARK  Name = ZINC39711161
REMARK  14 active torsions:
REMARK  status: ('A' for Active; 'I' for Inactive)
REMARK    1  A    between atoms: C_1  and  C_2
REMARK    2  A    between atoms: C_2  and  C_3
REMARK    3  A    between atoms: C_3  and  C_4
REMARK    4  A    between atoms: C_3  and  C_5
REMARK    5  A    between atoms: C_3  and  N_6
REMARK    6  A    between atoms: C_7  and  C_12
REMARK    7  A    between atoms: C_12  and  C_14
REMARK    8  A    between atoms: C_12  and  N_28
REMARK    9  A    between atoms: C_18  and  C_27
REMARK   10  A    between atoms: C_20  and  C_26
REMARK   11  A    between atoms: N_28  and  C_29
REMARK   12  A    between atoms: N_28  and  C_36
REMARK   13  A    between atoms: C_29  and  C_30
REMARK   14  A    between atoms: C_36  and  C_37
REMARK                            x       y       z     vdW  Elec       q    Type
REMARK                         _______ _______ _______ _____ _____    ______ ____
ROOT
ATOM      1  C   UNL     1       0.470  -3.897  -3.328  0.00  0.00    -0.010 C 
ENDROOT
BRANCH   1   2
ATOM      2  C   UNL     1      -1.012  -4.187  -3.078  0.00  0.00    +0.088 C 
ATOM      3  C   UNL     1      -1.769  -2.880  -3.202  0.00  0.00    -0.006 C 
ATOM      4  C   UNL     1      -2.495  -2.474  -2.122  0.00  0.00    -0.004 A 
ATOM      5  C   UNL     1      -3.256  -1.224  -2.156  0.00  0.00    -0.042 A 
ATOM      6  C   UNL     1      -3.965  -0.859  -1.057  0.00  0.00    +0.007 A 
ATOM      7  C   UNL     1      -3.979  -1.648   0.094  0.00  0.00    -0.048 A 
ATOM      8  C   UNL     1      -3.295  -2.817   0.189  0.00  0.00    +0.027 A 
ATOM      9  C   UNL     1      -2.529  -3.287  -0.894  0.00  0.00    +0.041 A 
ATOM     10  N   UNL     1      -1.862  -4.437  -0.790  0.00  0.00    -0.285 N 
ATOM     11  C   UNL     1      -1.123  -4.933  -1.767  0.00  0.00    +0.223 C 
ATOM     12  O   UNL     1      -0.537  -5.987  -1.612  0.00  0.00    -0.275 OA
ATOM     13  C   UNL     1      -4.786  -1.184   1.279  0.00  0.00    +0.044 C 
ATOM     14  C   UNL     1      -3.252  -0.357  -3.389  0.00  0.00    +0.044 C 
ATOM     15  H   UNL     1      -1.921  -4.931   0.042  0.00  0.00    +0.155 HD
ENDBRANCH   1   2
BRANCH   1  17
ATOM     16  N   UNL     1       0.648  -2.084  -1.656  0.00  0.00    -0.211 N 
ATOM     17  C   UNL     1       1.125  -3.430  -2.026  0.00  0.00    +0.183 C 
ATOM     18  N   UNL     1       0.684  -4.259  -0.889  0.00  0.00    -0.229 N 
ATOM     19  N   UNL     1       0.032  -3.387  -0.009  0.00  0.00    -0.064 NA
ATOM     20  N   UNL     1       0.017  -2.228  -0.415  0.00  0.00    -0.061 NA
ATOM     21  H   UNL     1       0.819  -5.213  -0.774  0.00  0.00    +0.172 HD
BRANCH  16  22
ATOM     22  C   UNL     1       0.808  -0.848  -2.427  0.00  0.00    +0.050 C 
ATOM     23  C   UNL     1       0.229  -1.042  -3.829  0.00  0.00    +0.033 C 
ATOM     24  C   UNL     1       2.295  -0.502  -2.533  0.00  0.00    +0.033 C 
BRANCH  22  26
ATOM     25  C   UNL     1       0.303   1.599  -2.483  0.00  0.00    +0.006 C 
ATOM     26  C   UNL     1       0.069   0.291  -1.723  0.00  0.00    +0.023 C 
ENDBRANCH  22  26
ENDBRANCH  16  22
ENDBRANCH   1  17
BRANCH   1  27
ATOM     27  N   UNL     1       1.135  -5.119  -3.799  0.00  0.00    +0.390 N 
ATOM     28  H   UNL     1       1.031  -5.847  -3.109  0.00  0.00    -0.080 HD
BRANCH  27  29
ATOM     29  C   UNL     1       2.563  -4.848  -4.013  0.00  0.00    -0.042 C 
BRANCH  29  30
ATOM     30  C   UNL     1       2.718  -3.715  -4.995  0.00  0.00    -0.064 A 
ATOM     31  C   UNL     1       2.285  -3.867  -6.299  0.00  0.00    +0.002 A 
ATOM     32  C   UNL     1       2.427  -2.828  -7.199  0.00  0.00    +0.000 A 
ATOM     33  C   UNL     1       3.002  -1.637  -6.796  0.00  0.00    +0.000 A 
ATOM     34  C   UNL     1       3.434  -1.485  -5.492  0.00  0.00    +0.000 A 
ATOM     35  C   UNL     1       3.288  -2.523  -4.590  0.00  0.00    +0.002 A 
ENDBRANCH  29  30
ENDBRANCH  27  29
BRANCH  27  36
ATOM     36  C   UNL     1       0.525  -5.552  -5.063  0.00  0.00    -0.035 C 
BRANCH  36  37
ATOM     37  C   UNL     1       1.232  -6.784  -5.567  0.00  0.00    -0.027 A 
ATOM     38  C   UNL     1       1.011  -8.084  -5.252  0.00  0.00    +0.009 A 
ATOM     39  C   UNL     1       1.792  -9.059  -5.844  0.00  0.00    +0.008 A 
ATOM     40  C   UNL     1       2.755  -8.687  -6.722  0.00  0.00    +0.045 A 
ATOM     41  S   UNL     1       2.574  -6.911  -6.738  0.00  0.00    -0.103 S 
ENDBRANCH  36  37
ENDBRANCH  27  36
ENDBRANCH   1  27
TORSDOF 9
