REMARK  Name = ZINC20609515
REMARK  12 active torsions:
REMARK  status: ('A' for Active; 'I' for Inactive)
REMARK    1  A    between atoms: C_1  and  C_2
REMARK    2  A    between atoms: C_2  and  O_3
REMARK    3  A    between atoms: O_3  and  C_4
REMARK    4  A    between atoms: C_4  and  C_6
REMARK    5  A    between atoms: C_10  and  C_11
REMARK    6  A    between atoms: C_14  and  C_17
REMARK    7  A    between atoms: C_17  and  C_18
REMARK    8  A    between atoms: C_17  and  C_19
REMARK    9  A    between atoms: C_29  and  C_31
REMARK   10  A    between atoms: C_34  and  C_37
REMARK   11  A    between atoms: C_37  and  C_38
REMARK   12  A    between atoms: C_37  and  C_39
REMARK                            x       y       z     vdW  Elec       q    Type
REMARK                         _______ _______ _______ _____ _____    ______ ____
ROOT
ATOM      1  C   UNL     1       1.587   3.164  -0.028  0.00  0.00    +0.110 C 
ATOM      2  C   UNL     1       1.260   1.838  -0.163  0.00  0.00    +0.224 A 
ATOM      3  N   UNL     1       0.000   1.391   0.098  0.00  0.00    -0.242 N 
ATOM      4  C   UNL     1      -0.014   0.005  -0.131  0.00  0.00    +0.138 A 
ATOM      5  C   UNL     1      -1.067  -0.840   0.008  0.00  0.00    +0.041 C 
ATOM      6  C   UNL     1       1.351  -0.337  -0.554  0.00  0.00    +0.363 A 
ATOM      7  O   UNL     1       1.765  -1.441  -0.851  0.00  0.00    -0.243 OA
ATOM      8  O   UNL     1       2.053   0.811  -0.548  0.00  0.00    -0.403 OA
ATOM      9  C   UNL     1      -1.040   2.227   0.512  0.00  0.00    +0.235 A 
ATOM     10  C   UNL     1      -0.856   3.548   0.691  0.00  0.00    +0.119 A 
ATOM     11  N   UNL     1      -2.022   4.084   1.092  0.00  0.00    -0.197 NA
ATOM     12  C   UNL     1      -2.917   3.129   1.155  0.00  0.00    +0.287 A 
ATOM     13  O   UNL     1      -2.335   1.969   0.807  0.00  0.00    -0.408 OA
ATOM     14  N   UNL     1      -4.240   3.288   1.529  0.00  0.00    -0.313 N 
ATOM     15  C   UNL     1       0.512   4.130   0.423  0.00  0.00    +0.115 C 
ATOM     16  H   UNL     1      -4.914   2.418   1.549  0.00  0.00    +0.147 HD
ATOM     17  H   UNL     1      -4.618   4.283   1.805  0.00  0.00    +0.147 HD
ENDROOT
BRANCH   5  18
ATOM     18  C   UNL     1      -0.865  -2.291  -0.112  0.00  0.00    -0.023 A 
ATOM     19  C   UNL     1      -1.796  -3.075  -0.803  0.00  0.00    +0.008 A 
ATOM     20  C   UNL     1      -1.597  -4.435  -0.917  0.00  0.00    +0.004 A 
ATOM     21  C   UNL     1      -0.486  -5.026  -0.340  0.00  0.00    -0.045 A 
ATOM     22  C   UNL     1       0.436  -4.258   0.350  0.00  0.00    +0.004 A 
ATOM     23  C   UNL     1       0.255  -2.897   0.468  0.00  0.00    +0.008 A 
BRANCH  21  24
ATOM     24  C   UNL     1      -0.280  -6.514  -0.463  0.00  0.00    +0.013 C 
ATOM     25  C   UNL     1      -1.464  -7.247   0.171  0.00  0.00    +0.012 C 
ATOM     26  C   UNL     1      -0.178  -6.893  -1.942  0.00  0.00    +0.012 C 
ENDBRANCH  21  24
ENDBRANCH   5  18
BRANCH  15  27
ATOM     27  C   UNL     1       0.988   4.800   1.686  0.00  0.00    -0.034 A 
ATOM     28  C   UNL     1       1.270   4.041   2.806  0.00  0.00    +0.005 A 
ATOM     29  C   UNL     1       1.711   4.656   3.964  0.00  0.00    +0.004 A 
ATOM     30  C   UNL     1       1.859   6.029   4.003  0.00  0.00    -0.045 A 
ATOM     31  C   UNL     1       1.571   6.788   2.885  0.00  0.00    +0.004 A 
ATOM     32  C   UNL     1       1.136   6.174   1.726  0.00  0.00    +0.005 A 
BRANCH  30  33
ATOM     33  C   UNL     1       2.334   6.700   5.267  0.00  0.00    +0.013 C 
ATOM     34  C   UNL     1       1.353   6.400   6.403  0.00  0.00    +0.012 C 
ATOM     35  C   UNL     1       3.720   6.168   5.637  0.00  0.00    +0.012 C 
ENDBRANCH  30  33
ENDBRANCH  15  27
BRANCH   1  36
ATOM     36  C   UNL     1       2.888   3.614  -0.299  0.00  0.00    +0.341 C 
ATOM     37  O   UNL     1       3.163   4.795  -0.174  0.00  0.00    -0.245 OA
BRANCH  36  38
ATOM     38  O   UNL     1       3.836   2.739  -0.699  0.00  0.00    -0.462 OA
BRANCH  38  40
ATOM     39  C   UNL     1       6.069   2.135  -1.397  0.00  0.00    +0.048 C 
ATOM     40  C   UNL     1       5.138   3.267  -0.958  0.00  0.00    +0.229 C 
ENDBRANCH  38  40
ENDBRANCH  36  38
ENDBRANCH   1  36
TORSDOF 7
