REMARK  Name = ZINC40036446
REMARK  12 active torsions:
REMARK  status: ('A' for Active; 'I' for Inactive)
REMARK    1  A    between atoms: C_1  and  C_2
REMARK    2  A    between atoms: C_2  and  C_3
REMARK    3  A    between atoms: C_3  and  C_4
REMARK    4  A    between atoms: C_4  and  O_5
REMARK    5  A    between atoms: O_5  and  C_6
REMARK    6  A    between atoms: C_11  and  C_12
REMARK    7  A    between atoms: N_13  and  N_14
REMARK    8  A    between atoms: N_21  and  C_22
REMARK    9  A    between atoms: C_28  and  C_36
REMARK   10  A    between atoms: C_28  and  C_37
REMARK   11  A    between atoms: C_37  and  C_38
REMARK   12  A    between atoms: C_38  and  C_39
REMARK                            x       y       z     vdW  Elec       q    Type
REMARK                         _______ _______ _______ _____ _____    ______ ____
ROOT
ATOM      1  N   UNL     1      -5.301  -1.892  -0.878  0.00  0.00    -0.206 N 
ATOM      2  C   UNL     1      -5.322  -0.570  -0.516  0.00  0.00    +0.223 A 
ATOM      3  N   UNL     1      -4.343   0.220  -0.905  0.00  0.00    -0.214 NA
ATOM      4  C   UNL     1      -4.330   1.514  -0.571  0.00  0.00    +0.084 A 
ATOM      5  C   UNL     1      -5.362   2.044   0.191  0.00  0.00    +0.050 A 
ATOM      6  C   UNL     1      -6.400   1.198   0.603  0.00  0.00    +0.264 A 
ATOM      7  O   UNL     1      -7.323   1.627   1.277  0.00  0.00    -0.267 OA
ATOM      8  N   UNL     1      -6.360  -0.101   0.235  0.00  0.00    -0.248 N 
ATOM      9  C   UNL     1      -5.363   3.501   0.558  0.00  0.00    +0.004 C 
ATOM     10  C   UNL     1      -3.941   3.991   0.817  0.00  0.00    +0.047 C 
ATOM     11  C   UNL     1      -3.035   3.614  -0.325  0.00  0.00    -0.037 A 
ATOM     12  C   UNL     1      -3.226   2.405  -0.996  0.00  0.00    +0.004 A 
ATOM     13  C   UNL     1      -2.387   2.050  -2.047  0.00  0.00    +0.010 A 
ATOM     14  C   UNL     1      -1.368   2.901  -2.426  0.00  0.00    +0.001 A 
ATOM     15  C   UNL     1      -1.183   4.101  -1.762  0.00  0.00    +0.000 A 
ATOM     16  C   UNL     1      -2.015   4.456  -0.714  0.00  0.00    +0.004 A 
ATOM     17  C   UNL     1      -6.203   3.702   1.821  0.00  0.00    +0.017 C 
ATOM     18  H   UNL     1      -6.056  -2.464  -0.669  0.00  0.00    +0.177 HD
ENDROOT
BRANCH   8  19
ATOM     19  C   UNL     1      -7.385  -0.970   0.629  0.00  0.00    +0.053 A 
ATOM     20  C   UNL     1      -8.710  -0.557   0.566  0.00  0.00    +0.026 A 
ATOM     21  C   UNL     1      -9.718  -1.417   0.956  0.00  0.00    +0.002 A 
ATOM     22  C   UNL     1      -9.410  -2.687   1.408  0.00  0.00    +0.000 A 
ATOM     23  C   UNL     1      -8.092  -3.100   1.472  0.00  0.00    +0.002 A 
ATOM     24  C   UNL     1      -7.080  -2.248   1.079  0.00  0.00    +0.026 A 
ENDBRANCH   8  19
BRANCH   1  26
ATOM     25  C   UNL     1      -4.213  -3.639  -1.988  0.00  0.00    +0.142 C 
ATOM     26  N   UNL     1      -4.190  -2.416  -1.551  0.00  0.00    -0.187 NA
BRANCH  25  32
ATOM     27  C   UNL     1      -1.763  -3.567  -2.442  0.00  0.00    +0.129 A 
ATOM     28  C   UNL     1      -0.609  -4.162  -2.926  0.00  0.00    +0.046 A 
ATOM     29  C   UNL     1      -0.660  -5.431  -3.471  0.00  0.00    +0.004 A 
ATOM     30  C   UNL     1      -1.861  -6.117  -3.539  0.00  0.00    +0.001 A 
ATOM     31  C   UNL     1      -3.019  -5.539  -3.063  0.00  0.00    +0.013 A 
ATOM     32  C   UNL     1      -2.980  -4.260  -2.504  0.00  0.00    +0.036 A 
BRANCH  27  33
ATOM     33  O   UNL     1      -1.714  -2.321  -1.906  0.00  0.00    -0.491 OA
BRANCH  33  34
ATOM     34  C   UNL     1      -0.441  -1.672  -1.887  0.00  0.00    +0.229 C 
BRANCH  34  35
ATOM     35  C   UNL     1      -0.579  -0.296  -1.232  0.00  0.00    +0.041 C 
BRANCH  35  37
ATOM     36  C   UNL     1       0.662   1.751  -0.515  0.00  0.00    +0.004 C 
ATOM     37  C   UNL     1       0.769   0.426  -1.274  0.00  0.00    -0.000 C 
ENDBRANCH  35  37
ENDBRANCH  34  35
ENDBRANCH  33  34
ENDBRANCH  27  33
ENDBRANCH  25  32
ENDBRANCH   1  26
BRANCH   9  38
ATOM     38  C   UNL     1      -5.975   4.309  -0.588  0.00  0.00    +0.011 C 
BRANCH  38  39
ATOM     39  C   UNL     1      -7.411   3.841  -0.833  0.00  0.00    -0.003 C 
ATOM     40  C   UNL     1      -8.022   4.649  -1.979  0.00  0.00    +0.004 C 
ENDBRANCH  38  39
ENDBRANCH   9  38
TORSDOF 9
