REMARK  Name = ZINC50305373
REMARK  5 active torsions:
REMARK  status: ('A' for Active; 'I' for Inactive)
REMARK    1  A    between atoms: C_1  and  C_2
REMARK    2  A    between atoms: C_3  and  N_20
REMARK    3  A    between atoms: C_4  and  C_8
REMARK    4  A    between atoms: C_11  and  C_19
REMARK    5  A    between atoms: C_16  and  C_18
REMARK                            x       y       z     vdW  Elec       q    Type
REMARK                         _______ _______ _______ _____ _____    ______ ____
ROOT
ATOM      1  C   UNL     1       0.539   1.522  -0.061  0.00  0.00    +0.067 C 
ATOM      2  C   UNL     1       0.549   0.015  -0.066  0.00  0.00    +0.054 A 
ATOM      3  C   UNL     1       0.313  -0.791  -1.135  0.00  0.00    +0.078 A 
ATOM      4  C   UNL     1       0.436  -2.116  -0.643  0.00  0.00    +0.168 A 
ATOM      5  N   UNL     1       0.728  -2.027   0.641  0.00  0.00    -0.167 NA
ATOM      6  N   UNL     1       0.803  -0.794   0.995  0.00  0.00    -0.279 N 
ATOM      7  H   UNL     1       1.010  -0.486   1.891  0.00  0.00    +0.189 HD
ENDROOT
BRANCH   4   8
ATOM      8  C   UNL     1       0.268  -3.358  -1.420  0.00  0.00    +0.269 C 
ATOM      9  O   UNL     1       0.108  -3.305  -2.624  0.00  0.00    -0.268 OA
ATOM     10  N   UNL     1       0.292  -4.552  -0.795  0.00  0.00    -0.291 N 
ATOM     11  C   UNL     1       0.318  -4.628   0.672  0.00  0.00    +0.074 C 
ATOM     12  C   UNL     1      -0.832  -5.527   1.139  0.00  0.00    +0.022 C 
ATOM     13  C   UNL     1      -0.731  -6.883   0.437  0.00  0.00    +0.004 C 
ATOM     14  C   UNL     1      -0.855  -6.687  -1.076  0.00  0.00    +0.022 C 
ATOM     15  C   UNL     1       0.288  -5.802  -1.567  0.00  0.00    +0.074 C 
ATOM     16  C   UNL     1       0.088  -5.487  -3.051  0.00  0.00    +0.028 C 
ATOM     17  C   UNL     1       1.653  -5.218   1.132  0.00  0.00    +0.028 C 
ENDBRANCH   4   8
BRANCH   3  18
ATOM     18  N   UNL     1       0.010  -0.396  -2.447  0.00  0.00    -0.355 N 
ATOM     19  H   UNL     1      -0.048   0.546  -2.668  0.00  0.00    +0.142 HD
ATOM     20  H   UNL     1      -0.141  -1.066  -3.132  0.00  0.00    +0.142 HD
ENDBRANCH   3  18
TORSDOF 2
