REMARK  Name = ZINC39772771
REMARK  12 active torsions:
REMARK  status: ('A' for Active; 'I' for Inactive)
REMARK    1  A    between atoms: C_1  and  C_2
REMARK    2  A    between atoms: C_2  and  N_3
REMARK    3  A    between atoms: C_4  and  C_22
REMARK    4  A    between atoms: C_7  and  S_8
REMARK    5  A    between atoms: S_8  and  C_9
REMARK    6  A    between atoms: C_9  and  C_11
REMARK    7  A    between atoms: C_9  and  C_12
REMARK    8  A    between atoms: N_14  and  C_15
REMARK    9  A    between atoms: C_20  and  C_21
REMARK   10  A    between atoms: C_22  and  C_24
REMARK   11  A    between atoms: C_22  and  N_25
REMARK   12  A    between atoms: C_26  and  C_28
REMARK                            x       y       z     vdW  Elec       q    Type
REMARK                         _______ _______ _______ _____ _____    ______ ____
ROOT
ATOM      1  N   UNL     1       0.697  -0.449  -1.227  0.00  0.00    -0.305 N 
ATOM      2  C   UNL     1       0.141  -0.711  -2.449  0.00  0.00    +0.154 A 
ATOM      3  N   UNL     1       1.101  -1.103  -3.237  0.00  0.00    -0.132 NA
ATOM      4  N   UNL     1       2.219  -1.106  -2.602  0.00  0.00    -0.122 NA
ATOM      5  C   UNL     1       2.031  -0.708  -1.365  0.00  0.00    +0.192 A 
ENDROOT
BRANCH   1   7
ATOM      6  C   UNL     1      -0.008   1.550  -0.006  0.00  0.00    +0.027 C 
ATOM      7  C   UNL     1       0.007   0.020  -0.023  0.00  0.00    +0.122 C 
ENDBRANCH   1   7
BRANCH   2   8
ATOM      8  C   UNL     1      -1.315  -0.573  -2.815  0.00  0.00    +0.138 C 
ATOM      9  C   UNL     1      -1.509   0.680  -3.671  0.00  0.00    +0.036 C 
BRANCH   8  10
ATOM     10  N   UNL     1      -1.742  -1.753  -3.572  0.00  0.00    -0.302 N 
ATOM     11  C   UNL     1      -3.040  -2.115  -3.579  0.00  0.00    +0.246 C 
ATOM     12  O   UNL     1      -3.856  -1.464  -2.957  0.00  0.00    -0.270 OA
ATOM     13  H   UNL     1      -1.090  -2.272  -4.068  0.00  0.00    +0.150 HD
BRANCH  11  14
ATOM     14  C   UNL     1      -3.471  -3.305  -4.342  0.00  0.00    +0.051 A 
ATOM     15  C   UNL     1      -2.535  -4.059  -5.053  0.00  0.00    +0.014 A 
ATOM     16  C   UNL     1      -2.943  -5.168  -5.763  0.00  0.00    +0.001 A 
ATOM     17  C   UNL     1      -4.278  -5.535  -5.773  0.00  0.00    +0.001 A 
ATOM     18  C   UNL     1      -5.211  -4.794  -5.072  0.00  0.00    +0.016 A 
ATOM     19  C   UNL     1      -4.815  -3.684  -4.351  0.00  0.00    +0.030 A 
ATOM     20 BR   UNL     1      -6.091  -2.675  -3.387  0.00  0.00    -0.050 Br
ENDBRANCH  11  14
ENDBRANCH   8  10
ENDBRANCH   2   8
BRANCH   5  21
ATOM     21  S   UNL     1       3.265  -0.543  -0.119  0.00  0.00    -0.074 S 
BRANCH  21  22
ATOM     22  C   UNL     1       4.798  -1.040  -0.951  0.00  0.00    +0.137 C 
ATOM     23  C   UNL     1       5.121  -0.041  -2.064  0.00  0.00    +0.029 C 
BRANCH  22  24
ATOM     24  C   UNL     1       5.927  -1.062   0.048  0.00  0.00    +0.230 C 
ATOM     25  O   UNL     1       5.829  -0.445   1.087  0.00  0.00    -0.274 OA
ATOM     26  N   UNL     1       7.045  -1.767  -0.214  0.00  0.00    -0.284 N 
ATOM     27  H   UNL     1       7.092  -2.325  -1.007  0.00  0.00    +0.155 HD
BRANCH  26  28
ATOM     28  C   UNL     1       8.138  -1.695   0.656  0.00  0.00    +0.036 A 
ATOM     29  C   UNL     1       8.312  -0.579   1.463  0.00  0.00    +0.023 A 
ATOM     30  C   UNL     1       9.392  -0.511   2.322  0.00  0.00    +0.002 A 
ATOM     31  C   UNL     1      10.299  -1.553   2.378  0.00  0.00    +0.000 A 
ATOM     32  C   UNL     1      10.129  -2.666   1.576  0.00  0.00    +0.005 A 
ATOM     33  C   UNL     1       9.047  -2.743   0.720  0.00  0.00    -0.029 A 
ATOM     34  C   UNL     1       8.858  -3.959  -0.149  0.00  0.00    +0.045 C 
ENDBRANCH  26  28
ENDBRANCH  22  24
ENDBRANCH  21  22
ENDBRANCH   5  21
TORSDOF 8
