REMARK  Name = ZINC40050896
REMARK  7 active torsions:
REMARK  status: ('A' for Active; 'I' for Inactive)
REMARK    1  A    between atoms: C_1  and  C_2
REMARK    2  A    between atoms: C_2  and  C_3
REMARK    3  A    between atoms: C_2  and  C_4
REMARK    4  A    between atoms: C_4  and  C_6
REMARK    5  A    between atoms: C_4  and  N_24
REMARK    6  A    between atoms: C_11  and  C_14
REMARK    7  A    between atoms: N_27  and  C_28
REMARK                            x       y       z     vdW  Elec       q    Type
REMARK                         _______ _______ _______ _____ _____    ______ ____
ROOT
ATOM      1  C   UNL     1      -1.823   0.045  -1.257  0.00  0.00    +0.236 C 
ATOM      2  O   UNL     1      -2.895   0.596  -1.115  0.00  0.00    -0.274 OA
ATOM      3  N   UNL     1      -1.382  -0.262  -2.493  0.00  0.00    -0.300 N 
ATOM      4  C   UNL     1      -0.146  -1.034  -2.675  0.00  0.00    +0.108 C 
ATOM      5  C   UNL     1      -0.448  -2.245  -3.564  0.00  0.00    +0.030 C 
ATOM      6  C   UNL     1      -1.090  -1.768  -4.869  0.00  0.00    +0.058 C 
ATOM      7  C   UNL     1      -2.408  -1.055  -4.560  0.00  0.00    +0.030 C 
ATOM      8  C   UNL     1      -2.132   0.164  -3.682  0.00  0.00    +0.108 C 
ENDROOT
BRANCH   6   9
ATOM      9  C   UNL     1      -1.357  -2.954  -5.759  0.00  0.00    +0.111 A 
ATOM     10  N   UNL     1      -2.468  -3.737  -5.702  0.00  0.00    -0.342 N 
ATOM     11  H   UNL     1      -3.214  -3.632  -5.091  0.00  0.00    +0.167 HD
ATOM     12  C   UNL     1      -2.336  -4.709  -6.674  0.00  0.00    +0.066 A 
ATOM     13  C   UNL     1      -3.126  -5.771  -7.092  0.00  0.00    +0.028 A 
ATOM     14  C   UNL     1      -2.694  -6.579  -8.123  0.00  0.00    +0.002 A 
ATOM     15  C   UNL     1      -1.476  -6.336  -8.743  0.00  0.00    +0.002 A 
ATOM     16  C   UNL     1      -0.686  -5.295  -8.345  0.00  0.00    +0.030 A 
ATOM     17  C   UNL     1      -1.104  -4.463  -7.303  0.00  0.00    +0.089 A 
ATOM     18  N   UNL     1      -0.561  -3.375  -6.699  0.00  0.00    -0.232 NA
ENDBRANCH   6   9
BRANCH   1  19
ATOM     19  C   UNL     1      -0.986  -0.295  -0.051  0.00  0.00    +0.163 C 
BRANCH  19  20
ATOM     20  N   UNL     1      -1.837  -0.329   1.141  0.00  0.00    -0.288 N 
ATOM     21  C   UNL     1      -1.474  -1.069   2.207  0.00  0.00    +0.304 C 
ATOM     22  O   UNL     1      -0.440  -1.709   2.180  0.00  0.00    -0.252 OA
ATOM     23  N   UNL     1      -2.257  -1.100   3.304  0.00  0.00    -0.269 N 
ATOM     24  H   UNL     1      -2.661   0.181   1.163  0.00  0.00    +0.151 HD
ATOM     25  H   UNL     1      -3.042  -0.533   3.356  0.00  0.00    +0.156 HD
BRANCH  23  26
ATOM     26  C   UNL     1      -1.937  -1.951   4.368  0.00  0.00    +0.035 A 
ATOM     27  C   UNL     1      -2.202  -1.561   5.674  0.00  0.00    +0.023 A 
ATOM     28  C   UNL     1      -1.886  -2.403   6.722  0.00  0.00    +0.002 A 
ATOM     29  C   UNL     1      -1.305  -3.633   6.472  0.00  0.00    +0.000 A 
ATOM     30  C   UNL     1      -1.039  -4.024   5.173  0.00  0.00    +0.002 A 
ATOM     31  C   UNL     1      -1.359  -3.189   4.120  0.00  0.00    +0.023 A 
ENDBRANCH  23  26
ENDBRANCH  19  20
BRANCH  19  33
ATOM     32  C   UNL     1      -0.545   2.113   0.446  0.00  0.00    +0.009 C 
ATOM     33  C   UNL     1       0.103   0.764   0.129  0.00  0.00    +0.012 C 
ATOM     34  C   UNL     1       1.024   0.358   1.281  0.00  0.00    +0.009 C 
ENDBRANCH  19  33
ENDBRANCH   1  19
TORSDOF 5
