REMARK  Name = ZINC12477704
REMARK  15 active torsions:
REMARK  status: ('A' for Active; 'I' for Inactive)
REMARK    1  A    between atoms: C_1  and  C_2
REMARK    2  A    between atoms: C_5  and  C_8
REMARK    3  A    between atoms: N_11  and  C_13
REMARK    4  A    between atoms: C_13  and  C_14
REMARK    5  A    between atoms: N_16  and  C_17
REMARK    6  A    between atoms: N_16  and  C_25
REMARK    7  A    between atoms: C_22  and  O_23
REMARK    8  A    between atoms: O_23  and  C_24
REMARK    9  A    between atoms: C_25  and  C_27
REMARK   10  A    between atoms: C_25  and  C_34
REMARK   11  A    between atoms: C_30  and  O_33
REMARK   12  A    between atoms: N_36  and  C_37
REMARK   13  A    between atoms: C_37  and  C_38
REMARK   14  A    between atoms: C_37  and  C_39
REMARK   15  A    between atoms: C_37  and  C_40
REMARK                            x       y       z     vdW  Elec       q    Type
REMARK                         _______ _______ _______ _____ _____    ______ ____
ROOT
ATOM      1  C   UNL     1      -3.288   2.193   2.642  0.00  0.00    +0.244 C 
ATOM      2  O   UNL     1      -4.223   2.792   3.130  0.00  0.00    -0.273 OA
ATOM      3  N   UNL     1      -2.030   2.639   2.829  0.00  0.00    -0.250 N 
ENDROOT
BRANCH   3   4
ATOM      4  C   UNL     1      -0.950   1.947   2.265  0.00  0.00    +0.079 A 
ATOM      5  C   UNL     1      -0.516   0.756   2.830  0.00  0.00    +0.027 A 
ATOM      6  C   UNL     1       0.549   0.075   2.272  0.00  0.00    +0.002 A 
ATOM      7  C   UNL     1       1.185   0.578   1.152  0.00  0.00    +0.004 A 
ATOM      8  C   UNL     1       0.756   1.762   0.581  0.00  0.00    +0.047 A 
ATOM      9  C   UNL     1      -0.309   2.453   1.137  0.00  0.00    +0.141 A 
BRANCH   9  10
ATOM     10  O   UNL     1      -0.730   3.620   0.580  0.00  0.00    -0.493 OA
ATOM     11  C   UNL     1      -0.024   4.078  -0.576  0.00  0.00    +0.277 C 
ENDBRANCH   9  10
ENDBRANCH   3   4
BRANCH   1  12
ATOM     12  C   UNL     1      -3.533   0.950   1.826  0.00  0.00    +0.264 C 
BRANCH  12  16
ATOM     13  C   UNL     1      -6.888  -0.061   2.238  0.00  0.00    +0.205 A 
ATOM     14  N   UNL     1      -6.968   0.690   1.130  0.00  0.00    -0.108 NA
ATOM     15  N   UNL     1      -5.780   1.123   0.875  0.00  0.00    -0.045 NA
ATOM     16  N   UNL     1      -4.971   0.677   1.771  0.00  0.00    -0.154 N 
ATOM     17  N   UNL     1      -5.624  -0.052   2.610  0.00  0.00    -0.130 NA
BRANCH  13  22
ATOM     18  C   UNL     1     -11.223  -2.814   4.847  0.00  0.00    +0.044 C 
ATOM     19  C   UNL     1     -10.089  -2.093   4.165  0.00  0.00    -0.050 A 
ATOM     20  C   UNL     1     -10.332  -1.353   3.022  0.00  0.00    +0.004 A 
ATOM     21  C   UNL     1      -9.297  -0.691   2.393  0.00  0.00    +0.012 A 
ATOM     22  C   UNL     1      -8.006  -0.770   2.911  0.00  0.00    +0.023 A 
ATOM     23  C   UNL     1      -7.766  -1.522   4.059  0.00  0.00    +0.012 A 
ATOM     24  C   UNL     1      -8.809  -2.176   4.683  0.00  0.00    +0.004 A 
ENDBRANCH  13  22
ENDBRANCH  12  16
ENDBRANCH   1  12
BRANCH   3  25
ATOM     25  C   UNL     1      -1.792   3.848   3.622  0.00  0.00    +0.197 C 
BRANCH  25  26
ATOM     26  C   UNL     1      -2.160   3.585   5.060  0.00  0.00    -0.018 A 
ATOM     27  C   UNL     1      -1.735   2.425   5.680  0.00  0.00    +0.009 A 
ATOM     28  C   UNL     1      -2.066   2.185   7.000  0.00  0.00    +0.046 A 
ATOM     29  C   UNL     1      -2.835   3.104   7.699  0.00  0.00    +0.117 A 
ATOM     30  C   UNL     1      -3.265   4.265   7.073  0.00  0.00    +0.046 A 
ATOM     31  C   UNL     1      -2.926   4.503   5.755  0.00  0.00    +0.009 A 
BRANCH  29  32
ATOM     32  O   UNL     1      -3.168   2.867   8.995  0.00  0.00    -0.507 OA
ATOM     33  H   UNL     1      -3.998   2.384   9.107  0.00  0.00    +0.292 HD
ENDBRANCH  29  32
ENDBRANCH  25  26
BRANCH  25  34
ATOM     34  C   UNL     1      -0.336   4.225   3.537  0.00  0.00    +0.239 C 
ATOM     35  O   UNL     1       0.513   3.361   3.487  0.00  0.00    -0.273 OA
ATOM     36  N   UNL     1       0.023   5.524   3.517  0.00  0.00    -0.309 N 
ATOM     37  H   UNL     1      -0.656   6.216   3.558  0.00  0.00    +0.149 HD
BRANCH  36  38
ATOM     38  C   UNL     1       1.439   5.892   3.434  0.00  0.00    +0.026 C 
ATOM     39  C   UNL     1       2.039   5.322   2.147  0.00  0.00    +0.031 C 
ATOM     40  C   UNL     1       1.571   7.416   3.428  0.00  0.00    +0.031 C 
ATOM     41  C   UNL     1       2.186   5.320   4.642  0.00  0.00    +0.031 C 
ENDBRANCH  36  38
ENDBRANCH  25  34
ENDBRANCH   3  25
TORSDOF 10
