REMARK  Name = ZINC13858100
REMARK  8 active torsions:
REMARK  status: ('A' for Active; 'I' for Inactive)
REMARK    1  A    between atoms: C_1  and  C_2
REMARK    2  A    between atoms: C_2  and  C_3
REMARK    3  A    between atoms: C_6  and  N_9
REMARK    4  A    between atoms: C_11  and  C_16
REMARK    5  A    between atoms: N_18  and  C_19
REMARK    6  A    between atoms: C_24  and  C_25
REMARK    7  A    between atoms: C_31  and  C_33
REMARK    8  A    between atoms: C_33  and  C_34
REMARK                            x       y       z     vdW  Elec       q    Type
REMARK                         _______ _______ _______ _____ _____    ______ ____
ROOT
ATOM      1  C   UNL     1       1.919  -1.662  -0.221  0.00  0.00    +0.222 C 
ATOM      2  O   UNL     1       2.967  -1.655  -0.831  0.00  0.00    -0.275 OA
ATOM      3  N   UNL     1       1.161  -2.776  -0.194  0.00  0.00    -0.285 N 
ATOM      4  H   UNL     1       0.290  -2.761   0.232  0.00  0.00    +0.155 HD
ENDROOT
BRANCH   1   7
ATOM      5  N   UNL     1       1.531   1.947   0.151  0.00  0.00    -0.271 N 
ATOM      6  C   UNL     1       2.402   0.767   0.214  0.00  0.00    +0.127 C 
ATOM      7  C   UNL     1       1.463  -0.424   0.507  0.00  0.00    +0.102 C 
ATOM      8  C   UNL     1       0.119   0.088  -0.060  0.00  0.00    +0.110 C 
ATOM      9  C   UNL     1       0.244   1.595  -0.008  0.00  0.00    +0.221 C 
ATOM     10  O   UNL     1      -0.682   2.373  -0.102  0.00  0.00    -0.275 OA
BRANCH   5  14
ATOM     11  C   UNL     1       2.877   5.880   0.429  0.00  0.00    -0.048 A 
ATOM     12  C   UNL     1       3.761   4.833   0.614  0.00  0.00    +0.005 A 
ATOM     13  C   UNL     1       3.319   3.528   0.522  0.00  0.00    +0.024 A 
ATOM     14  C   UNL     1       1.983   3.268   0.245  0.00  0.00    +0.036 A 
ATOM     15  C   UNL     1       1.098   4.321   0.056  0.00  0.00    +0.024 A 
ATOM     16  C   UNL     1       1.546   5.624   0.153  0.00  0.00    +0.005 A 
BRANCH  11  18
ATOM     17  C   UNL     1       3.821   7.783  -0.850  0.00  0.00    +0.009 C 
ATOM     18  C   UNL     1       3.364   7.303   0.529  0.00  0.00    +0.032 C 
ENDBRANCH  11  18
ENDBRANCH   5  14
ENDBRANCH   1   7
BRANCH   3  19
ATOM     19  C   UNL     1       1.630  -3.951  -0.779  0.00  0.00    +0.046 A 
ATOM     20  C   UNL     1       2.414  -3.895  -1.924  0.00  0.00    +0.024 A 
ATOM     21  C   UNL     1       2.877  -5.060  -2.502  0.00  0.00    +0.002 A 
ATOM     22  C   UNL     1       2.565  -6.291  -1.947  0.00  0.00    +0.001 A 
ATOM     23  C   UNL     1       1.787  -6.365  -0.812  0.00  0.00    +0.015 A 
ATOM     24  C   UNL     1       1.316  -5.195  -0.212  0.00  0.00    +0.058 A 
BRANCH  24  25
ATOM     25  C   UNL     1       0.489  -5.267   1.007  0.00  0.00    +0.252 C 
ATOM     26  O   UNL     1       0.160  -4.246   1.580  0.00  0.00    -0.270 OA
ATOM     27  N   UNL     1       0.098  -6.464   1.486  0.00  0.00    -0.259 N 
ATOM     28  C   UNL     1      -0.682  -6.532   2.635  0.00  0.00    +0.188 A 
ATOM     29  N   UNL     1      -1.144  -5.561   3.411  0.00  0.00    -0.126 NA
ATOM     30  N   UNL     1      -1.851  -5.802   4.428  0.00  0.00    -0.145 NA
ATOM     31  C   UNL     1      -2.164  -7.030   4.790  0.00  0.00    +0.103 A 
ATOM     32  S   UNL     1      -1.343  -7.956   3.496  0.00  0.00    -0.035 S 
ATOM     33  H   UNL     1       0.360  -7.279   1.030  0.00  0.00    +0.157 HD
BRANCH  31  34
ATOM     34  C   UNL     1      -2.981  -7.516   5.960  0.00  0.00    +0.061 C 
ATOM     35  C   UNL     1      -4.452  -7.613   5.550  0.00  0.00    +0.011 C 
ENDBRANCH  31  34
ENDBRANCH  24  25
ENDBRANCH   3  19
TORSDOF 6
