REMARK  Name = ZINC36068877
REMARK  10 active torsions:
REMARK  status: ('A' for Active; 'I' for Inactive)
REMARK    1  A    between atoms: C_4  and  C_7
REMARK    2  A    between atoms: C_7  and  N_8
REMARK    3  A    between atoms: C_9  and  C_11
REMARK    4  A    between atoms: C_14  and  C_16
REMARK    5  A    between atoms: C_16  and  N_17
REMARK    6  A    between atoms: N_17  and  C_18
REMARK    7  A    between atoms: N_17  and  C_26
REMARK    8  A    between atoms: C_18  and  C_19
REMARK    9  A    between atoms: C_26  and  C_27
REMARK   10  A    between atoms: C_31  and  C_33
REMARK                            x       y       z     vdW  Elec       q    Type
REMARK                         _______ _______ _______ _____ _____    ______ ____
ROOT
ATOM      1  N   UNL     1       4.153  -3.088   7.134  0.00  0.00    +0.391 N 
ATOM      2  H   UNL     1       3.322  -3.233   6.581  0.00  0.00    -0.080 HD
ENDROOT
BRANCH   1   3
ATOM      3  C   UNL     1       4.847  -1.880   6.668  0.00  0.00    +0.020 C 
BRANCH   3   7
ATOM      4  C   UNL     1       4.909  -1.871   3.046  0.00  0.00    +0.163 A 
ATOM      5  C   UNL     1       6.109  -2.456   3.310  0.00  0.00    +0.230 A 
ATOM      6  O   UNL     1       6.225  -2.526   4.646  0.00  0.00    -0.449 OA
ATOM      7  C   UNL     1       5.121  -1.996   5.191  0.00  0.00    +0.179 A 
ATOM      8  N   UNL     1       4.326  -1.595   4.244  0.00  0.00    -0.210 NA
BRANCH   4  10
ATOM      9  N   UNL     1       3.143  -0.991   1.602  0.00  0.00    -0.306 N 
ATOM     10  C   UNL     1       4.348  -1.584   1.713  0.00  0.00    +0.266 C 
ATOM     11  O   UNL     1       4.974  -1.882   0.714  0.00  0.00    -0.268 OA
ATOM     12  H   UNL     1       2.645  -0.752   2.399  0.00  0.00    +0.149 HD
BRANCH   9  13
ATOM     13  C   UNL     1       2.587  -0.706   0.277  0.00  0.00    +0.140 C 
BRANCH  13  17
ATOM     14  C   UNL     1      -1.229   1.166   0.707  0.00  0.00    +0.000 A 
ATOM     15  C   UNL     1      -0.084   1.938   0.648  0.00  0.00    +0.000 A 
ATOM     16  C   UNL     1       1.151   1.332   0.509  0.00  0.00    +0.005 A 
ATOM     17  C   UNL     1       1.240  -0.045   0.430  0.00  0.00    -0.030 A 
ATOM     18  C   UNL     1       0.095  -0.817   0.490  0.00  0.00    +0.005 A 
ATOM     19  C   UNL     1      -1.140  -0.211   0.627  0.00  0.00    +0.000 A 
ENDBRANCH  13  17
ENDBRANCH   9  13
ENDBRANCH   4  10
ENDBRANCH   3   7
ENDBRANCH   1   3
BRANCH   1  20
ATOM     20  C   UNL     1       3.780  -2.924   8.546  0.00  0.00    -0.042 C 
BRANCH  20  21
ATOM     21  C   UNL     1       2.759  -1.823   8.671  0.00  0.00    -0.064 A 
ATOM     22  C   UNL     1       3.162  -0.539   8.988  0.00  0.00    +0.003 A 
ATOM     23  C   UNL     1       2.226   0.471   9.103  0.00  0.00    +0.020 A 
ATOM     24  C   UNL     1       0.885   0.197   8.901  0.00  0.00    +0.041 A 
ATOM     25  C   UNL     1       0.482  -1.088   8.584  0.00  0.00    +0.020 A 
ATOM     26  C   UNL     1       1.420  -2.096   8.463  0.00  0.00    +0.003 A 
ATOM     27 CL   UNL     1      -0.291   1.465   9.046  0.00  0.00    -0.084 Cl
ENDBRANCH  20  21
ENDBRANCH   1  20
BRANCH   1  28
ATOM     28  C   UNL     1       5.043  -4.248   6.994  0.00  0.00    -0.042 C 
BRANCH  28  29
ATOM     29  C   UNL     1       4.292  -5.504   7.353  0.00  0.00    -0.063 A 
ATOM     30  C   UNL     1       4.369  -6.013   8.636  0.00  0.00    +0.002 A 
ATOM     31  C   UNL     1       3.680  -7.165   8.966  0.00  0.00    +0.001 A 
ATOM     32  C   UNL     1       2.912  -7.808   8.012  0.00  0.00    +0.012 A 
ATOM     33  C   UNL     1       2.833  -7.298   6.730  0.00  0.00    +0.055 A 
ATOM     34  C   UNL     1       3.520  -6.143   6.402  0.00  0.00    +0.014 A 
BRANCH  33  35
ATOM     35  C   UNL     1       1.997  -7.998   5.690  0.00  0.00    +0.417 C 
ATOM     36  F   UNL     1       1.402  -9.131   6.256  0.00  0.00    -0.166 F 
ATOM     37  F   UNL     1       1.002  -7.130   5.230  0.00  0.00    -0.166 F 
ATOM     38  F   UNL     1       2.810  -8.385   4.620  0.00  0.00    -0.166 F 
ENDBRANCH  33  35
ENDBRANCH  28  29
ENDBRANCH   1  28
TORSDOF 10
