REMARK  Name = ZINC36504367
REMARK  13 active torsions:
REMARK  status: ('A' for Active; 'I' for Inactive)
REMARK    1  A    between atoms: C_1  and  C_2
REMARK    2  A    between atoms: C_2  and  C_3
REMARK    3  A    between atoms: C_2  and  C_4
REMARK    4  A    between atoms: C_2  and  N_5
REMARK    5  A    between atoms: C_6  and  C_8
REMARK    6  A    between atoms: C_8  and  C_10
REMARK    7  A    between atoms: C_8  and  N_20
REMARK    8  A    between atoms: C_12  and  N_17
REMARK    9  A    between atoms: N_20  and  C_21
REMARK   10  A    between atoms: C_21  and  C_22
REMARK   11  A    between atoms: C_27  and  C_29
REMARK   12  A    between atoms: C_29  and  N_30
REMARK   13  A    between atoms: C_31  and  C_33
REMARK                            x       y       z     vdW  Elec       q    Type
REMARK                         _______ _______ _______ _____ _____    ______ ____
ROOT
ATOM      1  N   UNL     1       4.127  -0.290  -2.932  0.00  0.00    -0.277 N 
ATOM      2  C   UNL     1       5.125  -1.194  -2.989  0.00  0.00    +0.234 C 
ATOM      3  O   UNL     1       4.901  -2.361  -2.743  0.00  0.00    -0.274 OA
ENDROOT
BRANCH   1   4
ATOM      4  C   UNL     1       2.772  -0.716  -2.573  0.00  0.00    +0.194 C 
BRANCH   4   5
ATOM      5  C   UNL     1       1.770   0.059  -3.388  0.00  0.00    +0.002 A 
ATOM      6  C   UNL     1       1.037   1.074  -2.801  0.00  0.00    +0.040 A 
ATOM      7  C   UNL     1       0.117   1.784  -3.549  0.00  0.00    +0.127 A 
ATOM      8  C   UNL     1      -0.071   1.480  -4.885  0.00  0.00    +0.034 A 
ATOM      9  C   UNL     1       0.661   0.466  -5.473  0.00  0.00    +0.022 A 
ATOM     10  C   UNL     1       1.586  -0.241  -4.726  0.00  0.00    +0.047 A 
ATOM     11 CL   UNL     1       2.511  -1.510  -5.466  0.00  0.00    -0.083 Cl
BRANCH   7  12
ATOM     12  N   UNL     1      -0.667   2.870  -2.919  0.00  0.00    +0.056 N 
ATOM     13  O   UNL     1      -0.503   3.136  -1.752  0.00  0.00    -0.126 OA
ATOM     14  O   UNL     1      -1.472   3.492  -3.573  0.00  0.00    -0.126 OA
ENDBRANCH   7  12
ENDBRANCH   4   5
BRANCH   4  16
ATOM     15  N   UNL     1       1.482  -1.021  -0.484  0.00  0.00    -0.309 N 
ATOM     16  C   UNL     1       2.536  -0.456  -1.107  0.00  0.00    +0.239 C 
ATOM     17  O   UNL     1       3.294   0.260  -0.488  0.00  0.00    -0.273 OA
ATOM     18  H   UNL     1       0.842  -1.544  -0.992  0.00  0.00    +0.149 HD
BRANCH  15  20
ATOM     19  C   UNL     1       1.167   0.646   1.278  0.00  0.00    +0.031 C 
ATOM     20  C   UNL     1       1.304  -0.845   0.959  0.00  0.00    +0.026 C 
ATOM     21  C   UNL     1       2.518  -1.414   1.696  0.00  0.00    +0.031 C 
ATOM     22  C   UNL     1       0.042  -1.581   1.411  0.00  0.00    +0.031 C 
ENDBRANCH  15  20
ENDBRANCH   4  16
ENDBRANCH   1   4
BRANCH   1  23
ATOM     23  C   UNL     1       4.398   1.119  -3.229  0.00  0.00    +0.183 C 
BRANCH  23  24
ATOM     24  C   UNL     1       4.752   1.842  -1.955  0.00  0.00    +0.122 A 
ATOM     25  C   UNL     1       5.996   2.053  -1.490  0.00  0.00    +0.046 A 
ATOM     26  C   UNL     1       5.864   2.765  -0.275  0.00  0.00    +0.041 A 
ATOM     27  C   UNL     1       4.547   2.946  -0.071  0.00  0.00    +0.195 A 
ATOM     28  O   UNL     1       3.878   2.390  -1.095  0.00  0.00    -0.466 OA
ENDBRANCH  23  24
ENDBRANCH   1  23
BRANCH   2  29
ATOM     29  C   UNL     1       6.519  -0.756  -3.358  0.00  0.00    +0.200 C 
BRANCH  29  30
ATOM     30  N   UNL     1       7.414  -1.916  -3.349  0.00  0.00    -0.303 N 
ATOM     31  C   UNL     1       8.718  -1.763  -3.651  0.00  0.00    +0.244 C 
ATOM     32  O   UNL     1       9.152  -0.663  -3.930  0.00  0.00    -0.270 OA
ATOM     33  H   UNL     1       7.067  -2.794  -3.126  0.00  0.00    +0.150 HD
BRANCH  31  34
ATOM     34  C   UNL     1       9.621  -2.934  -3.643  0.00  0.00    +0.037 A 
ATOM     35  C   UNL     1       9.125  -4.200  -3.328  0.00  0.00    +0.013 A 
ATOM     36  C   UNL     1       9.973  -5.288  -3.322  0.00  0.00    +0.001 A 
ATOM     37  C   UNL     1      11.313  -5.126  -3.627  0.00  0.00    +0.000 A 
ATOM     38  C   UNL     1      11.811  -3.874  -3.939  0.00  0.00    +0.001 A 
ATOM     39  C   UNL     1      10.973  -2.779  -3.955  0.00  0.00    +0.013 A 
ENDBRANCH  31  34
ENDBRANCH  29  30
ENDBRANCH   2  29
TORSDOF 10
