REMARK  Name = ZINC44589492
REMARK  10 active torsions:
REMARK  status: ('A' for Active; 'I' for Inactive)
REMARK    1  A    between atoms: C_1  and  C_2
REMARK    2  A    between atoms: C_2  and  O_3
REMARK    3  A    between atoms: O_3  and  C_4
REMARK    4  A    between atoms: C_4  and  C_5
REMARK    5  A    between atoms: C_4  and  O_12
REMARK    6  A    between atoms: C_4  and  O_15
REMARK    7  A    between atoms: O_12  and  C_13
REMARK    8  A    between atoms: C_13  and  C_14
REMARK    9  A    between atoms: O_15  and  C_16
REMARK   10  A    between atoms: C_16  and  C_17
REMARK                            x       y       z     vdW  Elec       q    Type
REMARK                         _______ _______ _______ _____ _____    ______ ____
ROOT
ATOM      1  C   UNL     1       0.835  -1.872  -1.216  0.00  0.00    +0.315 C 
ENDROOT
BRANCH   1   2
ATOM      2  C   UNL     1       1.715  -2.062  -2.425  0.00  0.00    +0.055 A 
ATOM      3  C   UNL     1       2.087  -0.970  -3.188  0.00  0.00    +0.012 A 
ATOM      4  C   UNL     1       2.894  -1.144  -4.295  0.00  0.00    +0.001 A 
ATOM      5  C   UNL     1       3.332  -2.409  -4.641  0.00  0.00    +0.001 A 
ATOM      6  C   UNL     1       2.961  -3.501  -3.879  0.00  0.00    +0.016 A 
ATOM      7  C   UNL     1       2.157  -3.327  -2.767  0.00  0.00    +0.029 A 
ATOM      8 BR   UNL     1       1.655  -4.819  -1.719  0.00  0.00    -0.050 Br
ENDBRANCH   1   2
BRANCH   1   9
ATOM      9  O   UNL     1       0.514  -0.486  -1.073  0.00  0.00    -0.323 OA
BRANCH   9  11
ATOM     10  C   UNL     1      -0.507   1.318   0.169  0.00  0.00    +0.034 C 
ATOM     11  C   UNL     1      -0.322  -0.196   0.049  0.00  0.00    +0.163 C 
ENDBRANCH   9  11
ENDBRANCH   1   9
BRANCH   1  12
ATOM     12  O   UNL     1       1.524  -2.325  -0.049  0.00  0.00    -0.323 OA
BRANCH  12  13
ATOM     13  C   UNL     1       2.712  -1.588   0.247  0.00  0.00    +0.163 C 
ATOM     14  C   UNL     1       3.418  -2.220   1.449  0.00  0.00    +0.034 C 
ENDBRANCH  12  13
ENDBRANCH   1  12
BRANCH   1  15
ATOM     15  O   UNL     1      -0.369  -2.624  -1.381  0.00  0.00    -0.323 OA
BRANCH  15  16
ATOM     16  C   UNL     1      -1.192  -2.176  -2.460  0.00  0.00    +0.163 C 
ATOM     17  C   UNL     1      -2.500  -2.969  -2.467  0.00  0.00    +0.034 C 
ENDBRANCH  15  16
ENDBRANCH   1  15
TORSDOF 7
