REMARK  Name = ZINC10282284
REMARK  11 active torsions:
REMARK  status: ('A' for Active; 'I' for Inactive)
REMARK    1  A    between atoms: C_1  and  C_2
REMARK    2  A    between atoms: C_3  and  C_14
REMARK    3  A    between atoms: C_4  and  C_13
REMARK    4  A    between atoms: C_9  and  S_11
REMARK    5  A    between atoms: S_11  and  C_12
REMARK    6  A    between atoms: C_14  and  C_15
REMARK    7  A    between atoms: C_15  and  C_16
REMARK    8  A    between atoms: N_18  and  C_19
REMARK    9  A    between atoms: C_19  and  C_20
REMARK   10  A    between atoms: C_25  and  C_26
REMARK   11  A    between atoms: C_26  and  N_64
REMARK                            x       y       z     vdW  Elec       q    Type
REMARK                         _______ _______ _______ _____ _____    ______ ____
ROOT
ATOM      1  C   UNL     1       4.741   6.932  -0.700  0.00  0.00    +0.214 C 
ATOM      2  O   UNL     1       4.751   7.730   0.213  0.00  0.00    -0.276 OA
ATOM      3  N   UNL     1       5.142   7.310  -1.930  0.00  0.00    -0.311 N 
ATOM      4  H   UNL     1       5.134   6.672  -2.661  0.00  0.00    +0.149 HD
ENDROOT
BRANCH   1   5
ATOM      5  C   UNL     1       4.281   5.517  -0.460  0.00  0.00    +0.100 C 
BRANCH   5   6
ATOM      6  C   UNL     1       3.885   5.353   1.009  0.00  0.00    +0.048 C 
BRANCH   6   9
ATOM      7  C   UNL     1       5.795   3.304   1.804  0.00  0.00    +0.066 C 
ATOM      8  C   UNL     1       4.340   2.951   1.632  0.00  0.00    +0.047 A 
ATOM      9  C   UNL     1       3.425   3.938   1.249  0.00  0.00    -0.005 A 
ATOM     10  C   UNL     1       2.116   3.606   1.098  0.00  0.00    +0.048 A 
ATOM     11  N   UNL     1       1.731   2.322   1.322  0.00  0.00    -0.200 N 
ATOM     12  C   UNL     1       2.650   1.382   1.695  0.00  0.00    +0.254 A 
ATOM     13  N   UNL     1       3.937   1.718   1.842  0.00  0.00    -0.216 NA
ATOM     14  N   UNL     1       2.003   0.231   1.843  0.00  0.00    -0.183 NA
ATOM     15  C   UNL     1       0.710   0.406   1.579  0.00  0.00    +0.211 A 
ATOM     16  N   UNL     1       0.495   1.666   1.256  0.00  0.00    -0.137 NA
ATOM     17  C   UNL     1       1.106   4.646   0.686  0.00  0.00    +0.066 C 
BRANCH  15  18
ATOM     18  S   UNL     1      -0.522  -0.851   1.649  0.00  0.00    -0.088 S 
ATOM     19  C   UNL     1       0.394  -2.336   2.144  0.00  0.00    +0.093 C 
ENDBRANCH  15  18
ENDBRANCH   6   9
ENDBRANCH   5   6
ENDBRANCH   1   5
BRANCH   3  20
ATOM     20  C   UNL     1       5.589   8.686  -2.164  0.00  0.00    +0.139 C 
BRANCH  20  21
ATOM     21  C   UNL     1       5.979   8.848  -3.611  0.00  0.00    -0.029 A 
ATOM     22  C   UNL     1       7.312   8.802  -3.976  0.00  0.00    +0.005 A 
ATOM     23  C   UNL     1       7.670   8.945  -5.303  0.00  0.00    +0.000 A 
ATOM     24  C   UNL     1       6.696   9.146  -6.264  0.00  0.00    +0.000 A 
ATOM     25  C   UNL     1       5.364   9.198  -5.898  0.00  0.00    +0.002 A 
ATOM     26  C   UNL     1       5.006   9.049  -4.571  0.00  0.00    -0.059 A 
BRANCH  26  27
ATOM     27  C   UNL     1       3.554   9.105  -4.172  0.00  0.00    -0.043 C 
BRANCH  27  33
ATOM     28  C   UNL     1       2.940   7.043  -5.280  0.00  0.00    -0.078 C 
ATOM     29  C   UNL     1       2.544   5.584  -5.042  0.00  0.00    -0.019 C 
ATOM     30  C   UNL     1       1.201   5.538  -4.308  0.00  0.00    -0.004 C 
ATOM     31  C   UNL     1       1.321   6.312  -2.992  0.00  0.00    -0.019 C 
ATOM     32  C   UNL     1       1.752   7.750  -3.290  0.00  0.00    -0.078 C 
ATOM     33  N   UNL     1       3.062   7.726  -3.975  0.00  0.00    +0.382 N 
ATOM     34  H   UNL     1       3.733   7.213  -3.392  0.00  0.00    -0.081 HD
ENDBRANCH  27  33
ENDBRANCH  26  27
ENDBRANCH  20  21
ENDBRANCH   3  20
TORSDOF 8
