REMARK  Name = ZINC65415019
REMARK  8 active torsions:
REMARK  status: ('A' for Active; 'I' for Inactive)
REMARK    1  A    between atoms: C_1  and  C_2
REMARK    2  A    between atoms: C_5  and  C_8
REMARK    3  A    between atoms: C_8  and  C_9
REMARK    4  A    between atoms: C_8  and  N_24
REMARK    5  A    between atoms: C_9  and  N_10
REMARK    6  A    between atoms: N_13  and  C_14
REMARK    7  A    between atoms: N_24  and  C_25
REMARK    8  A    between atoms: N_24  and  C_26
REMARK                            x       y       z     vdW  Elec       q    Type
REMARK                         _______ _______ _______ _____ _____    ______ ____
ROOT
ATOM      1  N   UNL     1       1.038  -6.332   0.260  0.00  0.00    -0.300 N 
ATOM      2  C   UNL     1       2.087  -7.124   0.553  0.00  0.00    +0.304 C 
ATOM      3  O   UNL     1       3.188  -6.637   0.723  0.00  0.00    -0.253 OA
ATOM      4  N   UNL     1       1.917  -8.457   0.657  0.00  0.00    -0.266 N 
ATOM      5  H   UNL     1       0.159  -6.721   0.124  0.00  0.00    +0.150 HD
ATOM      6  H   UNL     1       1.028  -8.839   0.591  0.00  0.00    +0.156 HD
ENDROOT
BRANCH   4   7
ATOM      7  C   UNL     1       3.025  -9.291   0.862  0.00  0.00    +0.080 A 
ATOM      8  C   UNL     1       4.097  -8.848   1.623  0.00  0.00    +0.027 A 
ATOM      9  C   UNL     1       5.189  -9.670   1.825  0.00  0.00    +0.006 A 
ATOM     10  C   UNL     1       5.219 -10.935   1.269  0.00  0.00    +0.049 A 
ATOM     11  C   UNL     1       4.151 -11.387   0.505  0.00  0.00    +0.164 A 
ATOM     12  C   UNL     1       3.048 -10.568   0.307  0.00  0.00    +0.183 A 
ATOM     13  O   UNL     1       1.984 -10.996  -0.428  0.00  0.00    -0.483 OA
ATOM     14  C   UNL     1       2.202 -12.131  -1.274  0.00  0.00    +0.270 C 
ATOM     15  C   UNL     1       2.951 -13.197  -0.464  0.00  0.00    +0.270 C 
ATOM     16  O   UNL     1       4.199 -12.634  -0.038  0.00  0.00    -0.485 OA
ENDBRANCH   4   7
BRANCH   1  17
ATOM     17  C   UNL     1       1.223  -4.883   0.146  0.00  0.00    +0.095 C 
BRANCH  17  18
ATOM     18  C   UNL     1      -0.135  -4.211  -0.070  0.00  0.00    -0.021 C 
BRANCH  18  23
ATOM     19  C   UNL     1      -2.382  -5.972  -5.094  0.00  0.00    +0.044 C 
ATOM     20  C   UNL     1      -1.796  -5.513  -3.784  0.00  0.00    -0.050 A 
ATOM     21  C   UNL     1      -2.225  -6.079  -2.598  0.00  0.00    +0.003 A 
ATOM     22  C   UNL     1      -1.687  -5.658  -1.397  0.00  0.00    +0.002 A 
ATOM     23  C   UNL     1      -0.720  -4.670  -1.380  0.00  0.00    -0.059 A 
ATOM     24  C   UNL     1      -0.290  -4.104  -2.566  0.00  0.00    +0.002 A 
ATOM     25  C   UNL     1      -0.825  -4.529  -3.768  0.00  0.00    +0.003 A 
ENDBRANCH  18  23
BRANCH  18  26
ATOM     26  N   UNL     1       0.040  -2.752  -0.097  0.00  0.00    +0.382 N 
ATOM     27  C   UNL     1      -1.273  -2.104  -0.213  0.00  0.00    -0.096 C 
ATOM     28  C   UNL     1       0.694  -2.315   1.144  0.00  0.00    -0.096 C 
ATOM     29  H   UNL     1       0.613  -2.497  -0.887  0.00  0.00    -0.082 HD
ENDBRANCH  18  26
ENDBRANCH  17  18
ENDBRANCH   1  17
TORSDOF 5
