REMARK  Name = ZINC20736452
REMARK  12 active torsions:
REMARK  status: ('A' for Active; 'I' for Inactive)
REMARK    1  A    between atoms: C_1  and  C_2
REMARK    2  A    between atoms: C_5  and  C_38
REMARK    3  A    between atoms: N_8  and  C_10
REMARK    4  A    between atoms: C_10  and  C_11
REMARK    5  A    between atoms: C_11  and  C_12
REMARK    6  A    between atoms: C_12  and  N_13
REMARK    7  A    between atoms: C_14  and  C_16
REMARK    8  A    between atoms: C_26  and  C_27
REMARK    9  A    between atoms: C_30  and  O_35
REMARK   10  A    between atoms: C_31  and  O_33
REMARK   11  A    between atoms: O_33  and  C_34
REMARK   12  A    between atoms: O_35  and  C_36
REMARK                            x       y       z     vdW  Elec       q    Type
REMARK                         _______ _______ _______ _____ _____    ______ ____
ROOT
ATOM      1  C   UNL     1       2.668  -6.738  -5.532  0.00  0.00    +0.039 A 
ATOM      2  C   UNL     1       3.481  -5.702  -6.000  0.00  0.00    +0.014 A 
ATOM      3  C   UNL     1       4.529  -5.988  -6.847  0.00  0.00    +0.017 A 
ATOM      4  C   UNL     1       4.776  -7.299  -7.233  0.00  0.00    +0.034 A 
ATOM      5  C   UNL     1       3.974  -8.348  -6.772  0.00  0.00    +0.048 A 
ATOM      6  C   UNL     1       2.920  -8.056  -5.914  0.00  0.00    +0.037 A 
ATOM      7  N   UNL     1       4.188  -9.674  -7.128  0.00  0.00    -0.280 N 
ATOM      8  C   UNL     1       5.321 -10.200  -7.600  0.00  0.00    +0.255 C 
ATOM      9  O   UNL     1       5.397 -11.400  -7.788  0.00  0.00    -0.269 OA
ATOM     10  C   UNL     1       6.485  -9.337  -7.896  0.00  0.00    +0.075 C 
ATOM     11  C   UNL     1       7.756  -9.804  -7.841  0.00  0.00    +0.028 C 
ATOM     12  S   UNL     1       6.121  -7.655  -8.324  0.00  0.00    -0.082 S 
ATOM     13  H   UNL     1       3.374 -10.408  -7.030  0.00  0.00    +0.155 HD
ENDROOT
BRANCH  11  14
ATOM     14  C   UNL     1       8.024 -11.143  -7.296  0.00  0.00    -0.020 A 
ATOM     15  C   UNL     1       7.267 -11.629  -6.224  0.00  0.00    +0.012 A 
ATOM     16  C   UNL     1       7.517 -12.886  -5.719  0.00  0.00    +0.050 A 
ATOM     17  C   UNL     1       8.526 -13.669  -6.263  0.00  0.00    +0.162 A 
ATOM     18  C   UNL     1       9.289 -13.190  -7.327  0.00  0.00    +0.162 A 
ATOM     19  C   UNL     1       9.042 -11.932  -7.843  0.00  0.00    +0.057 A 
BRANCH  18  20
ATOM     20  O   UNL     1      10.277 -13.960  -7.856  0.00  0.00    -0.491 OA
ATOM     21  C   UNL     1      11.019 -13.405  -8.944  0.00  0.00    +0.277 C 
ENDBRANCH  18  20
BRANCH  17  22
ATOM     22  O   UNL     1       8.772 -14.906  -5.757  0.00  0.00    -0.491 OA
ATOM     23  C   UNL     1       7.953 -15.335  -4.667  0.00  0.00    +0.277 C 
ENDBRANCH  17  22
ENDBRANCH  11  14
BRANCH   1  25
ATOM     24  N   UNL     1       1.302  -5.167  -4.249  0.00  0.00    -0.311 N 
ATOM     25  C   UNL     1       1.544  -6.438  -4.625  0.00  0.00    +0.244 C 
ATOM     26  O   UNL     1       0.835  -7.338  -4.216  0.00  0.00    -0.270 OA
ATOM     27  H   UNL     1       1.942  -4.353  -4.619  0.00  0.00    +0.149 HD
BRANCH  24  28
ATOM     28  C   UNL     1       0.185  -4.869  -3.349  0.00  0.00    +0.102 C 
BRANCH  28  29
ATOM     29  C   UNL     1       0.132  -3.363  -3.083  0.00  0.00    +0.000 C 
BRANCH  29  30
ATOM     30  C   UNL     1      -1.034  -3.052  -2.143  0.00  0.00    -0.077 C 
BRANCH  30  36
ATOM     31  C   UNL     1       1.572   0.996  -1.135  0.00  0.00    +0.005 C 
ATOM     32  C   UNL     1       0.184   0.447  -1.470  0.00  0.00    -0.031 C 
ATOM     33  C   UNL     1      -0.798   0.827  -0.359  0.00  0.00    +0.003 C 
ATOM     34  C   UNL     1      -2.170   0.223  -0.672  0.00  0.00    -0.031 C 
ATOM     35  C   UNL     1      -2.035  -1.295  -0.811  0.00  0.00    -0.076 C 
ATOM     36  N   UNL     1      -1.085  -1.606  -1.888  0.00  0.00    +0.380 N 
ATOM     37  C   UNL     1       0.251  -1.077  -1.587  0.00  0.00    -0.076 C 
ATOM     38  C   UNL     1      -3.143   0.547   0.464  0.00  0.00    +0.005 C 
ATOM     39  H   UNL     1      -1.443  -1.112  -2.803  0.00  0.00    -0.082 HD
ENDBRANCH  30  36
ENDBRANCH  29  30
ENDBRANCH  28  29
ENDBRANCH  24  28
ENDBRANCH   1  25
TORSDOF 8
