REMARK  Name = ZINC43259012
REMARK  8 active torsions:
REMARK  status: ('A' for Active; 'I' for Inactive)
REMARK    1  A    between atoms: C_1  and  C_2
REMARK    2  A    between atoms: C_2  and  C_3
REMARK    3  A    between atoms: C_3  and  C_5
REMARK    4  A    between atoms: C_3  and  N_23
REMARK    5  A    between atoms: C_5  and  C_7
REMARK    6  A    between atoms: C_5  and  N_13
REMARK    7  A    between atoms: C_15  and  C_22
REMARK    8  A    between atoms: C_18  and  C_21
REMARK                            x       y       z     vdW  Elec       q    Type
REMARK                         _______ _______ _______ _____ _____    ______ ____
ROOT
ATOM      1  C   UNL     1      -1.416  -2.058  -0.121  0.00  0.00    -0.046 C 
ENDROOT
BRANCH   1   2
ATOM      2  N   UNL     1      -0.661  -2.435  -1.324  0.00  0.00    +0.384 N 
ATOM      3  C   UNL     1      -1.297  -1.839  -2.505  0.00  0.00    -0.075 C 
ATOM      4  C   UNL     1      -0.470  -2.161  -3.752  0.00  0.00    -0.031 C 
ATOM      5  C   UNL     1      -0.389  -3.680  -3.925  0.00  0.00    +0.003 C 
ATOM      6  C   UNL     1       0.207  -4.298  -2.657  0.00  0.00    -0.031 C 
ATOM      7  C   UNL     1      -0.645  -3.897  -1.451  0.00  0.00    -0.075 C 
ATOM      8  C   UNL     1       0.221  -5.822  -2.789  0.00  0.00    +0.005 C 
ATOM      9  C   UNL     1      -1.135  -1.540  -4.981  0.00  0.00    +0.005 C 
ATOM     10  H   UNL     1       0.285  -2.094  -1.246  0.00  0.00    -0.081 HD
ENDBRANCH   1   2
BRANCH   1  11
ATOM     11  C   UNL     1      -0.759  -2.661   1.093  0.00  0.00    -0.024 A 
ATOM     12  C   UNL     1      -1.334  -3.227   2.182  0.00  0.00    +0.010 A 
ATOM     13  C   UNL     1      -0.525  -3.721   3.188  0.00  0.00    +0.023 A 
ATOM     14  C   UNL     1       0.822  -3.625   3.055  0.00  0.00    +0.055 A 
ATOM     15  S   UNL     1       0.979  -2.823   1.468  0.00  0.00    -0.088 S 
ATOM     16 BR   UNL     1       2.179  -4.197   4.240  0.00  0.00    -0.043 Br
ENDBRANCH   1  11
BRANCH   1  17
ATOM     17  C   UNL     1      -1.433  -0.534   0.013  0.00  0.00    -0.085 C 
BRANCH  17  18
ATOM     18  N   UNL     1      -2.083  -0.161   1.276  0.00  0.00    +0.379 N 
ATOM     19  H   UNL     1      -2.095   0.844   1.365  0.00  0.00    -0.090 HD
ATOM     20  H   UNL     1      -3.030  -0.510   1.284  0.00  0.00    -0.090 HD
ATOM     21  H   UNL     1      -1.571  -0.560   2.049  0.00  0.00    -0.090 HD
ENDBRANCH  17  18
BRANCH  17  23
ATOM     22  C   UNL     1      -0.019   1.526   0.010  0.00  0.00    +0.002 C 
ATOM     23  C   UNL     1       0.002  -0.004   0.002  0.00  0.00    -0.021 C 
ENDBRANCH  17  23
ENDBRANCH   1  17
TORSDOF 5
