REMARK  Name = ZINC13715844
REMARK  8 active torsions:
REMARK  status: ('A' for Active; 'I' for Inactive)
REMARK    1  A    between atoms: C_1  and  C_2
REMARK    2  A    between atoms: C_2  and  C_3
REMARK    3  A    between atoms: C_3  and  C_5
REMARK    4  A    between atoms: C_3  and  N_18
REMARK    5  A    between atoms: N_7  and  C_8
REMARK    6  A    between atoms: N_18  and  C_19
REMARK    7  A    between atoms: N_18  and  S_26
REMARK    8  A    between atoms: S_26  and  C_29
REMARK                            x       y       z     vdW  Elec       q    Type
REMARK                         _______ _______ _______ _____ _____    ______ ____
ROOT
ATOM      1  C   UNL     1      -1.847   6.866  -1.394  0.00  0.00    +0.183 C 
ENDROOT
BRANCH   1   2
ATOM      2  C   UNL     1      -2.043   5.389  -1.621  0.00  0.00    +0.236 C 
ATOM      3  O   UNL     1      -3.095   4.978  -2.064  0.00  0.00    -0.274 OA
ATOM      4  N   UNL     1      -1.050   4.525  -1.332  0.00  0.00    -0.308 N 
ATOM      5  H   UNL     1      -0.209   4.854  -0.978  0.00  0.00    +0.149 HD
BRANCH   4   6
ATOM      6  C   UNL     1      -1.241   3.089  -1.553  0.00  0.00    +0.035 C 
ATOM      7  C   UNL     1      -1.533   2.835  -3.033  0.00  0.00    +0.029 C 
ATOM      8  C   UNL     1      -1.732   1.336  -3.264  0.00  0.00    -0.008 C 
ATOM      9  C   UNL     1      -0.462   0.584  -2.858  0.00  0.00    +0.007 C 
ATOM     10  C   UNL     1      -0.170   0.838  -1.378  0.00  0.00    -0.008 C 
ATOM     11  C   UNL     1       0.029   2.338  -1.147  0.00  0.00    +0.029 C 
ATOM     12  C   UNL     1      -1.347   0.344  -0.534  0.00  0.00    +0.007 C 
ATOM     13  C   UNL     1      -2.617   1.096  -0.939  0.00  0.00    -0.008 C 
ATOM     14  C   UNL     1      -2.909   0.842  -2.420  0.00  0.00    +0.007 C 
ATOM     15  C   UNL     1      -2.417   2.595  -0.709  0.00  0.00    +0.029 C 
ENDBRANCH   4   6
ENDBRANCH   1   2
BRANCH   1  17
ATOM     16  C   UNL     1      -1.885   8.684   0.319  0.00  0.00    +0.006 C 
ATOM     17  C   UNL     1      -2.200   7.210   0.054  0.00  0.00    +0.030 C 
ENDBRANCH   1  17
BRANCH   1  18
ATOM     18  N   UNL     1      -2.716   7.619  -2.301  0.00  0.00    -0.196 N 
BRANCH  18  19
ATOM     19  C   UNL     1      -4.099   7.412  -2.277  0.00  0.00    +0.052 A 
ATOM     20  C   UNL     1      -4.835   7.759  -1.152  0.00  0.00    +0.027 A 
ATOM     21  C   UNL     1      -6.201   7.558  -1.132  0.00  0.00    +0.040 A 
ATOM     22  C   UNL     1      -6.836   7.001  -2.229  0.00  0.00    +0.124 A 
ATOM     23  C   UNL     1      -6.103   6.649  -3.350  0.00  0.00    +0.040 A 
ATOM     24  C   UNL     1      -4.738   6.853  -3.377  0.00  0.00    +0.027 A 
ATOM     25  F   UNL     1      -8.172   6.801  -2.206  0.00  0.00    -0.205 F 
ENDBRANCH  18  19
BRANCH  18  26
ATOM     26  S   UNL     1      -2.062   8.716  -3.355  0.00  0.00    +0.043 S 
ATOM     27  O   UNL     1      -3.136   9.584  -3.689  0.00  0.00    -0.155 OA
ATOM     28  O   UNL     1      -0.908   9.212  -2.691  0.00  0.00    -0.155 OA
ATOM     29  C   UNL     1      -1.576   7.737  -4.804  0.00  0.00    +0.218 C 
ENDBRANCH  18  26
ENDBRANCH   1  18
TORSDOF 6
