REMARK  Name = ZINC60087471
REMARK  9 active torsions:
REMARK  status: ('A' for Active; 'I' for Inactive)
REMARK    1  A    between atoms: C_1  and  C_2
REMARK    2  A    between atoms: C_2  and  C_4
REMARK    3  A    between atoms: C_2  and  N_11
REMARK    4  A    between atoms: C_12  and  C_14
REMARK    5  A    between atoms: C_14  and  N_15
REMARK    6  A    between atoms: N_15  and  C_16
REMARK    7  A    between atoms: C_19  and  N_26
REMARK    8  A    between atoms: C_21  and  C_22
REMARK    9  A    between atoms: C_27  and  C_29
REMARK                            x       y       z     vdW  Elec       q    Type
REMARK                         _______ _______ _______ _____ _____    ______ ____
ROOT
ATOM      1  C   UNL     1      -5.274  -1.683  -2.744  0.00  0.00    +0.039 A 
ATOM      2  C   UNL     1      -6.021  -2.244  -1.717  0.00  0.00    +0.025 A 
ATOM      3  C   UNL     1      -7.306  -2.687  -1.960  0.00  0.00    +0.025 A 
ATOM      4  C   UNL     1      -7.851  -2.571  -3.232  0.00  0.00    +0.034 A 
ATOM      5  C   UNL     1      -7.104  -2.010  -4.260  0.00  0.00    +0.037 A 
ATOM      6  C   UNL     1      -5.821  -1.562  -4.015  0.00  0.00    +0.077 A 
ENDROOT
BRANCH   6   7
ATOM      7  C   UNL     1      -5.012  -0.947  -5.128  0.00  0.00    +0.419 C 
ATOM      8  F   UNL     1      -5.771  -0.934  -6.304  0.00  0.00    -0.166 F 
ATOM      9  F   UNL     1      -4.665   0.364  -4.784  0.00  0.00    -0.166 F 
ATOM     10  F   UNL     1      -3.851  -1.699  -5.331  0.00  0.00    -0.166 F 
ENDBRANCH   6   7
BRANCH   4  11
ATOM     11  N   UNL     1      -9.154  -3.021  -3.479  0.00  0.00    -0.279 N 
ATOM     12  C   UNL     1     -10.092  -2.932  -2.516  0.00  0.00    +0.284 C 
ATOM     13  O   UNL     1      -9.834  -2.374  -1.465  0.00  0.00    -0.266 OA
ATOM     14  H   UNL     1      -9.382  -3.397  -4.344  0.00  0.00    +0.155 HD
BRANCH  12  15
ATOM     15  C   UNL     1     -11.423  -3.507  -2.732  0.00  0.00    +0.189 A 
ATOM     16  C   UNL     1     -12.462  -3.482  -1.846  0.00  0.00    +0.054 A 
ATOM     17  C   UNL     1     -13.535  -4.144  -2.464  0.00  0.00    +0.042 A 
ATOM     18  C   UNL     1     -13.110  -4.538  -3.684  0.00  0.00    +0.196 A 
ATOM     19  O   UNL     1     -11.838  -4.148  -3.845  0.00  0.00    -0.458 OA
ENDBRANCH  12  15
ENDBRANCH   4  11
BRANCH   1  20
ATOM     20  N   UNL     1      -3.972  -1.234  -2.498  0.00  0.00    -0.335 N 
ATOM     21  H   UNL     1      -3.451  -0.839  -3.215  0.00  0.00    +0.147 HD
BRANCH  20  22
ATOM     22  C   UNL     1      -3.394  -1.362  -1.158  0.00  0.00    +0.197 C 
BRANCH  22  24
ATOM     23  N   UNL     1      -1.262  -0.820  -0.027  0.00  0.00    -0.307 N 
ATOM     24  C   UNL     1      -1.993  -0.808  -1.159  0.00  0.00    +0.231 C 
ATOM     25  O   UNL     1      -1.522  -0.352  -2.180  0.00  0.00    -0.274 OA
ATOM     26  H   UNL     1      -1.638  -1.185   0.789  0.00  0.00    +0.149 HD
BRANCH  23  28
ATOM     27  C   UNL     1       0.051   1.231   0.193  0.00  0.00    +0.033 C 
ATOM     28  C   UNL     1       0.101  -0.282  -0.029  0.00  0.00    +0.100 C 
BRANCH  28  29
ATOM     29  C   UNL     1       0.897  -0.926   1.077  0.00  0.00    -0.027 A 
ATOM     30  C   UNL     1       0.306  -1.165   2.304  0.00  0.00    +0.008 A 
ATOM     31  C   UNL     1       1.035  -1.756   3.318  0.00  0.00    +0.038 A 
ATOM     32  C   UNL     1       2.357  -2.109   3.106  0.00  0.00    +0.123 A 
ATOM     33  C   UNL     1       2.947  -1.869   1.876  0.00  0.00    +0.038 A 
ATOM     34  C   UNL     1       2.215  -1.283   0.861  0.00  0.00    +0.008 A 
ATOM     35  F   UNL     1       3.071  -2.686   4.097  0.00  0.00    -0.205 F 
ENDBRANCH  28  29
ENDBRANCH  23  28
ENDBRANCH  22  24
ENDBRANCH  20  22
ENDBRANCH   1  20
TORSDOF 8
