REMARK  Name = ZINC12482004
REMARK  12 active torsions:
REMARK  status: ('A' for Active; 'I' for Inactive)
REMARK    1  A    between atoms: C_1  and  C_2
REMARK    2  A    between atoms: C_2  and  C_3
REMARK    3  A    between atoms: C_2  and  C_4
REMARK    4  A    between atoms: C_7  and  C_10
REMARK    5  A    between atoms: C_10  and  C_12
REMARK    6  A    between atoms: C_10  and  N_22
REMARK    7  A    between atoms: N_14  and  C_15
REMARK    8  A    between atoms: C_15  and  C_16
REMARK    9  A    between atoms: N_22  and  C_23
REMARK   10  A    between atoms: C_23  and  C_24
REMARK   11  A    between atoms: C_29  and  C_31
REMARK   12  A    between atoms: C_31  and  N_32
REMARK                            x       y       z     vdW  Elec       q    Type
REMARK                         _______ _______ _______ _____ _____    ______ ____
ROOT
ATOM      1  C   UNL     1       0.457  -2.521  -2.025  0.00  0.00    +0.193 C 
ENDROOT
BRANCH   1   5
ATOM      2  C   UNL     1      -2.174  -5.511  -0.480  0.00  0.00    -0.045 A 
ATOM      3  C   UNL     1      -2.057  -5.332  -1.845  0.00  0.00    +0.004 A 
ATOM      4  C   UNL     1      -1.205  -4.365  -2.346  0.00  0.00    +0.006 A 
ATOM      5  C   UNL     1      -0.471  -3.576  -1.480  0.00  0.00    -0.018 A 
ATOM      6  C   UNL     1      -0.584  -3.758  -0.114  0.00  0.00    +0.006 A 
ATOM      7  C   UNL     1      -1.439  -4.722   0.386  0.00  0.00    +0.004 A 
BRANCH   2   9
ATOM      8  C   UNL     1      -2.301  -7.572   0.893  0.00  0.00    +0.012 C 
ATOM      9  C   UNL     1      -3.103  -6.564   0.066  0.00  0.00    +0.013 C 
ATOM     10  C   UNL     1      -4.160  -5.903   0.952  0.00  0.00    +0.012 C 
ENDBRANCH   2   9
ENDBRANCH   1   5
BRANCH   1  11
ATOM     11  C   UNL     1      -0.099  -1.155  -1.717  0.00  0.00    +0.238 C 
ATOM     12  O   UNL     1      -0.367  -0.853  -0.573  0.00  0.00    -0.273 OA
ATOM     13  N   UNL     1      -0.298  -0.268  -2.712  0.00  0.00    -0.311 N 
ATOM     14  H   UNL     1      -0.083  -0.509  -3.627  0.00  0.00    +0.149 HD
BRANCH  13  15
ATOM     15  C   UNL     1      -0.838   1.060  -2.412  0.00  0.00    +0.135 C 
BRANCH  15  16
ATOM     16  C   UNL     1      -0.965   1.864  -3.708  0.00  0.00    +0.135 C 
ATOM     17  C   UNL     1      -1.533   3.264  -3.404  0.00  0.00    +0.035 C 
ATOM     18  C   UNL     1      -0.448   4.236  -3.929  0.00  0.00    +0.031 C 
ATOM     19  C   UNL     1       0.327   3.345  -4.933  0.00  0.00    +0.160 C 
ATOM     20  O   UNL     1       0.333   2.048  -4.298  0.00  0.00    -0.375 OA
ENDBRANCH  15  16
ENDBRANCH  13  15
ENDBRANCH   1  11
BRANCH   1  21
ATOM     21  N   UNL     1       1.776  -2.663  -1.404  0.00  0.00    -0.280 N 
ATOM     22  C   UNL     1       2.797  -3.197  -2.105  0.00  0.00    +0.238 C 
ATOM     23  O   UNL     1       2.623  -3.560  -3.249  0.00  0.00    -0.274 OA
BRANCH  21  24
ATOM     24  C   UNL     1       1.986  -2.225  -0.022  0.00  0.00    +0.151 C 
BRANCH  24  25
ATOM     25  C   UNL     1       2.616  -0.856  -0.019  0.00  0.00    +0.007 A 
ATOM     26  C   UNL     1       2.064   0.336   0.316  0.00  0.00    +0.013 A 
ATOM     27  C   UNL     1       2.841   1.477   0.246  0.00  0.00    +0.008 A 
ATOM     28  C   UNL     1       4.128   1.372  -0.166  0.00  0.00    +0.045 A 
ATOM     29  S   UNL     1       4.278  -0.382  -0.464  0.00  0.00    -0.100 S 
ENDBRANCH  24  25
ENDBRANCH  21  24
BRANCH  22  30
ATOM     30  C   UNL     1       4.152  -3.349  -1.464  0.00  0.00    +0.241 C 
BRANCH  30  31
ATOM     31  N   UNL     1       5.080  -3.956  -2.422  0.00  0.00    -0.235 N 
ATOM     32  C   UNL     1       5.322  -5.298  -2.596  0.00  0.00    +0.090 A 
ATOM     33  C   UNL     1       4.823  -6.454  -2.006  0.00  0.00    +0.029 A 
ATOM     34  C   UNL     1       5.275  -7.676  -2.418  0.00  0.00    +0.002 A 
ATOM     35  C   UNL     1       6.224  -7.775  -3.428  0.00  0.00    +0.002 A 
ATOM     36  C   UNL     1       6.724  -6.656  -4.027  0.00  0.00    +0.032 A 
ATOM     37  C   UNL     1       6.278  -5.391  -3.622  0.00  0.00    +0.113 A 
ATOM     38  N   UNL     1       6.580  -4.138  -4.016  0.00  0.00    -0.129 NA
ATOM     39  N   UNL     1       5.901  -3.281  -3.338  0.00  0.00    -0.064 NA
ENDBRANCH  30  31
ENDBRANCH  22  30
ENDBRANCH   1  21
TORSDOF 10
