REMARK  Name = ZINC63744060
REMARK  15 active torsions:
REMARK  status: ('A' for Active; 'I' for Inactive)
REMARK    1  A    between atoms: C_1  and  C_2
REMARK    2  A    between atoms: C_2  and  C_3
REMARK    3  A    between atoms: C_3  and  C_4
REMARK    4  A    between atoms: C_4  and  C_5
REMARK    5  A    between atoms: C_5  and  C_7
REMARK    6  A    between atoms: C_5  and  C_9
REMARK    7  A    between atoms: C_7  and  C_8
REMARK    8  A    between atoms: C_9  and  N_11
REMARK    9  A    between atoms: N_13  and  C_14
REMARK   10  A    between atoms: C_14  and  C_15
REMARK   11  A    between atoms: C_15  and  C_16
REMARK   12  A    between atoms: C_20  and  O_25
REMARK   13  A    between atoms: O_25  and  C_26
REMARK   14  A    between atoms: C_30  and  C_35
REMARK   15  A    between atoms: C_32  and  C_34
REMARK                            x       y       z     vdW  Elec       q    Type
REMARK                         _______ _______ _______ _____ _____    ______ ____
ROOT
ATOM      1  N   UNL     1      -4.256  -4.586  -0.224  0.00  0.00    -0.147 NA
ATOM      2  C   UNL     1      -4.363  -5.894  -0.033  0.00  0.00    +0.196 C 
ATOM      3  N   UNL     1      -3.264  -6.626   0.302  0.00  0.00    -0.357 N 
ATOM      4  N   UNL     1      -5.576  -6.507  -0.173  0.00  0.00    -0.297 N 
ATOM      5  C   UNL     1      -6.673  -5.782  -0.618  0.00  0.00    +0.231 A 
ATOM      6  N   UNL     1      -6.551  -4.478  -0.811  0.00  0.00    -0.217 NA
ATOM      7  C   UNL     1      -7.577  -3.757  -1.235  0.00  0.00    +0.044 A 
ATOM      8  C   UNL     1      -8.789  -4.385  -1.477  0.00  0.00    +0.046 A 
ATOM      9  C   UNL     1      -8.881  -5.751  -1.265  0.00  0.00    +0.044 A 
ATOM     10  N   UNL     1      -7.816  -6.413  -0.845  0.00  0.00    -0.217 NA
ATOM     11  C   UNL     1     -10.179  -6.476  -1.515  0.00  0.00    +0.066 C 
ATOM     12  C   UNL     1      -7.429  -2.273  -1.451  0.00  0.00    +0.066 C 
ATOM     13  H   UNL     1      -5.670  -7.449   0.039  0.00  0.00    +0.171 HD
ATOM     14  H   UNL     1      -2.423  -6.180   0.487  0.00  0.00    +0.162 HD
ENDROOT
BRANCH   1  15
ATOM     15  C   UNL     1      -3.052  -4.021  -0.300  0.00  0.00    +0.242 C 
ATOM     16  O   UNL     1      -2.054  -4.715  -0.305  0.00  0.00    -0.273 OA
BRANCH  15  17
ATOM     17  C   UNL     1      -2.927  -2.521  -0.381  0.00  0.00    +0.077 C 
BRANCH  17  18
ATOM     18  C   UNL     1      -3.554  -1.890   0.865  0.00  0.00    +0.009 C 
ATOM     19  C   UNL     1      -3.558  -0.367   0.717  0.00  0.00    +0.004 C 
ENDBRANCH  17  18
BRANCH  17  20
ATOM     20  C   UNL     1      -1.449  -2.135  -0.459  0.00  0.00    +0.013 C 
BRANCH  20  21
ATOM     21  C   UNL     1      -0.861  -2.634  -1.780  0.00  0.00    +0.000 C 
BRANCH  21  23
ATOM     22  C   UNL     1       1.169  -2.639  -3.237  0.00  0.00    +0.004 C 
ATOM     23  C   UNL     1       0.581  -2.140  -1.915  0.00  0.00    -0.003 C 
ENDBRANCH  21  23
ENDBRANCH  20  21
ENDBRANCH  17  20
ENDBRANCH  15  17
ENDBRANCH   1  15
BRANCH   3  24
ATOM     24  C   UNL     1      -3.353  -8.086   0.382  0.00  0.00    +0.120 C 
BRANCH  24  25
ATOM     25  C   UNL     1      -2.026  -8.651   0.893  0.00  0.00    +0.054 C 
BRANCH  25  26
ATOM     26  C   UNL     1      -2.075 -10.156   0.859  0.00  0.00    -0.040 C 
ATOM     27  C   UNL     1      -1.608 -10.962  -0.120  0.00  0.00    -0.001 A 
ATOM     28  C   UNL     1      -0.941 -10.686  -1.399  0.00  0.00    +0.013 A 
ATOM     29  C   UNL     1      -0.581 -11.721  -2.188  0.00  0.00    +0.046 A 
ATOM     30  C   UNL     1      -0.831 -13.056  -1.815  0.00  0.00    +0.122 A 
ATOM     31  C   UNL     1      -1.443 -13.385  -0.650  0.00  0.00    +0.071 A 
ATOM     32  C   UNL     1      -1.860 -12.374   0.251  0.00  0.00    +0.046 A 
ATOM     33  N   UNL     1      -2.461 -12.436   1.417  0.00  0.00    -0.380 N 
ATOM     34  C   UNL     1      -2.650 -11.070   1.918  0.00  0.00    +0.144 C 
ATOM     35  H   UNL     1      -2.730 -13.249   1.873  0.00  0.00    +0.160 HD
BRANCH  30  36
ATOM     36  O   UNL     1      -0.446 -14.050  -2.654  0.00  0.00    -0.495 OA
ATOM     37  C   UNL     1       0.195 -13.661  -3.870  0.00  0.00    +0.277 C 
ENDBRANCH  30  36
ENDBRANCH  25  26
ENDBRANCH  24  25
ENDBRANCH   3  24
TORSDOF 10
