REMARK  Name = ZINC23336181
REMARK  14 active torsions:
REMARK  status: ('A' for Active; 'I' for Inactive)
REMARK    1  A    between atoms: C_1  and  C_2
REMARK    2  A    between atoms: C_2  and  N_3
REMARK    3  A    between atoms: N_3  and  C_4
REMARK    4  A    between atoms: N_3  and  C_6
REMARK    5  A    between atoms: C_4  and  C_5
REMARK    6  A    between atoms: C_6  and  C_7
REMARK    7  A    between atoms: C_7  and  C_8
REMARK    8  A    between atoms: C_8  and  C_9
REMARK    9  A    between atoms: C_9  and  C_11
REMARK   10  A    between atoms: C_9  and  N_12
REMARK   11  A    between atoms: C_13  and  C_15
REMARK   12  A    between atoms: C_18  and  C_21
REMARK   13  A    between atoms: C_23  and  C_27
REMARK   14  A    between atoms: C_30  and  N_33
REMARK                            x       y       z     vdW  Elec       q    Type
REMARK                         _______ _______ _______ _____ _____    ______ ____
ROOT
ATOM      1  C   UNL     1      -5.558   0.407   3.586  0.00  0.00    +0.037 A 
ATOM      2  C   UNL     1      -5.785  -0.643   2.692  0.00  0.00    +0.014 A 
ATOM      3  C   UNL     1      -7.066  -1.053   2.427  0.00  0.00    +0.011 A 
ATOM      4  C   UNL     1      -8.145  -0.414   3.043  0.00  0.00    -0.000 A 
ATOM      5  C   UNL     1      -7.919   0.639   3.932  0.00  0.00    +0.011 A 
ATOM      6  C   UNL     1      -6.637   1.046   4.202  0.00  0.00    +0.014 A 
ENDROOT
BRANCH   4   7
ATOM      7  C   UNL     1      -9.527  -0.853   2.753  0.00  0.00    +0.066 A 
ATOM      8  C   UNL     1      -9.893  -1.858   1.906  0.00  0.00    +0.057 A 
ATOM      9  C   UNL     1     -11.295  -1.946   1.926  0.00  0.00    +0.093 A 
ATOM     10  N   UNL     1     -11.756  -1.024   2.745  0.00  0.00    -0.173 NA
ATOM     11  N   UNL     1     -10.668  -0.322   3.279  0.00  0.00    -0.276 N 
ATOM     12  H   UNL     1     -10.609   0.513   3.992  0.00  0.00    +0.189 HD
BRANCH   9  13
ATOM     13  C   UNL     1     -12.116  -2.910   1.151  0.00  0.00    +0.002 A 
ATOM     14  C   UNL     1     -11.499  -3.835   0.311  0.00  0.00    +0.012 A 
ATOM     15  C   UNL     1     -12.263  -4.734  -0.403  0.00  0.00    +0.024 A 
ATOM     16  C   UNL     1     -13.649  -4.709  -0.295  0.00  0.00    +0.030 A 
ATOM     17  C   UNL     1     -14.266  -3.783   0.538  0.00  0.00    +0.024 A 
ATOM     18  C   UNL     1     -13.505  -2.887   1.258  0.00  0.00    +0.012 A 
BRANCH  16  19
ATOM     19  N   UNL     1     -14.421  -5.615  -1.024  0.00  0.00    -0.330 N 
ATOM     20  C   UNL     1     -15.299  -6.390  -0.137  0.00  0.00    +0.105 C 
ATOM     21  C   UNL     1     -16.231  -7.266  -0.978  0.00  0.00    +0.019 C 
ATOM     22  C   UNL     1     -15.393  -8.207  -1.847  0.00  0.00    +0.003 C 
ATOM     23  C   UNL     1     -14.453  -7.377  -2.725  0.00  0.00    +0.019 C 
ATOM     24  C   UNL     1     -13.572  -6.498  -1.834  0.00  0.00    +0.105 C 
ENDBRANCH  16  19
ENDBRANCH   9  13
ENDBRANCH   4   7
BRANCH   1  26
ATOM     25  N   UNL     1      -3.136   0.228   3.282  0.00  0.00    -0.309 N 
ATOM     26  C   UNL     1      -4.178   0.844   3.876  0.00  0.00    +0.244 C 
ATOM     27  O   UNL     1      -3.980   1.761   4.650  0.00  0.00    -0.270 OA
ATOM     28  H   UNL     1      -3.315  -0.601   2.582  0.00  0.00    +0.149 HD
BRANCH  25  29
ATOM     29  C   UNL     1      -1.767   0.662   3.570  0.00  0.00    +0.070 C 
ATOM     30  C   UNL     1      -1.267  -0.033   4.838  0.00  0.00    +0.028 C 
BRANCH  29  31
ATOM     31  C   UNL     1      -0.858   0.296   2.395  0.00  0.00    +0.020 C 
BRANCH  31  32
ATOM     32  C   UNL     1      -1.282   1.087   1.156  0.00  0.00    -0.017 C 
BRANCH  32  33
ATOM     33  C   UNL     1      -0.374   0.721  -0.019  0.00  0.00    -0.079 C 
BRANCH  33  34
ATOM     34  N   UNL     1      -0.781   1.481  -1.208  0.00  0.00    +0.379 N 
ATOM     35  H   UNL     1      -1.861   1.331  -1.352  0.00  0.00    -0.082 HD
BRANCH  34  37
ATOM     36  C   UNL     1       0.947   3.166  -0.792  0.00  0.00    -0.017 C 
ATOM     37  C   UNL     1      -0.546   2.919  -1.020  0.00  0.00    -0.082 C 
ENDBRANCH  34  37
BRANCH  34  38
ATOM     38  C   UNL     1      -0.093   0.988  -2.409  0.00  0.00    -0.082 C 
ATOM     39  C   UNL     1      -0.806   1.512  -3.657  0.00  0.00    -0.017 C 
ENDBRANCH  34  38
ENDBRANCH  33  34
ENDBRANCH  32  33
ENDBRANCH  31  32
ENDBRANCH  29  31
ENDBRANCH  25  29
ENDBRANCH   1  26
TORSDOF 11
