REMARK  Name = ZINC32947494
REMARK  6 active torsions:
REMARK  status: ('A' for Active; 'I' for Inactive)
REMARK    1  A    between atoms: C_1  and  C_2
REMARK    2  A    between atoms: C_5  and  N_9
REMARK    3  A    between atoms: C_6  and  C_8
REMARK    4  A    between atoms: C_12  and  N_24
REMARK    5  A    between atoms: C_13  and  C_15
REMARK    6  A    between atoms: C_15  and  C_17
REMARK                            x       y       z     vdW  Elec       q    Type
REMARK                         _______ _______ _______ _____ _____    ______ ____
ROOT
ATOM      1  N   UNL     1       4.484   5.720   0.040  0.00  0.00    -0.293 N 
ATOM      2  C   UNL     1       3.634   4.637  -0.017  0.00  0.00    +0.165 A 
ATOM      3  N   UNL     1       3.938   3.348  -0.002  0.00  0.00    -0.210 NA
ATOM      4  C   UNL     1       3.011   2.422  -0.063  0.00  0.00    +0.136 A 
ATOM      5  C   UNL     1       1.678   2.852  -0.146  0.00  0.00    +0.102 A 
ATOM      6  S   UNL     1       1.902   4.624  -0.134  0.00  0.00    -0.047 S 
ATOM      7  H   UNL     1       4.073   6.738   0.104  0.00  0.00    +0.154 HD
ENDROOT
BRANCH   1  12
ATOM      8  C   UNL     1      10.099   4.928  -0.056  0.00  0.00    +0.044 C 
ATOM      9  C   UNL     1       8.607   5.138  -0.031  0.00  0.00    -0.050 A 
ATOM     10  C   UNL     1       7.758   4.050   0.056  0.00  0.00    +0.005 A 
ATOM     11  C   UNL     1       6.391   4.239   0.085  0.00  0.00    +0.024 A 
ATOM     12  C   UNL     1       5.867   5.524   0.016  0.00  0.00    +0.036 A 
ATOM     13  C   UNL     1       6.723   6.615  -0.070  0.00  0.00    -0.029 A 
ATOM     14  C   UNL     1       8.090   6.419  -0.093  0.00  0.00    +0.008 A 
ATOM     15  C   UNL     1       6.160   8.012  -0.139  0.00  0.00    +0.045 C 
ENDBRANCH   1  12
BRANCH   4  16
ATOM     16  N   UNL     1       3.334   1.075  -0.047  0.00  0.00    -0.342 N 
ATOM     17  H   UNL     1       2.539   0.318  -0.099  0.00  0.00    +0.144 HD
ATOM     18  H   UNL     1       4.387   0.763   0.019  0.00  0.00    +0.144 HD
ENDBRANCH   4  16
BRANCH   5  19
ATOM     19  C   UNL     1       0.493   2.096  -0.223  0.00  0.00    +0.203 C 
ATOM     20  O   UNL     1       0.549   0.884  -0.343  0.00  0.00    -0.286 OA
BRANCH  19  21
ATOM     21  C   UNL     1      -0.822   2.773  -0.165  0.00  0.00    +0.023 A 
ATOM     22  C   UNL     1      -1.949   2.163  -0.717  0.00  0.00    +0.013 A 
ATOM     23  C   UNL     1      -3.173   2.796  -0.654  0.00  0.00    +0.021 A 
ATOM     24  C   UNL     1      -3.282   4.040  -0.056  0.00  0.00    +0.041 A 
ATOM     25  C   UNL     1      -2.166   4.653   0.488  0.00  0.00    +0.021 A 
ATOM     26  C   UNL     1      -0.938   4.027   0.437  0.00  0.00    +0.013 A 
ATOM     27 CL   UNL     1      -4.824   4.835   0.012  0.00  0.00    -0.084 Cl
ENDBRANCH  19  21
ENDBRANCH   5  19
TORSDOF 4
