REMARK  Name = ZINC32116533
REMARK  8 active torsions:
REMARK  status: ('A' for Active; 'I' for Inactive)
REMARK    1  A    between atoms: C_1  and  C_2
REMARK    2  A    between atoms: C_2  and  C_3
REMARK    3  A    between atoms: C_2  and  O_4
REMARK    4  A    between atoms: O_4  and  C_5
REMARK    5  A    between atoms: C_9  and  C_11
REMARK    6  A    between atoms: N_13  and  C_14
REMARK    7  A    between atoms: C_21  and  C_23
REMARK    8  A    between atoms: C_26  and  O_30
REMARK                            x       y       z     vdW  Elec       q    Type
REMARK                         _______ _______ _______ _____ _____    ______ ____
ROOT
ATOM      1  C   UNL     1      -6.047  -5.358  -2.576  0.00  0.00    +0.036 A 
ATOM      2  C   UNL     1      -7.089  -4.433  -2.570  0.00  0.00    +0.027 A 
ATOM      3  C   UNL     1      -8.388  -4.843  -2.783  0.00  0.00    +0.050 A 
ATOM      4  C   UNL     1      -8.664  -6.184  -3.006  0.00  0.00    +0.156 A 
ATOM      5  C   UNL     1      -7.620  -7.122  -3.013  0.00  0.00    +0.112 A 
ATOM      6  C   UNL     1      -6.306  -6.698  -2.802  0.00  0.00    +0.055 A 
ATOM      7  N   UNL     1      -8.185  -8.334  -3.252  0.00  0.00    -0.209 NA
ATOM      8  C   UNL     1      -9.479  -8.176  -3.384  0.00  0.00    +0.228 A 
ATOM      9  O   UNL     1      -9.802  -6.877  -3.240  0.00  0.00    -0.435 OA
ENDROOT
BRANCH   8  10
ATOM     10  C   UNL     1     -10.441  -9.263  -3.653  0.00  0.00    +0.038 A 
ATOM     11  C   UNL     1      -9.993 -10.580  -3.780  0.00  0.00    +0.017 A 
ATOM     12  C   UNL     1     -10.894 -11.592  -4.030  0.00  0.00    +0.047 A 
ATOM     13  C   UNL     1     -12.247 -11.304  -4.157  0.00  0.00    +0.131 A 
ATOM     14  C   UNL     1     -12.697  -9.995  -4.032  0.00  0.00    +0.060 A 
ATOM     15  C   UNL     1     -11.803  -8.978  -3.776  0.00  0.00    +0.032 A 
ATOM     16 BR   UNL     1     -14.540  -9.610  -4.207  0.00  0.00    -0.047 Br
BRANCH  13  17
ATOM     17  O   UNL     1     -13.132 -12.304  -4.405  0.00  0.00    -0.506 OA
ATOM     18  H   UNL     1     -13.495 -12.714  -3.608  0.00  0.00    +0.292 HD
ENDBRANCH  13  17
ENDBRANCH   8  10
BRANCH   1  21
ATOM     19  C   UNL     1      -4.490  -3.897  -1.526  0.00  0.00    +0.248 C 
ATOM     20  O   UNL     1      -5.401  -3.397  -0.895  0.00  0.00    -0.270 OA
ATOM     21  N   UNL     1      -4.733  -4.929  -2.358  0.00  0.00    -0.281 N 
ATOM     22  H   UNL     1      -3.996  -5.374  -2.805  0.00  0.00    +0.155 HD
BRANCH  19  27
ATOM     23  C   UNL     1      -1.572  -1.815  -0.391  0.00  0.00    +0.122 A 
ATOM     24  C   UNL     1      -0.536  -2.390  -1.114  0.00  0.00    +0.046 A 
ATOM     25  C   UNL     1      -0.786  -3.450  -1.967  0.00  0.00    +0.004 A 
ATOM     26  C   UNL     1      -2.068  -3.942  -2.104  0.00  0.00    +0.013 A 
ATOM     27  C   UNL     1      -3.116  -3.371  -1.381  0.00  0.00    +0.040 A 
ATOM     28  C   UNL     1      -2.861  -2.306  -0.517  0.00  0.00    +0.058 A 
BRANCH  23  29
ATOM     29  O   UNL     1      -1.321  -0.774   0.446  0.00  0.00    -0.489 OA
BRANCH  29  31
ATOM     30  C   UNL     1      -0.030   1.218   0.898  0.00  0.00    +0.051 C 
ATOM     31  C   UNL     1       0.004  -0.240   0.436  0.00  0.00    +0.167 C 
ATOM     32  C   UNL     1       0.890  -1.054   1.382  0.00  0.00    +0.051 C 
ENDBRANCH  29  31
ENDBRANCH  23  29
ENDBRANCH  19  27
ENDBRANCH   1  21
TORSDOF 6
