REMARK  Name = ZINC01381985
REMARK  11 active torsions:
REMARK  status: ('A' for Active; 'I' for Inactive)
REMARK    1  A    between atoms: C_1  and  C_2
REMARK    2  A    between atoms: C_6  and  C_15
REMARK    3  A    between atoms: C_13  and  C_14
REMARK    4  A    between atoms: C_15  and  C_17
REMARK    5  A    between atoms: C_15  and  N_28
REMARK    6  A    between atoms: N_21  and  C_22
REMARK    7  A    between atoms: C_22  and  C_23
REMARK    8  A    between atoms: N_28  and  C_29
REMARK    9  A    between atoms: N_28  and  C_36
REMARK   10  A    between atoms: C_29  and  C_30
REMARK   11  A    between atoms: C_36  and  C_37
REMARK                            x       y       z     vdW  Elec       q    Type
REMARK                         _______ _______ _______ _____ _____    ______ ____
ROOT
ATOM      1  C   UNL     1      -1.705  -4.545  -4.358  0.00  0.00    +0.163 C 
ENDROOT
BRANCH   1   7
ATOM      2  C   UNL     1      -0.245  -1.788   2.415  0.00  0.00    +0.044 C 
ATOM      3  C   UNL     1      -1.161  -2.506   1.458  0.00  0.00    -0.047 A 
ATOM      4  C   UNL     1      -0.762  -2.717   0.169  0.00  0.00    +0.013 A 
ATOM      5  C   UNL     1      -1.612  -3.383  -0.720  0.00  0.00    -0.001 A 
ATOM      6  C   UNL     1      -1.216  -3.627  -2.108  0.00  0.00    +0.021 A 
ATOM      7  C   UNL     1      -2.081  -4.278  -2.924  0.00  0.00    +0.042 A 
ATOM      8  C   UNL     1      -3.333  -4.707  -2.434  0.00  0.00    +0.254 A 
ATOM      9  O   UNL     1      -4.096  -5.291  -3.184  0.00  0.00    -0.268 OA
ATOM     10  N   UNL     1      -3.706  -4.488  -1.161  0.00  0.00    -0.322 N 
ATOM     11  H   UNL     1      -4.574  -4.797  -0.857  0.00  0.00    +0.169 HD
ATOM     12  C   UNL     1      -2.872  -3.831  -0.281  0.00  0.00    +0.049 A 
ATOM     13  C   UNL     1      -3.257  -3.604   1.036  0.00  0.00    +0.030 A 
ATOM     14  C   UNL     1      -2.400  -2.951   1.896  0.00  0.00    -0.046 A 
ATOM     15  C   UNL     1      -2.817  -2.712   3.324  0.00  0.00    +0.044 C 
ENDBRANCH   1   7
BRANCH   1  16
ATOM     16  C   UNL     1      -0.302  -4.053  -4.610  0.00  0.00    +0.174 A 
ATOM     17  N   UNL     1       0.768  -4.354  -3.917  0.00  0.00    -0.111 NA
ATOM     18  N   UNL     1       1.770  -3.738  -4.443  0.00  0.00    -0.023 NA
ATOM     19  N   UNL     1       1.365  -3.051  -5.454  0.00  0.00    -0.043 NA
ATOM     20  N   UNL     1       0.094  -3.224  -5.593  0.00  0.00    -0.220 N 
BRANCH  20  21
ATOM     21  C   UNL     1      -0.758  -2.626  -6.624  0.00  0.00    +0.221 C 
BRANCH  21  22
ATOM     22  C   UNL     1      -1.290  -1.305  -6.132  0.00  0.00    +0.126 A 
ATOM     23  C   UNL     1      -0.703  -0.107  -6.304  0.00  0.00    +0.046 A 
ATOM     24  C   UNL     1      -1.539   0.852  -5.687  0.00  0.00    +0.041 A 
ATOM     25  C   UNL     1      -2.588   0.183  -5.176  0.00  0.00    +0.195 A 
ATOM     26  O   UNL     1      -2.435  -1.123  -5.453  0.00  0.00    -0.466 OA
ENDBRANCH  21  22
ENDBRANCH  20  21
ENDBRANCH   1  16
BRANCH   1  27
ATOM     27  N   UNL     1      -1.772  -5.989  -4.622  0.00  0.00    -0.280 NA
BRANCH  27  28
ATOM     28  C   UNL     1      -0.867  -6.729  -3.732  0.00  0.00    +0.121 C 
BRANCH  28  29
ATOM     29  C   UNL     1      -1.510  -6.883  -2.378  0.00  0.00    -0.033 A 
ATOM     30  C   UNL     1      -0.856  -6.431  -1.247  0.00  0.00    +0.005 A 
ATOM     31  C   UNL     1      -1.445  -6.573  -0.005  0.00  0.00    +0.000 A 
ATOM     32  C   UNL     1      -2.689  -7.166   0.107  0.00  0.00    +0.000 A 
ATOM     33  C   UNL     1      -3.343  -7.617  -1.024  0.00  0.00    +0.000 A 
ATOM     34  C   UNL     1      -2.756  -7.472  -2.267  0.00  0.00    +0.005 A 
ENDBRANCH  28  29
ENDBRANCH  27  28
BRANCH  27  35
ATOM     35  C   UNL     1      -1.479  -6.281  -6.032  0.00  0.00    +0.122 C 
BRANCH  35  36
ATOM     36  C   UNL     1      -1.935  -7.679  -6.360  0.00  0.00    -0.015 A 
ATOM     37  C   UNL     1      -1.077  -8.755  -6.191  0.00  0.00    +0.008 A 
ATOM     38  C   UNL     1      -1.539 -10.023  -6.507  0.00  0.00    +0.020 A 
ATOM     39  C   UNL     1      -2.831 -10.172  -6.976  0.00  0.00    +0.111 A 
ATOM     40  N   UNL     1      -3.619  -9.125  -7.124  0.00  0.00    -0.263 NA
ATOM     41  C   UNL     1      -3.215  -7.905  -6.829  0.00  0.00    +0.115 A 
ENDBRANCH  35  36
ENDBRANCH  27  35
ENDBRANCH   1  27
TORSDOF 9
