REMARK  Name = ZINC01127382
REMARK  8 active torsions:
REMARK  status: ('A' for Active; 'I' for Inactive)
REMARK    1  A    between atoms: C_1  and  C_2
REMARK    2  A    between atoms: C_7  and  N_8
REMARK    3  A    between atoms: C_9  and  C_11
REMARK    4  A    between atoms: C_12  and  C_35
REMARK    5  A    between atoms: C_16  and  S_27
REMARK    6  A    between atoms: C_19  and  C_21
REMARK    7  A    between atoms: S_27  and  C_28
REMARK    8  A    between atoms: C_28  and  C_29
REMARK                            x       y       z     vdW  Elec       q    Type
REMARK                         _______ _______ _______ _____ _____    ______ ____
ROOT
ATOM      1  C   UNL     1       0.079  -0.181   4.907  0.00  0.00    +0.060 C 
ATOM      2  C   UNL     1       0.161  -0.972   5.987  0.00  0.00    +0.018 C 
ATOM      3  N   UNL     1       0.193  -0.467   7.264  0.00  0.00    -0.287 N 
ATOM      4  C   UNL     1       0.403   0.898   7.406  0.00  0.00    +0.219 A 
ATOM      5  N   UNL     1       0.693   1.597   8.470  0.00  0.00    -0.187 NA
ATOM      6  C   UNL     1       0.812   2.890   8.137  0.00  0.00    +0.211 A 
ATOM      7  N   UNL     1       0.593   3.022   6.846  0.00  0.00    -0.141 NA
ATOM      8  N   UNL     1       0.323   1.747   6.352  0.00  0.00    -0.220 N 
ATOM      9  C   UNL     1       0.009   1.321   4.992  0.00  0.00    +0.179 C 
ATOM     10  C   UNL     1       0.219  -2.465   5.793  0.00  0.00    +0.061 C 
ATOM     11  H   UNL     1       0.073  -1.042   8.036  0.00  0.00    +0.155 HD
ENDROOT
BRANCH   9  12
ATOM     12  C   UNL     1      -1.381   1.780   4.635  0.00  0.00    -0.000 A 
ATOM     13  C   UNL     1      -1.585   2.626   3.556  0.00  0.00    +0.009 A 
ATOM     14  C   UNL     1      -2.881   3.023   3.265  0.00  0.00    +0.020 A 
ATOM     15  C   UNL     1      -3.920   2.564   4.054  0.00  0.00    +0.111 A 
ATOM     16  N   UNL     1      -3.688   1.760   5.072  0.00  0.00    -0.263 NA
ATOM     17  C   UNL     1      -2.469   1.358   5.375  0.00  0.00    +0.116 A 
ENDBRANCH   9  12
BRANCH   1  19
ATOM     18  N   UNL     1      -1.096  -1.232   3.108  0.00  0.00    -0.281 N 
ATOM     19  C   UNL     1       0.064  -0.785   3.628  0.00  0.00    +0.248 C 
ATOM     20  O   UNL     1       1.099  -0.901   2.997  0.00  0.00    -0.270 OA
ATOM     21  H   UNL     1      -1.931  -1.067   3.572  0.00  0.00    +0.155 HD
BRANCH  18  28
ATOM     22  C   UNL     1      -3.476  -1.222   1.548  0.00  0.00    +0.045 C 
ATOM     23  C   UNL     1      -2.236  -1.954   1.105  0.00  0.00    -0.029 A 
ATOM     24  C   UNL     1      -2.230  -2.643  -0.092  0.00  0.00    +0.005 A 
ATOM     25  C   UNL     1      -1.092  -3.315  -0.499  0.00  0.00    +0.000 A 
ATOM     26  C   UNL     1       0.043  -3.301   0.291  0.00  0.00    +0.002 A 
ATOM     27  C   UNL     1       0.044  -2.615   1.489  0.00  0.00    +0.023 A 
ATOM     28  C   UNL     1      -1.095  -1.933   1.898  0.00  0.00    +0.037 A 
ENDBRANCH  18  28
ENDBRANCH   1  19
BRANCH   6  29
ATOM     29  S   UNL     1       1.198   4.202   9.249  0.00  0.00    -0.080 S 
BRANCH  29  30
ATOM     30  C   UNL     1       1.379   3.377  10.854  0.00  0.00    +0.112 C 
BRANCH  30  31
ATOM     31  C   UNL     1       1.714   4.399  11.909  0.00  0.00    -0.037 A 
ATOM     32  C   UNL     1       3.035   4.710  12.175  0.00  0.00    +0.004 A 
ATOM     33  C   UNL     1       3.343   5.648  13.143  0.00  0.00    +0.000 A 
ATOM     34  C   UNL     1       2.330   6.275  13.845  0.00  0.00    +0.000 A 
ATOM     35  C   UNL     1       1.010   5.964  13.578  0.00  0.00    +0.000 A 
ATOM     36  C   UNL     1       0.702   5.029  12.607  0.00  0.00    +0.004 A 
ENDBRANCH  30  31
ENDBRANCH  29  30
ENDBRANCH   6  29
TORSDOF 6
