REMARK  Name = ZINC06917319
REMARK  5 active torsions:
REMARK  status: ('A' for Active; 'I' for Inactive)
REMARK    1  A    between atoms: C_6  and  C_7
REMARK    2  A    between atoms: C_7  and  N_8
REMARK    3  A    between atoms: N_8  and  S_9
REMARK    4  A    between atoms: S_9  and  C_12
REMARK    5  A    between atoms: C_18  and  C_23
REMARK                            x       y       z     vdW  Elec       q    Type
REMARK                         _______ _______ _______ _____ _____    ______ ____
ROOT
ATOM      1  C   UNL     1      -4.462  -1.352  -0.268  0.00  0.00    +0.106 A 
ATOM      2  C   UNL     1      -4.970  -1.633   0.987  0.00  0.00    +0.030 A 
ATOM      3  C   UNL     1      -6.235  -1.210   1.337  0.00  0.00    +0.025 A 
ATOM      4  C   UNL     1      -7.012  -0.496   0.427  0.00  0.00    +0.037 A 
ATOM      5  C   UNL     1      -6.490  -0.221  -0.831  0.00  0.00    -0.012 A 
ATOM      6  C   UNL     1      -5.225  -0.639  -1.176  0.00  0.00    +0.034 A 
ATOM      7  C   UNL     1      -7.555   0.554  -1.573  0.00  0.00    +0.110 C 
ATOM      8  C   UNL     1      -8.693   0.659  -0.579  0.00  0.00    +0.225 C 
ATOM      9  O   UNL     1      -9.759   1.208  -0.761  0.00  0.00    -0.275 OA
ATOM     10  N   UNL     1      -8.299   0.031   0.541  0.00  0.00    -0.285 N 
ATOM     11  H   UNL     1      -8.846  -0.047   1.338  0.00  0.00    +0.155 HD
ENDROOT
BRANCH   7  12
ATOM     12  C   UNL     1      -7.040   1.944  -1.953  0.00  0.00    +0.005 C 
ATOM     13  C   UNL     1      -8.160   2.751  -2.642  0.00  0.00    +0.004 C 
ATOM     14  C   UNL     1      -7.424   3.561  -3.738  0.00  0.00    +0.000 C 
ATOM     15  C   UNL     1      -6.359   2.558  -4.246  0.00  0.00    +0.000 C 
ATOM     16  C   UNL     1      -5.895   1.821  -2.973  0.00  0.00    +0.004 C 
ENDBRANCH   7  12
BRANCH   1  17
ATOM     17  S   UNL     1      -2.844  -1.895  -0.708  0.00  0.00    +0.059 S 
ATOM     18  O   UNL     1      -2.813  -1.972  -2.127  0.00  0.00    -0.153 OA
ATOM     19  O   UNL     1      -2.551  -3.011   0.122  0.00  0.00    -0.153 OA
BRANCH  17  20
ATOM     20  N   UNL     1      -1.790  -0.694  -0.276  0.00  0.00    -0.186 NA
ATOM     21  H   UNL     1      -1.290  -0.218  -0.958  0.00  0.00    +0.148 HD
BRANCH  20  22
ATOM     22  C   UNL     1      -1.612  -0.348   1.136  0.00  0.00    +0.141 C 
BRANCH  22  28
ATOM     23  C   UNL     1      -0.444   1.864   1.208  0.00  0.00    +0.009 A 
ATOM     24  C   UNL     1       0.695   2.634   1.354  0.00  0.00    +0.050 A 
ATOM     25  C   UNL     1       1.917   2.026   1.589  0.00  0.00    +0.166 A 
ATOM     26  C   UNL     1       1.995   0.638   1.679  0.00  0.00    +0.167 A 
ATOM     27  C   UNL     1       0.849  -0.127   1.531  0.00  0.00    +0.054 A 
ATOM     28  C   UNL     1      -0.367   0.487   1.296  0.00  0.00    -0.028 A 
ATOM     29  O   UNL     1       3.293   0.288   1.913  0.00  0.00    -0.453 OA
ATOM     30  C   UNL     1       4.073   1.445   1.559  0.00  0.00    +0.466 C 
ATOM     31  O   UNL     1       3.167   2.545   1.767  0.00  0.00    -0.453 OA
ENDBRANCH  22  28
ENDBRANCH  20  22
ENDBRANCH  17  20
ENDBRANCH   1  17
TORSDOF 5
