REMARK  Name = ZINC11855949
REMARK  3 active torsions:
REMARK  status: ('A' for Active; 'I' for Inactive)
REMARK    1  A    between atoms: C_6  and  C_11
REMARK    2  A    between atoms: N_13  and  C_14
REMARK    3  A    between atoms: C_16  and  C_31
REMARK                            x       y       z     vdW  Elec       q    Type
REMARK                         _______ _______ _______ _____ _____    ______ ____
ROOT
ATOM      1  C   UNL     1      -1.328  -2.059  -0.007  0.00  0.00    +0.132 A 
ATOM      2  C   UNL     1      -2.656  -2.340   0.005  0.00  0.00    +0.074 A 
ATOM      3  C   UNL     1      -3.356  -1.114   0.015  0.00  0.00    +0.102 A 
ATOM      4  N   UNL     1      -2.473  -0.136   0.015  0.00  0.00    -0.162 NA
ATOM      5  N   UNL     1      -1.191  -0.700   0.005  0.00  0.00    -0.185 N 
ATOM      6  C   UNL     1       0.002  -0.004   0.002  0.00  0.00    +0.234 A 
ATOM      7  N   UNL     1      -0.016   1.355   0.009  0.00  0.00    -0.291 N 
ATOM      8  H   UNL     1      -0.861   1.833   0.016  0.00  0.00    +0.172 HD
ATOM      9  C   UNL     1       1.148   2.035   0.002  0.00  0.00    +0.256 A 
ATOM     10  O   UNL     1       1.152   3.255   0.010  0.00  0.00    -0.267 OA
ATOM     11  C   UNL     1       2.363   1.315  -0.015  0.00  0.00    +0.038 A 
ATOM     12  C   UNL     1       2.321  -0.041  -0.014  0.00  0.00    +0.053 A 
ATOM     13  N   UNL     1       1.136  -0.666  -0.009  0.00  0.00    -0.217 NA
ATOM     14  C   UNL     1       3.563  -0.893  -0.009  0.00  0.00    +0.056 C 
ATOM     15  C   UNL     1       4.776  -0.076  -0.449  0.00  0.00    +0.006 C 
ATOM     16  C   UNL     1       4.821   1.210   0.385  0.00  0.00    +0.005 C 
ATOM     17  C   UNL     1       3.649   2.095  -0.035  0.00  0.00    +0.042 C 
ENDROOT
BRANCH   3  18
ATOM     18  C   UNL     1      -4.825  -0.956   0.023  0.00  0.00    +0.039 A 
ATOM     19  C   UNL     1      -5.569   0.194   0.033  0.00  0.00    +0.018 A 
ATOM     20  C   UNL     1      -6.943   0.094   0.039  0.00  0.00    +0.008 A 
ATOM     21  C   UNL     1      -7.517  -1.137   0.035  0.00  0.00    +0.046 A 
ATOM     22  S   UNL     1      -6.093  -2.213   0.015  0.00  0.00    -0.095 S 
ENDBRANCH   3  18
BRANCH   1  25
ATOM     23  C   UNL     1      -0.571  -4.308  -0.035  0.00  0.00    +0.249 C 
ATOM     24  O   UNL     1      -1.726  -4.685  -0.029  0.00  0.00    -0.270 OA
ATOM     25  N   UNL     1      -0.292  -2.989  -0.025  0.00  0.00    -0.266 N 
ATOM     26  H   UNL     1       0.630  -2.688  -0.029  0.00  0.00    +0.157 HD
BRANCH  23  32
ATOM     27  C   UNL     1       3.388  -9.390  -0.119  0.00  0.00    +0.001 A 
ATOM     28  C   UNL     1       2.069  -9.841  -0.113  0.00  0.00    +0.001 A 
ATOM     29  C   UNL     1       1.029  -8.963  -0.095  0.00  0.00    +0.008 A 
ATOM     30  C   UNL     1       1.285  -7.580  -0.083  0.00  0.00    -0.017 A 
ATOM     31  C   UNL     1       0.236  -6.649  -0.064  0.00  0.00    +0.021 A 
ATOM     32  C   UNL     1       0.528  -5.295  -0.054  0.00  0.00    +0.038 A 
ATOM     33  C   UNL     1       1.864  -4.852  -0.066  0.00  0.00    +0.013 A 
ATOM     34  C   UNL     1       2.891  -5.739  -0.079  0.00  0.00    +0.009 A 
ATOM     35  C   UNL     1       2.627  -7.122  -0.090  0.00  0.00    -0.018 A 
ATOM     36  C   UNL     1       3.673  -8.059  -0.108  0.00  0.00    +0.008 A 
ENDBRANCH  23  32
ENDBRANCH   1  25
TORSDOF 3
