REMARK  Name = ZINC31972485
REMARK  4 active torsions:
REMARK  status: ('A' for Active; 'I' for Inactive)
REMARK    1  A    between atoms: C_1  and  C_2
REMARK    2  A    between atoms: C_5  and  C_24
REMARK    3  A    between atoms: C_10  and  C_12
REMARK    4  A    between atoms: C_13  and  C_18
REMARK                            x       y       z     vdW  Elec       q    Type
REMARK                         _______ _______ _______ _____ _____    ______ ____
ROOT
ATOM      1  C   UNL     1       2.944  -1.903   1.345  0.00  0.00    +0.103 A 
ATOM      2  C   UNL     1       3.820  -1.787   0.259  0.00  0.00    +0.092 A 
ATOM      3  N   UNL     1       5.060  -1.453   0.553  0.00  0.00    -0.224 NA
ATOM      4  C   UNL     1       5.441  -1.245   1.798  0.00  0.00    +0.157 A 
ATOM      5  S   UNL     1       4.040  -1.500   2.695  0.00  0.00    -0.047 S 
ATOM      6  N   UNL     1       6.692  -0.893   2.257  0.00  0.00    -0.337 N 
ATOM      7  H   UNL     1       7.422  -0.771   1.630  0.00  0.00    +0.144 HD
ATOM      8  H   UNL     1       6.843  -0.769   3.207  0.00  0.00    +0.144 HD
ENDROOT
BRANCH   1  16
ATOM      9  C   UNL     1       0.719   2.179  -0.355  0.00  0.00    +0.009 C 
ATOM     10  C   UNL     1       0.439   0.678  -0.268  0.00  0.00    +0.004 C 
ATOM     11  C   UNL     1      -1.073   0.439  -0.283  0.00  0.00    +0.009 C 
ATOM     12  C   UNL     1      -1.353  -1.065  -0.228  0.00  0.00    +0.004 C 
ATOM     13  C   UNL     1      -0.786  -1.639   1.074  0.00  0.00    +0.111 C 
ATOM     14  N   UNL     1       0.637  -1.288   1.165  0.00  0.00    -0.297 N 
ATOM     15  C   UNL     1       1.027   0.123   1.034  0.00  0.00    +0.111 C 
ATOM     16  C   UNL     1       1.569  -2.241   1.366  0.00  0.00    +0.255 C 
ATOM     17  O   UNL     1       1.227  -3.393   1.566  0.00  0.00    -0.269 OA
ATOM     18  C   UNL     1      -2.864  -1.304  -0.278  0.00  0.00    +0.009 C 
ENDBRANCH   1  16
BRANCH   2  19
ATOM     19  C   UNL     1       3.379  -2.025  -1.135  0.00  0.00    +0.002 A 
ATOM     20  C   UNL     1       2.530  -3.092  -1.429  0.00  0.00    +0.010 A 
ATOM     21  C   UNL     1       2.123  -3.308  -2.729  0.00  0.00    +0.001 A 
ATOM     22  C   UNL     1       2.555  -2.469  -3.741  0.00  0.00    +0.000 A 
ATOM     23  C   UNL     1       3.396  -1.409  -3.456  0.00  0.00    +0.001 A 
ATOM     24  C   UNL     1       3.805  -1.179  -2.158  0.00  0.00    +0.010 A 
ENDBRANCH   2  19
TORSDOF 2
