REMARK  Name = ZINC20598814
REMARK  7 active torsions:
REMARK  status: ('A' for Active; 'I' for Inactive)
REMARK    1  A    between atoms: C_1  and  C_2
REMARK    2  A    between atoms: C_4  and  C_30
REMARK    3  A    between atoms: C_7  and  C_8
REMARK    4  A    between atoms: C_22  and  N_27
REMARK    5  A    between atoms: C_24  and  O_26
REMARK    6  A    between atoms: N_27  and  C_28
REMARK    7  A    between atoms: N_27  and  C_29
REMARK                            x       y       z     vdW  Elec       q    Type
REMARK                         _______ _______ _______ _____ _____    ______ ____
ROOT
ATOM      1  C   UNL     1       2.010   0.555   0.605  0.00  0.00    +0.045 C 
ATOM      2  C   UNL     1       0.932  -0.449   0.287  0.00  0.00    -0.028 A 
ATOM      3  C   UNL     1      -0.102  -0.684   1.177  0.00  0.00    +0.027 A 
ATOM      4  C   UNL     1      -1.077  -1.611   0.858  0.00  0.00    +0.041 A 
ATOM      5  N   UNL     1      -1.042  -2.277  -0.280  0.00  0.00    -0.236 NA
ATOM      6  C   UNL     1      -0.077  -2.091  -1.167  0.00  0.00    +0.139 A 
ATOM      7  C   UNL     1       0.948  -1.162  -0.917  0.00  0.00    +0.094 A 
ATOM      8  N   UNL     1      -0.080  -2.812  -2.348  0.00  0.00    -0.314 N 
ATOM      9  C   UNL     1      -1.304  -2.556  -3.118  0.00  0.00    +0.107 C 
ATOM     10  C   UNL     1      -1.202  -3.243  -4.482  0.00  0.00    +0.033 C 
ATOM     11  C   UNL     1      -0.991  -4.741  -4.279  0.00  0.00    +0.023 C 
ATOM     12  C   UNL     1       0.247  -4.990  -3.420  0.00  0.00    +0.033 C 
ATOM     13  C   UNL     1       0.098  -4.246  -2.090  0.00  0.00    +0.107 C 
ATOM     14  C   UNL     1      -0.858  -5.440  -5.610  0.00  0.00    -0.037 A 
ATOM     15  C   UNL     1      -0.139  -5.094  -6.743  0.00  0.00    +0.004 A 
ATOM     16  C   UNL     1      -0.172  -5.902  -7.862  0.00  0.00    +0.000 A 
ATOM     17  C   UNL     1      -0.926  -7.061  -7.854  0.00  0.00    +0.000 A 
ATOM     18  C   UNL     1      -1.643  -7.409  -6.726  0.00  0.00    +0.002 A 
ATOM     19  C   UNL     1      -1.611  -6.600  -5.602  0.00  0.00    -0.055 A 
ATOM     20  C   UNL     1      -2.295  -6.758  -4.261  0.00  0.00    -0.008 C 
ATOM     21  C   UNL     1      -2.230  -5.360  -3.607  0.00  0.00    +0.116 C 
ATOM     22  C   UNL     1      -2.202  -1.865   1.829  0.00  0.00    +0.065 C 
ENDROOT
BRANCH  20  23
ATOM     23  N   UNL     1      -1.579  -7.740  -3.436  0.00  0.00    +0.382 N 
ATOM     24  C   UNL     1      -2.284  -7.978  -2.169  0.00  0.00    -0.096 C 
ATOM     25  C   UNL     1      -1.377  -8.996  -4.170  0.00  0.00    -0.096 C 
ATOM     26  H   UNL     1      -0.588  -7.324  -3.198  0.00  0.00    -0.082 HD
ENDBRANCH  20  23
BRANCH   7  27
ATOM     27  C   UNL     1       1.992  -0.952  -1.874  0.00  0.00    +0.103 C 
ATOM     28  N   UNL     1       2.820  -0.786  -2.634  0.00  0.00    -0.191 NA
ENDBRANCH   7  27
BRANCH  21  29
ATOM     29  O   UNL     1      -3.403  -4.603  -3.909  0.00  0.00    -0.392 OA
ATOM     30  H   UNL     1      -4.378  -4.913  -3.504  0.00  0.00    +0.210 HD
ENDBRANCH  21  29
TORSDOF 3
