REMARK  Name = ZINC36626597
REMARK  3 active torsions:
REMARK  status: ('A' for Active; 'I' for Inactive)
REMARK    1  A    between atoms: C_4  and  N_7
REMARK    2  A    between atoms: N_7  and  C_8
REMARK    3  A    between atoms: C_14  and  C_16
REMARK                            x       y       z     vdW  Elec       q    Type
REMARK                         _______ _______ _______ _____ _____    ______ ____
ROOT
ATOM      1  N   UNL     1       2.416  -0.788  -2.515  0.00  0.00    -0.290 N 
ATOM      2  C   UNL     1       2.426   0.064  -3.558  0.00  0.00    +0.263 C 
ATOM      3  O   UNL     1       1.882   1.149  -3.463  0.00  0.00    -0.269 OA
ENDROOT
BRANCH   2   4
ATOM      4  C   UNL     1       3.091  -0.313  -4.804  0.00  0.00    +0.115 C 
ATOM      5  C   UNL     1       2.788   0.254  -5.969  0.00  0.00    +0.109 C 
ATOM      6  N   UNL     1       3.481  -0.184  -7.072  0.00  0.00    -0.278 N 
ATOM      7  S   UNL     1       4.517  -1.353  -6.471  0.00  0.00    +0.045 S 
ATOM      8  N   UNL     1       4.102  -1.301  -4.850  0.00  0.00    -0.268 N 
ATOM      9  H   UNL     1       3.390   0.116  -7.990  0.00  0.00    +0.161 HD
ATOM     10  H   UNL     1       4.466  -1.823  -4.118  0.00  0.00    +0.162 HD
ENDBRANCH   2   4
BRANCH   1  14
ATOM     11  C   UNL     1      -1.150   0.472  -0.540  0.00  0.00    +0.000 C 
ATOM     12  C   UNL     1       0.190   0.722   0.155  0.00  0.00    +0.002 C 
ATOM     13  C   UNL     1       1.319   0.657  -0.875  0.00  0.00    +0.022 C 
ATOM     14  C   UNL     1       1.335  -0.726  -1.528  0.00  0.00    +0.077 C 
ATOM     15  C   UNL     1      -0.005  -0.977  -2.224  0.00  0.00    +0.022 C 
ATOM     16  C   UNL     1      -1.134  -0.912  -1.193  0.00  0.00    +0.002 C 
ENDBRANCH   1  14
BRANCH   1  17
ATOM     17  C   UNL     1       3.486  -1.778  -2.367  0.00  0.00    +0.077 C 
ATOM     18  C   UNL     1       4.839  -1.106  -2.610  0.00  0.00    +0.022 C 
ATOM     19  C   UNL     1       5.957  -2.139  -2.455  0.00  0.00    +0.002 C 
ATOM     20  C   UNL     1       5.756  -3.263  -3.473  0.00  0.00    +0.000 C 
ATOM     21  C   UNL     1       4.404  -3.936  -3.230  0.00  0.00    +0.002 C 
ATOM     22  C   UNL     1       3.286  -2.902  -3.385  0.00  0.00    +0.022 C 
ENDBRANCH   1  17
TORSDOF 3
