REMARK  Name = ZINC14639203
REMARK  10 active torsions:
REMARK  status: ('A' for Active; 'I' for Inactive)
REMARK    1  A    between atoms: C_1  and  C_2
REMARK    2  A    between atoms: C_6  and  C_27
REMARK    3  A    between atoms: C_7  and  O_8
REMARK    4  A    between atoms: O_8  and  C_9
REMARK    5  A    between atoms: C_9  and  C_11
REMARK    6  A    between atoms: C_9  and  C_12
REMARK    7  A    between atoms: N_14  and  N_15
REMARK    8  A    between atoms: C_16  and  C_18
REMARK    9  A    between atoms: C_21  and  O_25
REMARK   10  A    between atoms: O_25  and  C_26
REMARK                            x       y       z     vdW  Elec       q    Type
REMARK                         _______ _______ _______ _____ _____    ______ ____
ROOT
ATOM      1  C   UNL     1      -6.571   4.405  -0.670  0.00  0.00    +0.270 C 
ATOM      2  O   UNL     1      -6.038   3.367  -0.340  0.00  0.00    -0.270 OA
ATOM      3  N   UNL     1      -5.826   5.430  -1.130  0.00  0.00    -0.231 N 
ATOM      4  H   UNL     1      -6.253   6.260  -1.393  0.00  0.00    +0.173 HD
ENDROOT
BRANCH   3   5
ATOM      5  N   UNL     1      -4.435   5.295  -1.228  0.00  0.00    -0.230 N 
ATOM      6  C   UNL     1      -3.690   6.320  -1.688  0.00  0.00    +0.260 C 
ATOM      7  O   UNL     1      -4.225   7.360  -2.018  0.00  0.00    -0.269 OA
ATOM      8  H   UNL     1      -4.008   4.465  -0.964  0.00  0.00    +0.173 HD
BRANCH   6   9
ATOM      9  C   UNL     1      -2.224   6.178  -1.791  0.00  0.00    +0.039 A 
ATOM     10  C   UNL     1      -1.608   4.981  -1.417  0.00  0.00    +0.017 A 
ATOM     11  C   UNL     1      -0.240   4.855  -1.510  0.00  0.00    +0.047 A 
ATOM     12  C   UNL     1       0.527   5.912  -1.984  0.00  0.00    +0.133 A 
ATOM     13  C   UNL     1      -0.082   7.103  -2.363  0.00  0.00    +0.056 A 
ATOM     14  C   UNL     1      -1.450   7.239  -2.268  0.00  0.00    +0.031 A 
ATOM     15  I   UNL     1       1.080   8.692  -3.078  0.00  0.00    -0.040 I 
BRANCH  12  16
ATOM     16  O   UNL     1       1.875   5.782  -2.078  0.00  0.00    -0.494 OA
ATOM     17  C   UNL     1       2.436   4.532  -1.673  0.00  0.00    +0.277 C 
ENDBRANCH  12  16
ENDBRANCH   6   9
ENDBRANCH   3   5
BRANCH   1  18
ATOM     18  C   UNL     1      -8.068   4.550  -0.564  0.00  0.00    +0.257 C 
ATOM     19  C   UNL     1      -8.664   4.714  -1.964  0.00  0.00    +0.062 C 
BRANCH  18  20
ATOM     20  O   UNL     1      -8.617   3.384   0.053  0.00  0.00    -0.479 OA
BRANCH  20  27
ATOM     21  C   UNL     1      -8.304   4.270   2.718  0.00  0.00    +0.047 C 
ATOM     22  C   UNL     1      -9.653   3.984   2.109  0.00  0.00    -0.008 A 
ATOM     23  C   UNL     1     -10.801   4.159   2.858  0.00  0.00    +0.007 A 
ATOM     24  C   UNL     1     -12.038   3.891   2.302  0.00  0.00    +0.001 A 
ATOM     25  C   UNL     1     -12.130   3.453   0.994  0.00  0.00    +0.007 A 
ATOM     26  C   UNL     1     -10.986   3.283   0.239  0.00  0.00    -0.008 A 
ATOM     27  C   UNL     1      -9.744   3.551   0.794  0.00  0.00    +0.127 A 
ATOM     28  C   UNL     1     -11.088   2.807  -1.187  0.00  0.00    +0.047 C 
ENDBRANCH  20  27
ENDBRANCH  18  20
ENDBRANCH   1  18
TORSDOF 6
