REMARK  Name = ZINC33039776
REMARK  8 active torsions:
REMARK  status: ('A' for Active; 'I' for Inactive)
REMARK    1  A    between atoms: C_1  and  C_2
REMARK    2  A    between atoms: C_5  and  N_9
REMARK    3  A    between atoms: C_7  and  C_8
REMARK    4  A    between atoms: C_14  and  S_16
REMARK    5  A    between atoms: S_16  and  C_17
REMARK    6  A    between atoms: C_17  and  C_19
REMARK    7  A    between atoms: C_17  and  C_20
REMARK    8  A    between atoms: N_22  and  C_23
REMARK                            x       y       z     vdW  Elec       q    Type
REMARK                         _______ _______ _______ _____ _____    ______ ____
ROOT
ATOM      1  S   UNL     1       3.227  -3.012  -0.632  0.00  0.00    -0.092 S 
ENDROOT
BRANCH   1   7
ATOM      2  N   UNL     1       1.270  -6.456  -0.188  0.00  0.00    -0.196 N 
ATOM      3  C   UNL     1       2.078  -7.197   0.597  0.00  0.00    +0.272 A 
ATOM      4  O   UNL     1       1.752  -8.328   0.921  0.00  0.00    -0.266 OA
ATOM      5  C   UNL     1       3.301  -6.657   1.042  0.00  0.00    +0.075 A 
ATOM      6  C   UNL     1       3.647  -5.396   0.671  0.00  0.00    +0.042 A 
ATOM      7  C   UNL     1       2.781  -4.647  -0.150  0.00  0.00    +0.119 A 
ATOM      8  N   UNL     1       1.641  -5.157  -0.554  0.00  0.00    -0.157 NA
BRANCH   2  13
ATOM      9  C   UNL     1      -3.660  -8.603  -1.993  0.00  0.00    +0.044 C 
ATOM     10  C   UNL     1      -2.350  -8.033  -1.513  0.00  0.00    -0.047 A 
ATOM     11  C   UNL     1      -2.310  -6.764  -0.963  0.00  0.00    +0.006 A 
ATOM     12  C   UNL     1      -1.113  -6.241  -0.518  0.00  0.00    +0.028 A 
ATOM     13  C   UNL     1       0.055  -6.985  -0.633  0.00  0.00    +0.070 A 
ATOM     14  C   UNL     1       0.011  -8.259  -1.186  0.00  0.00    +0.031 A 
ATOM     15  C   UNL     1      -1.191  -8.779  -1.624  0.00  0.00    -0.046 A 
ATOM     16  C   UNL     1      -1.240 -10.160  -2.224  0.00  0.00    +0.044 C 
ENDBRANCH   2  13
ENDBRANCH   1   7
BRANCH   1  17
ATOM     17  C   UNL     1       1.836  -2.462  -1.659  0.00  0.00    +0.136 C 
ATOM     18  C   UNL     1       1.765  -3.320  -2.924  0.00  0.00    +0.029 C 
BRANCH  17  19
ATOM     19  C   UNL     1       2.034  -1.018  -2.042  0.00  0.00    +0.230 C 
ATOM     20  O   UNL     1       3.151  -0.547  -2.075  0.00  0.00    -0.274 OA
ATOM     21  N   UNL     1       0.970  -0.250  -2.348  0.00  0.00    -0.282 N 
ATOM     22  H   UNL     1      -0.048  -0.653  -2.241  0.00  0.00    +0.155 HD
BRANCH  21  23
ATOM     23  C   UNL     1       1.160   1.062  -2.801  0.00  0.00    +0.079 A 
ATOM     24  C   UNL     1       2.387   1.445  -3.327  0.00  0.00    +0.027 A 
ATOM     25  C   UNL     1       2.575   2.738  -3.774  0.00  0.00    +0.006 A 
ATOM     26  C   UNL     1       1.544   3.656  -3.698  0.00  0.00    +0.049 A 
ATOM     27  C   UNL     1       0.314   3.283  -3.174  0.00  0.00    +0.164 A 
ATOM     28  C   UNL     1       0.117   1.982  -2.731  0.00  0.00    +0.183 A 
ATOM     29  O   UNL     1      -1.082   1.595  -2.215  0.00  0.00    -0.483 OA
ATOM     30  C   UNL     1      -1.976   2.636  -1.810  0.00  0.00    +0.270 C 
ATOM     31  C   UNL     1      -2.015   3.695  -2.921  0.00  0.00    +0.270 C 
ATOM     32  O   UNL     1      -0.688   4.202  -3.103  0.00  0.00    -0.485 OA
ENDBRANCH  21  23
ENDBRANCH  17  19
ENDBRANCH   1  17
TORSDOF 5
