REMARK  Name = ZINC32973088
REMARK  15 active torsions:
REMARK  status: ('A' for Active; 'I' for Inactive)
REMARK    1  A    between atoms: C_1  and  C_2
REMARK    2  A    between atoms: C_2  and  C_3
REMARK    3  A    between atoms: C_3  and  N_4
REMARK    4  A    between atoms: C_6  and  C_10
REMARK    5  A    between atoms: C_7  and  C_9
REMARK    6  A    between atoms: C_10  and  N_11
REMARK    7  A    between atoms: N_13  and  C_14
REMARK    8  A    between atoms: C_16  and  O_22
REMARK    9  A    between atoms: C_18  and  O_20
REMARK   10  A    between atoms: O_20  and  C_21
REMARK   11  A    between atoms: O_22  and  C_23
REMARK   12  A    between atoms: N_24  and  C_25
REMARK   13  A    between atoms: C_25  and  C_27
REMARK   14  A    between atoms: C_29  and  C_34
REMARK   15  A    between atoms: C_31  and  C_33
REMARK                            x       y       z     vdW  Elec       q    Type
REMARK                         _______ _______ _______ _____ _____    ______ ____
ROOT
ATOM      1  N   UNL     1      -1.569  -5.400   3.465  0.00  0.00    -0.353 N 
ATOM      2  C   UNL     1      -1.476  -6.750   3.296  0.00  0.00    +0.194 C 
ATOM      3  N   UNL     1      -0.251  -7.342   3.186  0.00  0.00    -0.328 N 
ATOM      4  N   UNL     1      -2.575  -7.488   3.240  0.00  0.00    -0.143 NA
ATOM      5  H   UNL     1      -0.764  -4.863   3.531  0.00  0.00    +0.163 HD
ATOM      6  H   UNL     1      -0.183  -8.307   3.113  0.00  0.00    +0.169 HD
ENDROOT
BRANCH   3   7
ATOM      7  C   UNL     1       0.906  -6.556   3.178  0.00  0.00    +0.049 A 
ATOM      8  C   UNL     1       0.891  -5.303   2.581  0.00  0.00    +0.071 A 
ATOM      9  C   UNL     1       2.038  -4.525   2.574  0.00  0.00    +0.126 A 
ATOM     10  C   UNL     1       3.201  -4.998   3.163  0.00  0.00    +0.091 A 
ATOM     11  C   UNL     1       3.218  -6.251   3.759  0.00  0.00    +0.126 A 
ATOM     12  C   UNL     1       2.069  -7.028   3.772  0.00  0.00    +0.071 A 
BRANCH  11  13
ATOM     13  O   UNL     1       4.358  -6.714   4.335  0.00  0.00    -0.495 OA
ATOM     14  C   UNL     1       5.501  -5.858   4.291  0.00  0.00    +0.277 C 
ENDBRANCH  11  13
BRANCH   9  15
ATOM     15  O   UNL     1       2.024  -3.298   1.990  0.00  0.00    -0.495 OA
ATOM     16  C   UNL     1       3.267  -2.597   1.922  0.00  0.00    +0.277 C 
ENDBRANCH   9  15
ENDBRANCH   3   7
BRANCH   4  17
ATOM     17  C   UNL     1      -2.494  -8.821   3.347  0.00  0.00    +0.270 C 
ATOM     18  O   UNL     1      -1.428  -9.346   3.618  0.00  0.00    -0.268 OA
BRANCH  17  19
ATOM     19  C   UNL     1      -3.699  -9.656   3.137  0.00  0.00    +0.039 A 
ATOM     20  C   UNL     1      -4.892  -9.069   2.716  0.00  0.00    +0.016 A 
ATOM     21  C   UNL     1      -6.011  -9.853   2.522  0.00  0.00    -0.049 A 
ATOM     22  C   UNL     1      -5.951 -11.217   2.744  0.00  0.00    +0.006 A 
ATOM     23  C   UNL     1      -4.770 -11.804   3.162  0.00  0.00    -0.049 A 
ATOM     24  C   UNL     1      -3.643 -11.033   3.353  0.00  0.00    +0.016 A 
ATOM     25  C   UNL     1      -4.714 -13.291   3.401  0.00  0.00    +0.044 C 
ATOM     26  C   UNL     1      -7.302  -9.221   2.068  0.00  0.00    +0.044 C 
ENDBRANCH  17  19
ENDBRANCH   4  17
BRANCH   1  27
ATOM     27  C   UNL     1      -2.885  -4.761   3.546  0.00  0.00    +0.154 C 
BRANCH  27  30
ATOM     28  N   UNL     1      -2.586  -1.296   4.643  0.00  0.00    -0.271 N 
ATOM     29  C   UNL     1      -2.807  -2.602   4.901  0.00  0.00    +0.114 A 
ATOM     30  C   UNL     1      -2.711  -3.275   3.731  0.00  0.00    +0.012 A 
ATOM     31  C   UNL     1      -2.422  -2.349   2.724  0.00  0.00    +0.065 A 
ATOM     32  N   UNL     1      -2.353  -1.161   3.269  0.00  0.00    -0.176 NA
ATOM     33  C   UNL     1      -2.231  -2.663   1.262  0.00  0.00    +0.068 C 
BRANCH  28  34
ATOM     34  C   UNL     1      -2.594  -0.210   5.627  0.00  0.00    +0.143 C 
BRANCH  34  36
ATOM     35  C   UNL     1      -1.282   1.691   6.577  0.00  0.00    +0.005 C 
ATOM     36  C   UNL     1      -1.273   0.557   5.551  0.00  0.00    +0.020 C 
ENDBRANCH  34  36
ENDBRANCH  28  34
ENDBRANCH  27  30
ENDBRANCH   1  27
TORSDOF 9
