REMARK  Name = ZINC36589769
REMARK  7 active torsions:
REMARK  status: ('A' for Active; 'I' for Inactive)
REMARK    1  A    between atoms: C_1  and  O_2
REMARK    2  A    between atoms: O_2  and  C_3
REMARK    3  A    between atoms: C_3  and  C_5
REMARK    4  A    between atoms: C_5  and  C_7
REMARK    5  A    between atoms: C_5  and  N_14
REMARK    6  A    between atoms: C_7  and  C_8
REMARK    7  A    between atoms: C_26  and  C_28
REMARK                            x       y       z     vdW  Elec       q    Type
REMARK                         _______ _______ _______ _____ _____    ______ ____
ROOT
ATOM      1  N   UNL     1      -2.726  -2.399  -2.613  0.00  0.00    -0.286 N 
ATOM      2  C   UNL     1      -3.216  -2.620  -1.377  0.00  0.00    +0.304 C 
ATOM      3  O   UNL     1      -2.477  -2.569  -0.413  0.00  0.00    -0.253 OA
ATOM      4  N   UNL     1      -4.524  -2.897  -1.210  0.00  0.00    -0.273 N 
ATOM      5  C   UNL     1      -5.102  -3.019   0.136  0.00  0.00    +0.116 C 
ATOM      6  C   UNL     1      -5.592  -4.458   0.343  0.00  0.00    +0.074 C 
ATOM      7  C   UNL     1      -6.346  -4.896  -0.885  0.00  0.00    +0.040 A 
ATOM      8  C   UNL     1      -6.268  -4.296  -2.093  0.00  0.00    +0.062 A 
ATOM      9  N   UNL     1      -7.064  -4.956  -2.936  0.00  0.00    -0.348 N 
ATOM     10  C   UNL     1      -7.639  -5.942  -2.299  0.00  0.00    +0.171 A 
ATOM     11  N   UNL     1      -7.216  -5.936  -1.014  0.00  0.00    -0.349 N 
ATOM     12  H   UNL     1      -7.481  -6.556  -0.317  0.00  0.00    +0.166 HD
ATOM     13  C   UNL     1      -5.411  -3.080  -2.373  0.00  0.00    +0.156 C 
ATOM     14  H   UNL     1      -3.302  -2.495  -3.388  0.00  0.00    +0.151 HD
ATOM     15  H   UNL     1      -7.196  -4.738  -3.872  0.00  0.00    +0.167 HD
ENDROOT
BRANCH  13  16
ATOM     16  C   UNL     1      -6.283  -1.863  -2.549  0.00  0.00    -0.017 A 
ATOM     17  C   UNL     1      -6.199  -1.116  -3.709  0.00  0.00    +0.009 A 
ATOM     18  C   UNL     1      -6.997   0.000  -3.875  0.00  0.00    +0.050 A 
ATOM     19  C   UNL     1      -7.884   0.374  -2.877  0.00  0.00    +0.166 A 
ATOM     20  C   UNL     1      -7.968  -0.379  -1.709  0.00  0.00    +0.167 A 
ATOM     21  C   UNL     1      -7.169  -1.500  -1.552  0.00  0.00    +0.055 A 
ATOM     22  O   UNL     1      -8.903   0.188  -0.891  0.00  0.00    -0.453 OA
ATOM     23  C   UNL     1      -9.096   1.523  -1.395  0.00  0.00    +0.466 C 
ATOM     24  O   UNL     1      -8.766   1.412  -2.793  0.00  0.00    -0.453 OA
ENDBRANCH  13  16
BRANCH   1  25
ATOM     25  C   UNL     1      -1.323  -2.013  -2.787  0.00  0.00    +0.187 C 
BRANCH  25  26
ATOM     26  C   UNL     1      -0.463  -3.250  -2.825  0.00  0.00    +0.328 C 
ATOM     27  O   UNL     1      -0.970  -4.341  -2.717  0.00  0.00    -0.249 OA
BRANCH  26  29
ATOM     28  C   UNL     1       1.619  -4.352  -3.004  0.00  0.00    +0.280 C 
ATOM     29  O   UNL     1       0.866  -3.139  -2.978  0.00  0.00    -0.467 OA
ENDBRANCH  26  29
ENDBRANCH  25  26
BRANCH  25  30
ATOM     30  C   UNL     1      -1.165  -1.242  -4.099  0.00  0.00    +0.069 C 
BRANCH  30  31
ATOM     31  C   UNL     1      -1.928   0.055  -4.015  0.00  0.00    -0.045 A 
ATOM     32  C   UNL     1      -3.253   0.105  -4.407  0.00  0.00    +0.004 A 
ATOM     33  C   UNL     1      -3.952   1.295  -4.330  0.00  0.00    +0.000 A 
ATOM     34  C   UNL     1      -3.328   2.434  -3.859  0.00  0.00    +0.000 A 
ATOM     35  C   UNL     1      -2.003   2.384  -3.466  0.00  0.00    +0.000 A 
ATOM     36  C   UNL     1      -1.305   1.194  -3.539  0.00  0.00    +0.004 A 
ENDBRANCH  30  31
ENDBRANCH  25  30
ENDBRANCH   1  25
TORSDOF 6
