REMARK  Name = ZINC49337875
REMARK  5 active torsions:
REMARK  status: ('A' for Active; 'I' for Inactive)
REMARK    1  A    between atoms: C_1  and  C_2
REMARK    2  A    between atoms: N_7  and  C_8
REMARK    3  A    between atoms: N_10  and  N_11
REMARK    4  A    between atoms: N_11  and  C_12
REMARK    5  A    between atoms: C_17  and  C_18
REMARK                            x       y       z     vdW  Elec       q    Type
REMARK                         _______ _______ _______ _____ _____    ______ ____
ROOT
ATOM      1  C   UNL     1       0.256  -4.858  -0.027  0.00  0.00    +0.342 C 
ATOM      2  O   UNL     1      -0.952  -4.691  -0.021  0.00  0.00    -0.249 OA
ATOM      3  N   UNL     1       0.763  -6.107  -0.036  0.00  0.00    -0.219 N 
ATOM      4  H   UNL     1       0.167  -6.872  -0.038  0.00  0.00    +0.174 HD
ENDROOT
BRANCH   1  11
ATOM      5  C   UNL     1      -0.018   1.503   0.010  0.00  0.00    +0.053 C 
ATOM      6  C   UNL     1       0.002  -0.004   0.002  0.00  0.00    +0.006 A 
ATOM      7  C   UNL     1      -1.025  -0.859   0.002  0.00  0.00    +0.095 A 
ATOM      8  N   UNL     1      -0.732  -2.188  -0.007  0.00  0.00    -0.342 N 
ATOM      9  H   UNL     1      -1.440  -2.851  -0.008  0.00  0.00    +0.167 HD
ATOM     10  C   UNL     1       0.575  -2.571  -0.015  0.00  0.00    +0.165 A 
ATOM     11  N   UNL     1       1.076  -3.804  -0.025  0.00  0.00    -0.138 NA
ATOM     12  S   UNL     1       1.403  -1.107  -0.018  0.00  0.00    -0.058 S 
ENDBRANCH   1  11
BRANCH   3  13
ATOM     13  N   UNL     1       2.150  -6.299  -0.044  0.00  0.00    -0.263 N 
ATOM     14  H   UNL     1       2.746  -5.534  -0.042  0.00  0.00    +0.170 HD
BRANCH  13  15
ATOM     15  C   UNL     1       2.676  -7.593  -0.053  0.00  0.00    +0.049 A 
ATOM     16  C   UNL     1       1.824  -8.691  -0.062  0.00  0.00    +0.025 A 
ATOM     17  C   UNL     1       2.346  -9.969  -0.071  0.00  0.00    +0.003 A 
ATOM     18  C   UNL     1       3.716 -10.158  -0.072  0.00  0.00    +0.020 A 
ATOM     19  C   UNL     1       4.568  -9.068  -0.064  0.00  0.00    +0.046 A 
ATOM     20  C   UNL     1       4.051  -7.786  -0.061  0.00  0.00    -0.010 A 
ATOM     21  C   UNL     1       4.979  -6.598  -0.059  0.00  0.00    +0.047 C 
ATOM     22 CL   UNL     1       6.287  -9.310  -0.064  0.00  0.00    -0.083 Cl
ENDBRANCH  13  15
ENDBRANCH   3  13
TORSDOF 3
