REMARK  Name = ZINC14544768
REMARK  2 active torsions:
REMARK  status: ('A' for Active; 'I' for Inactive)
REMARK    1  A    between atoms: C_7  and  C_11
REMARK    2  A    between atoms: C_24  and  N_27
REMARK                            x       y       z     vdW  Elec       q    Type
REMARK                         _______ _______ _______ _____ _____    ______ ____
ROOT
ATOM      1  C   UNL     1       2.512   1.404  -0.015  0.00  0.00    +0.107 C 
ATOM      2  C   UNL     1       3.038   1.303   1.402  0.00  0.00    +0.029 C 
ATOM      3  C   UNL     1       2.957   2.563   2.266  0.00  0.00    +0.033 C 
ATOM      4  C   UNL     1       2.844   1.946   3.663  0.00  0.00    -0.030 C 
ATOM      5  C   UNL     1       2.292   0.740   3.582  0.00  0.00    -0.023 C 
ATOM      6  C   UNL     1       1.961   0.468   2.163  0.00  0.00    +0.049 C 
ATOM      7  C   UNL     1       1.984  -0.891   1.581  0.00  0.00    -0.017 A 
ATOM      8  C   UNL     1       1.705  -2.010   2.338  0.00  0.00    +0.006 A 
ATOM      9  C   UNL     1       1.709  -3.266   1.762  0.00  0.00    +0.003 A 
ATOM     10  C   UNL     1       1.994  -3.400   0.415  0.00  0.00    +0.034 A 
ATOM     11  C   UNL     1       2.281  -2.289  -0.347  0.00  0.00    +0.147 A 
ATOM     12  C   UNL     1       2.289  -1.014   0.222  0.00  0.00    +0.062 A 
ATOM     13  N   UNL     1       2.603   0.060  -0.608  0.00  0.00    -0.335 N 
ATOM     14  H   UNL     1       3.497  -0.078  -1.055  0.00  0.00    +0.147 HD
ENDROOT
BRANCH   1  21
ATOM     15  C   UNL     1       0.495   5.635   0.027  0.00  0.00    +0.001 A 
ATOM     16  C   UNL     1      -0.892   5.573   0.040  0.00  0.00    +0.002 A 
ATOM     17  C   UNL     1      -1.541   4.358   0.040  0.00  0.00    +0.026 A 
ATOM     18  C   UNL     1      -0.801   3.180   0.027  0.00  0.00    +0.047 A 
ATOM     19  C   UNL     1       0.604   3.248   0.014  0.00  0.00    +0.005 A 
ATOM     20  C   UNL     1       1.241   4.490   0.014  0.00  0.00    +0.010 A 
ATOM     21  C   UNL     1       1.076   1.861   0.002  0.00  0.00    -0.002 A 
ATOM     22  C   UNL     1      -0.013   1.076   0.008  0.00  0.00    +0.089 A 
ATOM     23  N   UNL     1      -1.143   1.846   0.017  0.00  0.00    -0.360 N 
ATOM     24  H   UNL     1      -2.051   1.504   0.019  0.00  0.00    +0.165 HD
ENDBRANCH   1  21
BRANCH  11  25
ATOM     25  N   UNL     1       2.586  -2.449  -1.786  0.00  0.00    +0.058 N 
ATOM     26  O   UNL     1       2.582  -3.558  -2.290  0.00  0.00    -0.126 OA
ATOM     27  O   UNL     1       2.841  -1.472  -2.467  0.00  0.00    -0.126 OA
ENDBRANCH  11  25
TORSDOF 2
