REMARK  Name = ZINC19995476
REMARK  5 active torsions:
REMARK  status: ('A' for Active; 'I' for Inactive)
REMARK    1  A    between atoms: C_4  and  C_7
REMARK    2  A    between atoms: C_8  and  C_20
REMARK    3  A    between atoms: C_13  and  C_15
REMARK    4  A    between atoms: C_15  and  C_16
REMARK    5  A    between atoms: C_16  and  C_17
REMARK                            x       y       z     vdW  Elec       q    Type
REMARK                         _______ _______ _______ _____ _____    ______ ____
ROOT
ATOM      1  C   UNL     1      -3.956   0.103   1.056  0.00  0.00    +0.088 A 
ATOM      2  C   UNL     1      -2.740  -0.295   0.510  0.00  0.00    +0.048 A 
ATOM      3  S   UNL     1      -2.797   0.541  -1.069  0.00  0.00    -0.051 S 
ATOM      4  C   UNL     1      -4.392   1.318  -0.855  0.00  0.00    +0.165 A 
ATOM      5  N   UNL     1      -4.737   0.903   0.350  0.00  0.00    -0.224 NA
ATOM      6  N   UNL     1      -5.085   2.148  -1.726  0.00  0.00    -0.265 N 
ATOM      7  C   UNL     1      -6.290   2.638  -1.373  0.00  0.00    +0.219 C 
ATOM      8  O   UNL     1      -6.769   2.355  -0.296  0.00  0.00    -0.275 OA
ATOM      9  H   UNL     1      -4.651   2.405  -2.703  0.00  0.00    +0.157 HD
ENDROOT
BRANCH   1  13
ATOM     10  C   UNL     1      -5.132  -1.212   4.922  0.00  0.00    +0.000 A 
ATOM     11  C   UNL     1      -3.833  -0.789   4.704  0.00  0.00    +0.001 A 
ATOM     12  C   UNL     1      -3.445  -0.360   3.451  0.00  0.00    +0.010 A 
ATOM     13  C   UNL     1      -4.366  -0.355   2.403  0.00  0.00    +0.002 A 
ATOM     14  C   UNL     1      -5.676  -0.778   2.631  0.00  0.00    +0.010 A 
ATOM     15  C   UNL     1      -6.050  -1.209   3.887  0.00  0.00    +0.001 A 
ENDBRANCH   1  13
BRANCH   2  16
ATOM     16  C   UNL     1      -1.692  -1.167   1.078  0.00  0.00    -0.009 A 
ATOM     17  C   UNL     1      -2.038  -2.379   1.680  0.00  0.00    +0.009 A 
ATOM     18  C   UNL     1      -1.054  -3.191   2.204  0.00  0.00    +0.001 A 
ATOM     19  C   UNL     1       0.273  -2.801   2.144  0.00  0.00    +0.000 A 
ATOM     20  C   UNL     1       0.622  -1.599   1.555  0.00  0.00    +0.001 A 
ATOM     21  C   UNL     1      -0.351  -0.780   1.022  0.00  0.00    +0.009 A 
ENDBRANCH   2  16
BRANCH   7  22
ATOM     22  C   UNL     1      -7.040   3.543  -2.317  0.00  0.00    +0.107 C 
BRANCH  22  23
ATOM     23  C   UNL     1      -8.366   3.961  -1.677  0.00  0.00    +0.134 C 
BRANCH  23  24
ATOM     24  C   UNL     1      -9.116   4.867  -2.619  0.00  0.00    +0.356 C 
ATOM     25  O   UNL     1      -8.639   5.149  -3.693  0.00  0.00    -0.246 OA
ATOM     26  O   UNL     1     -10.313   5.359  -2.267  0.00  0.00    -0.246 OA
ENDBRANCH  23  24
ENDBRANCH  22  23
ENDBRANCH   7  22
TORSDOF 5
