REMARK  Name = ZINC39361232
REMARK  10 active torsions:
REMARK  status: ('A' for Active; 'I' for Inactive)
REMARK    1  A    between atoms: C_1  and  C_2
REMARK    2  A    between atoms: C_7  and  C_15
REMARK    3  A    between atoms: C_13  and  C_14
REMARK    4  A    between atoms: C_15  and  C_16
REMARK    5  A    between atoms: C_16  and  N_17
REMARK    6  A    between atoms: N_17  and  S_18
REMARK    7  A    between atoms: S_18  and  C_21
REMARK    8  A    between atoms: C_22  and  C_29
REMARK    9  A    between atoms: C_24  and  C_28
REMARK   10  A    between atoms: C_26  and  C_27
REMARK                            x       y       z     vdW  Elec       q    Type
REMARK                         _______ _______ _______ _____ _____    ______ ____
ROOT
ATOM      1  C   UNL     1       0.370  -5.316   2.123  0.00  0.00    +0.033 C 
ENDROOT
BRANCH   1   8
ATOM      2  C   UNL     1       7.016  -4.324  -1.203  0.00  0.00    +0.044 C 
ATOM      3  C   UNL     1       5.887  -4.661  -0.263  0.00  0.00    -0.046 A 
ATOM      4  C   UNL     1       5.921  -5.881   0.414  0.00  0.00    +0.004 A 
ATOM      5  C   UNL     1       4.933  -6.240   1.274  0.00  0.00    +0.010 A 
ATOM      6  C   UNL     1       3.815  -5.322   1.487  0.00  0.00    -0.007 A 
ATOM      7  C   UNL     1       2.801  -5.640   2.341  0.00  0.00    -0.005 C 
ATOM      8  C   UNL     1       1.683  -4.628   2.501  0.00  0.00    +0.100 C 
ATOM      9  C   UNL     1       1.784  -3.349   1.701  0.00  0.00    +0.224 C 
ATOM     10  O   UNL     1       0.915  -2.502   1.792  0.00  0.00    -0.275 OA
ATOM     11  N   UNL     1       2.820  -3.154   0.903  0.00  0.00    -0.284 N 
ATOM     12  C   UNL     1       3.805  -4.041   0.759  0.00  0.00    +0.043 A 
ATOM     13  C   UNL     1       4.880  -3.763  -0.105  0.00  0.00    -0.026 A 
ATOM     14  C   UNL     1       4.912  -2.462  -0.865  0.00  0.00    +0.046 C 
ATOM     15  H   UNL     1       2.865  -2.327   0.399  0.00  0.00    +0.155 HD
ENDBRANCH   1   8
BRANCH   1  16
ATOM     16  C   UNL     1       0.050  -6.404   3.149  0.00  0.00    +0.107 C 
BRANCH  16  17
ATOM     17  N   UNL     1      -1.151  -7.132   2.732  0.00  0.00    -0.190 NA
ATOM     18  H   UNL     1      -1.728  -6.762   2.045  0.00  0.00    +0.148 HD
BRANCH  17  19
ATOM     19  S   UNL     1      -1.525  -8.585   3.432  0.00  0.00    +0.059 S 
ATOM     20  O   UNL     1      -2.743  -9.019   2.842  0.00  0.00    -0.153 OA
ATOM     21  O   UNL     1      -0.340  -9.369   3.398  0.00  0.00    -0.153 OA
BRANCH  19  22
ATOM     22  C   UNL     1      -1.872  -8.271   5.130  0.00  0.00    +0.111 A 
ATOM     23  C   UNL     1      -3.182  -8.177   5.562  0.00  0.00    -0.024 A 
ATOM     24  C   UNL     1      -3.454  -7.930   6.895  0.00  0.00    +0.008 A 
ATOM     25  C   UNL     1      -2.417  -7.779   7.796  0.00  0.00    -0.050 A 
ATOM     26  C   UNL     1      -1.107  -7.873   7.364  0.00  0.00    +0.008 A 
ATOM     27  C   UNL     1      -0.835  -8.124   6.032  0.00  0.00    -0.024 A 
ATOM     28  C   UNL     1       0.593  -8.233   5.563  0.00  0.00    +0.046 C 
ATOM     29  C   UNL     1      -2.714  -7.509   9.248  0.00  0.00    +0.044 C 
ATOM     30  C   UNL     1      -4.313  -8.342   4.580  0.00  0.00    +0.046 C 
ENDBRANCH  19  22
ENDBRANCH  17  19
ENDBRANCH  16  17
ENDBRANCH   1  16
TORSDOF 5
