REMARK  Name = ZINC33937138
REMARK  12 active torsions:
REMARK  status: ('A' for Active; 'I' for Inactive)
REMARK    1  A    between atoms: C_1  and  C_2
REMARK    2  A    between atoms: C_2  and  C_3
REMARK    3  A    between atoms: C_3  and  C_5
REMARK    4  A    between atoms: C_3  and  N_17
REMARK    5  A    between atoms: N_9  and  C_10
REMARK    6  A    between atoms: C_10  and  C_11
REMARK    7  A    between atoms: N_17  and  C_18
REMARK    8  A    between atoms: N_17  and  C_33
REMARK    9  A    between atoms: C_18  and  C_19
REMARK   10  A    between atoms: C_23  and  C_32
REMARK   11  A    between atoms: C_25  and  C_31
REMARK   12  A    between atoms: C_33  and  C_34
REMARK                            x       y       z     vdW  Elec       q    Type
REMARK                         _______ _______ _______ _____ _____    ______ ____
ROOT
ATOM      1  N   UNL     1      -2.869  -0.664   0.037  0.00  0.00    +0.391 N 
ATOM      2  H   UNL     1      -3.209  -1.204  -0.744  0.00  0.00    -0.080 HD
ENDROOT
BRANCH   1   3
ATOM      3  C   UNL     1      -1.400  -0.658   0.026  0.00  0.00    +0.003 C 
BRANCH   3   4
ATOM      4  C   UNL     1      -0.892   0.192   1.163  0.00  0.00    +0.138 A 
ATOM      5  N   UNL     1      -1.617   0.798   2.071  0.00  0.00    -0.115 NA
ATOM      6  N   UNL     1      -0.819   1.421   2.867  0.00  0.00    -0.023 NA
ATOM      7  N   UNL     1       0.397   1.227   2.491  0.00  0.00    -0.044 NA
ATOM      8  N   UNL     1       0.394   0.470   1.447  0.00  0.00    -0.228 N 
BRANCH   8   9
ATOM      9  C   UNL     1       1.569   0.003   0.706  0.00  0.00    +0.178 C 
BRANCH   9  10
ATOM     10  C   UNL     1       2.038   1.101  -0.250  0.00  0.00    +0.140 C 
ATOM     11  C   UNL     1       3.316   0.650  -1.001  0.00  0.00    +0.035 C 
ATOM     12  C   UNL     1       3.230   1.526  -2.281  0.00  0.00    +0.031 C 
ATOM     13  C   UNL     1       1.707   1.607  -2.521  0.00  0.00    +0.160 C 
ATOM     14  O   UNL     1       1.056   1.322  -1.275  0.00  0.00    -0.375 OA
ENDBRANCH   9  10
ENDBRANCH   8   9
ENDBRANCH   3   4
BRANCH   3  16
ATOM     15  C   UNL     1      -1.369  -2.942  -0.985  0.00  0.00    +0.002 C 
ATOM     16  C   UNL     1      -0.882  -2.088   0.188  0.00  0.00    -0.011 C 
ENDBRANCH   3  16
ENDBRANCH   1   3
BRANCH   1  17
ATOM     17  C   UNL     1      -3.346  -1.262   1.291  0.00  0.00    -0.036 C 
BRANCH  17  18
ATOM     18  C   UNL     1      -4.848  -1.382   1.250  0.00  0.00    +0.001 A 
ATOM     19  C   UNL     1      -5.422  -2.546   0.859  0.00  0.00    +0.017 A 
ATOM     20  C   UNL     1      -6.884  -2.631   0.830  0.00  0.00    -0.001 A 
ATOM     21  C   UNL     1      -7.533  -3.805   0.436  0.00  0.00    +0.013 A 
ATOM     22  C   UNL     1      -8.899  -3.851   0.421  0.00  0.00    -0.050 A 
ATOM     23  C   UNL     1      -9.647  -2.743   0.793  0.00  0.00    +0.008 A 
ATOM     24  C   UNL     1      -9.028  -1.575   1.184  0.00  0.00    -0.026 A 
ATOM     25  C   UNL     1      -7.639  -1.505   1.209  0.00  0.00    +0.052 A 
ATOM     26  N   UNL     1      -6.994  -0.350   1.597  0.00  0.00    -0.322 N 
ATOM     27  H   UNL     1      -7.516   0.425   1.857  0.00  0.00    +0.169 HD
ATOM     28  C   UNL     1      -5.652  -0.284   1.625  0.00  0.00    +0.251 A 
ATOM     29  O   UNL     1      -5.115   0.751   1.978  0.00  0.00    -0.268 OA
ATOM     30  C   UNL     1      -9.854  -0.380   1.585  0.00  0.00    +0.046 C 
ATOM     31  C   UNL     1      -9.598  -5.117  -0.004  0.00  0.00    +0.044 C 
ENDBRANCH  17  18
ENDBRANCH   1  17
BRANCH   1  32
ATOM     32  C   UNL     1      -3.365   0.715  -0.067  0.00  0.00    -0.045 C 
BRANCH  32  33
ATOM     33  C   UNL     1      -2.952   1.304  -1.418  0.00  0.00    +0.102 C 
ATOM     34  C   UNL     1      -3.393   2.782  -1.501  0.00  0.00    +0.032 C 
ATOM     35  C   UNL     1      -3.866   2.902  -2.975  0.00  0.00    +0.030 C 
ATOM     36  C   UNL     1      -4.462   1.490  -3.208  0.00  0.00    +0.160 C 
ATOM     37  O   UNL     1      -3.605   0.596  -2.477  0.00  0.00    -0.378 OA
ENDBRANCH  32  33
ENDBRANCH   1  32
TORSDOF 9
