REMARK  Name = ZINC16266631
REMARK  7 active torsions:
REMARK  status: ('A' for Active; 'I' for Inactive)
REMARK    1  A    between atoms: C_1  and  C_2
REMARK    2  A    between atoms: C_10  and  S_12
REMARK    3  A    between atoms: S_12  and  C_13
REMARK    4  A    between atoms: C_13  and  C_14
REMARK    5  A    between atoms: N_16  and  C_17
REMARK    6  A    between atoms: C_20  and  S_23
REMARK    7  A    between atoms: S_23  and  N_26
REMARK                            x       y       z     vdW  Elec       q    Type
REMARK                         _______ _______ _______ _____ _____    ______ ____
ROOT
ATOM      1  C   UNL     1      -0.743   1.583  -1.213  0.00  0.00    +0.227 C 
ATOM      2  O   UNL     1      -1.742   2.260  -1.088  0.00  0.00    -0.275 OA
ATOM      3  N   UNL     1      -0.288   1.272  -2.443  0.00  0.00    -0.285 N 
ATOM      4  H   UNL     1       0.546   0.789  -2.544  0.00  0.00    +0.155 HD
ENDROOT
BRANCH   3   5
ATOM      5  C   UNL     1      -1.022   1.646  -3.575  0.00  0.00    +0.034 A 
ATOM      6  C   UNL     1      -1.045   0.822  -4.692  0.00  0.00    +0.025 A 
ATOM      7  C   UNL     1      -1.774   1.192  -5.806  0.00  0.00    +0.030 A 
ATOM      8  C   UNL     1      -2.472   2.386  -5.812  0.00  0.00    +0.109 A 
ATOM      9  C   UNL     1      -2.445   3.212  -4.703  0.00  0.00    +0.030 A 
ATOM     10  C   UNL     1      -1.722   2.845  -3.585  0.00  0.00    +0.025 A 
BRANCH   8  11
ATOM     11  S   UNL     1      -3.395   2.857  -7.237  0.00  0.00    +0.074 S 
ATOM     12  O   UNL     1      -3.703   1.658  -7.936  0.00  0.00    -0.150 OA
ATOM     13  O   UNL     1      -4.399   3.757  -6.790  0.00  0.00    -0.150 OA
BRANCH  11  14
ATOM     14  N   UNL     1      -2.380   3.727  -8.213  0.00  0.00    -0.194 N 
ATOM     15  C   UNL     1      -1.275   3.114  -8.786  0.00  0.00    +0.177 A 
ATOM     16  N   UNL     1      -0.867   1.865  -8.669  0.00  0.00    -0.232 NA
ATOM     17  C   UNL     1       0.217   1.440  -9.292  0.00  0.00    +0.120 A 
ATOM     18  C   UNL     1       0.913   2.320 -10.050  0.00  0.00    +0.068 A 
ATOM     19  S   UNL     1      -0.071   3.796  -9.834  0.00  0.00    -0.059 S 
ATOM     20  H   UNL     1      -2.557   4.665  -8.385  0.00  0.00    +0.176 HD
ENDBRANCH  11  14
ENDBRANCH   8  11
ENDBRANCH   3   5
BRANCH   1  21
ATOM     21  C   UNL     1      -0.009   1.091   0.008  0.00  0.00    +0.173 C 
BRANCH  21  22
ATOM     22  S   UNL     1      -0.858   1.671   1.497  0.00  0.00    -0.077 S 
BRANCH  22  32
ATOM     23  C   UNL     1       0.262   0.930   6.430  0.00  0.00    +0.066 C 
ATOM     24  C   UNL     1       0.619   0.683   4.987  0.00  0.00    +0.050 A 
ATOM     25  C   UNL     1       1.750  -0.083   4.646  0.00  0.00    +0.021 A 
ATOM     26  C   UNL     1       2.588  -0.645   5.619  0.00  0.00    +0.012 A 
ATOM     27  C   UNL     1       3.670  -1.378   5.231  0.00  0.00    +0.001 A 
ATOM     28  C   UNL     1       3.955  -1.575   3.882  0.00  0.00    +0.002 A 
ATOM     29  C   UNL     1       3.162  -1.043   2.910  0.00  0.00    +0.028 A 
ATOM     30  C   UNL     1       2.039  -0.283   3.272  0.00  0.00    +0.076 A 
ATOM     31  N   UNL     1       1.229   0.262   2.357  0.00  0.00    -0.222 NA
ATOM     32  C   UNL     1       0.182   0.971   2.735  0.00  0.00    +0.189 A 
ATOM     33  N   UNL     1      -0.116   1.184   4.016  0.00  0.00    -0.227 NA
ENDBRANCH  22  32
ENDBRANCH  21  22
ENDBRANCH   1  21
TORSDOF 6
