REMARK  Name = ZINC59170726
REMARK  12 active torsions:
REMARK  status: ('A' for Active; 'I' for Inactive)
REMARK    1  A    between atoms: C_1  and  C_2
REMARK    2  A    between atoms: C_2  and  C_3
REMARK    3  A    between atoms: C_2  and  C_4
REMARK    4  A    between atoms: C_2  and  C_5
REMARK    5  A    between atoms: C_9  and  C_27
REMARK    6  A    between atoms: N_11  and  C_12
REMARK    7  A    between atoms: C_15  and  S_18
REMARK    8  A    between atoms: S_18  and  N_21
REMARK    9  A    between atoms: C_24  and  O_26
REMARK   10  A    between atoms: N_29  and  C_30
REMARK   11  A    between atoms: C_35  and  O_36
REMARK   12  A    between atoms: O_36  and  C_37
REMARK                            x       y       z     vdW  Elec       q    Type
REMARK                         _______ _______ _______ _____ _____    ______ ____
ROOT
ATOM      1  C   UNL     1       0.117  -0.535  -1.752  0.00  0.00    -0.038 A 
ATOM      2  C   UNL     1       0.092  -1.802  -2.291  0.00  0.00    +0.016 A 
ATOM      3  C   UNL     1       1.085  -2.189  -3.199  0.00  0.00    +0.022 A 
ATOM      4  C   UNL     1       1.086  -3.534  -3.780  0.00  0.00    +0.030 A 
ATOM      5  C   UNL     1       2.233  -3.938  -4.450  0.00  0.00    +0.098 A 
ATOM      6  C   UNL     1       3.349  -2.974  -4.516  0.00  0.00    +0.212 A 
ATOM      7  N   UNL     1       4.593  -3.384  -4.639  0.00  0.00    -0.325 N 
ATOM      8  O   UNL     1       3.052  -1.651  -4.447  0.00  0.00    -0.435 OA
ATOM      9  C   UNL     1       2.096  -1.280  -3.560  0.00  0.00    +0.179 A 
ATOM     10  C   UNL     1       2.104  -0.005  -3.003  0.00  0.00    +0.160 A 
ATOM     11  C   UNL     1       1.113   0.361  -2.107  0.00  0.00    +0.053 A 
ATOM     12  H   UNL     1       4.798  -4.330  -4.591  0.00  0.00    +0.169 HD
ENDROOT
BRANCH   7  13
ATOM     13  C   UNL     1       5.596  -2.475  -4.834  0.00  0.00    +0.042 A 
ATOM     14  C   UNL     1       5.433  -1.436  -5.754  0.00  0.00    +0.027 A 
ATOM     15  C   UNL     1       6.449  -0.523  -5.945  0.00  0.00    +0.030 A 
ATOM     16  C   UNL     1       7.628  -0.635  -5.230  0.00  0.00    +0.105 A 
ATOM     17  C   UNL     1       7.797  -1.662  -4.317  0.00  0.00    +0.030 A 
ATOM     18  C   UNL     1       6.787  -2.578  -4.111  0.00  0.00    +0.027 A 
BRANCH  16  19
ATOM     19  S   UNL     1       8.921   0.534  -5.482  0.00  0.00    +0.056 S 
ATOM     20  O   UNL     1      10.129  -0.105  -5.093  0.00  0.00    -0.153 OA
ATOM     21  O   UNL     1       8.731   1.076  -6.782  0.00  0.00    -0.153 OA
BRANCH  19  22
ATOM     22  N   UNL     1       8.676   1.774  -4.412  0.00  0.00    -0.204 NA
ATOM     23  H   UNL     1       7.920   1.748  -3.805  0.00  0.00    +0.144 HD
ATOM     24  H   UNL     1       9.288   2.526  -4.393  0.00  0.00    +0.144 HD
ENDBRANCH  19  22
ENDBRANCH  16  19
ENDBRANCH   7  13
BRANCH   1  26
ATOM     25  C   UNL     1      -0.702   1.326  -0.332  0.00  0.00    +0.015 C 
ATOM     26  C   UNL     1      -0.951  -0.117  -0.773  0.00  0.00    -0.013 C 
ATOM     27  C   UNL     1      -0.910  -1.038   0.449  0.00  0.00    +0.015 C 
ATOM     28  C   UNL     1      -2.323  -0.217  -1.442  0.00  0.00    +0.015 C 
ENDBRANCH   1  26
BRANCH   5  29
ATOM     29  C   UNL     1       2.332  -5.272  -5.067  0.00  0.00    +0.253 C 
ATOM     30  O   UNL     1       1.450  -6.091  -4.891  0.00  0.00    -0.270 OA
ATOM     31  N   UNL     1       3.400  -5.585  -5.827  0.00  0.00    -0.278 N 
ATOM     32  H   UNL     1       4.130  -4.953  -5.922  0.00  0.00    +0.155 HD
BRANCH  31  33
ATOM     33  C   UNL     1       3.457  -6.823  -6.479  0.00  0.00    +0.076 A 
ATOM     34  C   UNL     1       2.786  -7.918  -5.953  0.00  0.00    +0.027 A 
ATOM     35  C   UNL     1       2.843  -9.138  -6.599  0.00  0.00    +0.002 A 
ATOM     36  C   UNL     1       3.567  -9.272  -7.769  0.00  0.00    +0.004 A 
ATOM     37  C   UNL     1       4.239  -8.186  -8.299  0.00  0.00    +0.047 A 
ATOM     38  C   UNL     1       4.183  -6.957  -7.661  0.00  0.00    +0.141 A 
BRANCH  38  39
ATOM     39  O   UNL     1       4.838  -5.887  -8.184  0.00  0.00    -0.493 OA
ATOM     40  C   UNL     1       5.562  -6.099  -9.397  0.00  0.00    +0.277 C 
ENDBRANCH  38  39
ENDBRANCH  31  33
ENDBRANCH   5  29
BRANCH  10  41
ATOM     41  O   UNL     1       3.079   0.880  -3.340  0.00  0.00    -0.503 OA
ATOM     42  H   UNL     1       2.862   1.431  -4.105  0.00  0.00    +0.292 HD
ENDBRANCH  10  41
TORSDOF 8
