REMARK  Name = ZINC07679948
REMARK  9 active torsions:
REMARK  status: ('A' for Active; 'I' for Inactive)
REMARK    1  A    between atoms: C_1  and  C_2
REMARK    2  A    between atoms: C_2  and  C_3
REMARK    3  A    between atoms: C_2  and  C_4
REMARK    4  A    between atoms: C_2  and  O_5
REMARK    5  A    between atoms: O_5  and  C_6
REMARK    6  A    between atoms: C_6  and  C_8
REMARK    7  A    between atoms: C_8  and  N_57
REMARK    8  A    between atoms: N_11  and  S_14
REMARK    9  A    between atoms: S_14  and  C_17
REMARK                            x       y       z     vdW  Elec       q    Type
REMARK                         _______ _______ _______ _____ _____    ______ ____
ROOT
ATOM      1  C   UNL     1      -0.156   1.513   0.067  0.00  0.00    -0.061 C 
ATOM      2  C   UNL     1      -0.978   2.211  -1.021  0.00  0.00    +0.091 C 
ATOM      3  N   UNL     1      -1.136   3.626  -0.652  0.00  0.00    -0.180 NA
ATOM      4  C   UNL     1      -1.630   3.942   0.697  0.00  0.00    +0.091 C 
ATOM      5  C   UNL     1      -0.782   3.176   1.718  0.00  0.00    -0.061 C 
ATOM      6  N   UNL     1      -0.810   1.737   1.375  0.00  0.00    +0.388 N 
ATOM      7  H   UNL     1      -1.788   1.429   1.315  0.00  0.00    -0.081 HD
ENDROOT
BRANCH   3   8
ATOM      8  S   UNL     1      -0.769   4.831  -1.727  0.00  0.00    +0.061 S 
ATOM      9  O   UNL     1      -0.482   5.989  -0.955  0.00  0.00    -0.153 OA
ATOM     10  O   UNL     1       0.161   4.282  -2.651  0.00  0.00    -0.153 OA
BRANCH   8  11
ATOM     11  C   UNL     1      -2.236   5.183  -2.637  0.00  0.00    +0.106 A 
ATOM     12  C   UNL     1      -2.502   4.505  -3.813  0.00  0.00    +0.029 A 
ATOM     13  C   UNL     1      -3.654   4.783  -4.518  0.00  0.00    +0.006 A 
ATOM     14  C   UNL     1      -4.544   5.748  -4.063  0.00  0.00    -0.044 A 
ATOM     15  C   UNL     1      -4.278   6.424  -2.894  0.00  0.00    -0.042 A 
ATOM     16  C   UNL     1      -3.120   6.139  -2.183  0.00  0.00    +0.032 A 
ATOM     17  C   UNL     1      -5.203   7.475  -2.337  0.00  0.00    +0.035 C 
ATOM     18  C   UNL     1      -6.167   7.968  -3.414  0.00  0.00    +0.005 C 
ATOM     19  C   UNL     1      -6.829   6.748  -4.065  0.00  0.00    +0.005 C 
ATOM     20  C   UNL     1      -5.776   6.011  -4.890  0.00  0.00    +0.035 C 
ENDBRANCH   8  11
ENDBRANCH   3   8
BRANCH   6  21
ATOM     21  C   UNL     1      -0.123   0.955   2.423  0.00  0.00    +0.044 C 
BRANCH  21  22
ATOM     22  C   UNL     1       1.300   1.423   2.588  0.00  0.00    +0.291 C 
ATOM     23  O   UNL     1       1.754   2.252   1.835  0.00  0.00    -0.253 OA
BRANCH  22  24
ATOM     24  O   UNL     1       2.062   0.920   3.571  0.00  0.00    -0.460 OA
BRANCH  24  26
ATOM     25  C   UNL     1       3.398   2.929   3.902  0.00  0.00    +0.055 C 
ATOM     26  C   UNL     1       3.423   1.417   3.670  0.00  0.00    +0.105 C 
ATOM     27  C   UNL     1       4.132   0.733   4.840  0.00  0.00    +0.055 C 
ATOM     28  C   UNL     1       4.173   1.112   2.371  0.00  0.00    +0.055 C 
ENDBRANCH  24  26
ENDBRANCH  22  24
ENDBRANCH  21  22
ENDBRANCH   6  21
TORSDOF 6
