REMARK  Name = ZINC36430621
REMARK  11 active torsions:
REMARK  status: ('A' for Active; 'I' for Inactive)
REMARK    1  A    between atoms: C_1  and  O_2
REMARK    2  A    between atoms: O_2  and  C_3
REMARK    3  A    between atoms: C_5  and  C_22
REMARK    4  A    between atoms: C_6  and  N_11
REMARK    5  A    between atoms: C_8  and  O_9
REMARK    6  A    between atoms: O_9  and  C_10
REMARK    7  A    between atoms: C_12  and  C_14
REMARK    8  A    between atoms: C_14  and  C_15
REMARK    9  A    between atoms: C_22  and  O_24
REMARK   10  A    between atoms: O_24  and  C_25
REMARK   11  A    between atoms: C_25  and  C_26
REMARK                            x       y       z     vdW  Elec       q    Type
REMARK                         _______ _______ _______ _____ _____    ______ ____
ROOT
ATOM      1  C   UNL     1      -1.104  -0.846  -0.268  0.00  0.00    +0.162 A 
ATOM      2  C   UNL     1      -2.229  -0.050  -0.211  0.00  0.00    +0.066 A 
ATOM      3  C   UNL     1      -3.497  -0.639  -0.139  0.00  0.00    +0.084 A 
ATOM      4  C   UNL     1      -3.616  -2.038  -0.125  0.00  0.00    +0.051 A 
ATOM      5  C   UNL     1      -2.478  -2.827  -0.182  0.00  0.00    +0.073 A 
ATOM      6  C   UNL     1      -1.226  -2.236  -0.259  0.00  0.00    +0.163 A 
ENDROOT
BRANCH   4   7
ATOM      7  N   UNL     1      -4.875  -2.632  -0.052  0.00  0.00    -0.285 N 
ATOM      8  C   UNL     1      -5.040  -3.781   0.632  0.00  0.00    +0.217 C 
ATOM      9  O   UNL     1      -4.116  -4.248   1.264  0.00  0.00    -0.275 OA
ATOM     10  H   UNL     1      -5.633  -2.218  -0.495  0.00  0.00    +0.155 HD
BRANCH   8  11
ATOM     11  C   UNL     1      -6.372  -4.485   0.612  0.00  0.00    +0.100 C 
BRANCH  11  12
ATOM     12  C   UNL     1      -6.290  -5.755   1.462  0.00  0.00    +0.001 C 
ATOM     13  C   UNL     1      -5.424  -6.822   0.755  0.00  0.00    +0.007 C 
ATOM     14  C   UNL     1      -6.389  -8.025   0.525  0.00  0.00    -0.010 C 
ATOM     15  C   UNL     1      -7.377  -7.527  -0.574  0.00  0.00    +0.004 C 
ATOM     16  C   UNL     1      -8.244  -6.460   0.134  0.00  0.00    +0.004 C 
ATOM     17  C   UNL     1      -7.697  -6.413   1.593  0.00  0.00    -0.007 C 
ATOM     18  C   UNL     1      -7.297  -7.916   1.802  0.00  0.00    +0.007 C 
ENDBRANCH  11  12
ENDBRANCH   8  11
ENDBRANCH   4   7
BRANCH   1  20
ATOM     19  C   UNL     1       0.181   1.154  -0.344  0.00  0.00    +0.277 C 
ATOM     20  O   UNL     1       0.129  -0.274  -0.339  0.00  0.00    -0.491 OA
ENDBRANCH   1  20
BRANCH   6  21
ATOM     21  O   UNL     1      -0.115  -3.013  -0.321  0.00  0.00    -0.491 OA
ATOM     22  C   UNL     1      -0.311  -4.429  -0.308  0.00  0.00    +0.277 C 
ENDBRANCH   6  21
BRANCH   3  23
ATOM     23  C   UNL     1      -4.700   0.205  -0.078  0.00  0.00    +0.341 C 
ATOM     24  O   UNL     1      -5.803  -0.305  -0.105  0.00  0.00    -0.245 OA
BRANCH  23  25
ATOM     25  O   UNL     1      -4.580   1.545   0.009  0.00  0.00    -0.455 OA
BRANCH  25  26
ATOM     26  C   UNL     1      -5.791   2.303   0.064  0.00  0.00    +0.288 C 
BRANCH  26  27
ATOM     27  C   UNL     1      -5.461   3.770   0.158  0.00  0.00    +0.086 A 
ATOM     28  C   UNL     1      -5.814   4.624  -0.870  0.00  0.00    +0.097 A 
ATOM     29  C   UNL     1      -5.497   5.983  -0.760  0.00  0.00    +0.259 A 
ATOM     30  O   UNL     1      -5.796   6.763  -1.650  0.00  0.00    -0.267 OA
ATOM     31  N   UNL     1      -4.856   6.417   0.346  0.00  0.00    -0.268 N 
ATOM     32  C   UNL     1      -4.541   7.737   0.468  0.00  0.00    +0.096 A 
ATOM     33  C   UNL     1      -3.899   8.195   1.565  0.00  0.00    +0.018 A 
ATOM     34  C   UNL     1      -3.548   7.313   2.597  0.00  0.00    +0.005 A 
ATOM     35  C   UNL     1      -3.859   5.991   2.485  0.00  0.00    +0.047 A 
ATOM     36  C   UNL     1      -4.528   5.532   1.335  0.00  0.00    +0.141 A 
ATOM     37  N   UNL     1      -4.838   4.242   1.226  0.00  0.00    -0.231 NA
ENDBRANCH  26  27
ENDBRANCH  25  26
ENDBRANCH  23  25
ENDBRANCH   3  23
TORSDOF 9
