REMARK  Name = ZINC40797074
REMARK  7 active torsions:
REMARK  status: ('A' for Active; 'I' for Inactive)
REMARK    1  A    between atoms: C_1  and  C_2
REMARK    2  A    between atoms: C_2  and  N_3
REMARK    3  A    between atoms: C_11  and  C_14
REMARK    4  A    between atoms: C_11  and  C_15
REMARK    5  A    between atoms: N_17  and  C_18
REMARK    6  A    between atoms: C_21  and  C_25
REMARK    7  A    between atoms: C_23  and  C_24
REMARK                            x       y       z     vdW  Elec       q    Type
REMARK                         _______ _______ _______ _____ _____    ______ ____
ROOT
ATOM      1  N   UNL     1      -1.389  -0.488   0.013  0.00  0.00    -0.265 N 
ATOM      2  C   UNL     1      -2.049  -0.729   1.226  0.00  0.00    +0.078 A 
ATOM      3  C   UNL     1      -1.512  -0.280   2.422  0.00  0.00    +0.027 A 
ATOM      4  C   UNL     1      -2.182  -0.514   3.608  0.00  0.00    +0.002 A 
ATOM      5  C   UNL     1      -3.387  -1.193   3.604  0.00  0.00    +0.004 A 
ATOM      6  C   UNL     1      -3.926  -1.647   2.414  0.00  0.00    +0.047 A 
ATOM      7  C   UNL     1      -3.257  -1.422   1.223  0.00  0.00    +0.144 A 
ATOM      8  O   UNL     1      -3.762  -1.891   0.050  0.00  0.00    -0.465 OA
ATOM      9  C   UNL     1      -3.488  -1.127  -1.126  0.00  0.00    +0.258 C 
ATOM     10  C   UNL     1      -2.034  -0.727  -1.147  0.00  0.00    +0.273 C 
ATOM     11  O   UNL     1      -1.447  -0.625  -2.204  0.00  0.00    -0.270 OA
ATOM     12  C   UNL     1      -4.357   0.132  -1.129  0.00  0.00    +0.076 C 
ENDROOT
BRANCH   9  13
ATOM     13  C   UNL     1      -3.801  -1.954  -2.346  0.00  0.00    +0.270 C 
ATOM     14  O   UNL     1      -3.123  -1.841  -3.346  0.00  0.00    -0.271 OA
ATOM     15  N   UNL     1      -4.833  -2.820  -2.326  0.00  0.00    -0.282 N 
ATOM     16  H   UNL     1      -5.325  -2.970  -1.504  0.00  0.00    +0.155 HD
BRANCH  15  17
ATOM     17  C   UNL     1      -5.196  -3.503  -3.493  0.00  0.00    +0.036 A 
ATOM     18  C   UNL     1      -4.891  -2.966  -4.737  0.00  0.00    +0.024 A 
ATOM     19  C   UNL     1      -5.251  -3.643  -5.886  0.00  0.00    +0.005 A 
ATOM     20  C   UNL     1      -5.914  -4.853  -5.799  0.00  0.00    -0.050 A 
ATOM     21  C   UNL     1      -6.220  -5.390  -4.562  0.00  0.00    +0.008 A 
ATOM     22  C   UNL     1      -5.857  -4.721  -3.409  0.00  0.00    -0.029 A 
ATOM     23  C   UNL     1      -6.184  -5.311  -2.061  0.00  0.00    +0.045 C 
ATOM     24  C   UNL     1      -6.305  -5.588  -7.055  0.00  0.00    +0.044 C 
ENDBRANCH  15  17
ENDBRANCH   9  13
BRANCH   1  26
ATOM     25  C   UNL     1      -0.040   1.552   0.005  0.00  0.00    +0.025 C 
ATOM     26  C   UNL     1      -0.015   0.022   0.006  0.00  0.00    +0.110 C 
ENDBRANCH   1  26
TORSDOF 3
