REMARK  Name = ZINC08071854
REMARK  7 active torsions:
REMARK  status: ('A' for Active; 'I' for Inactive)
REMARK    1  A    between atoms: C_1  and  C_2
REMARK    2  A    between atoms: C_2  and  C_3
REMARK    3  A    between atoms: C_2  and  C_4
REMARK    4  A    between atoms: C_2  and  C_5
REMARK    5  A    between atoms: C_12  and  N_17
REMARK    6  A    between atoms: C_13  and  C_14
REMARK    7  A    between atoms: C_18  and  C_20
REMARK                            x       y       z     vdW  Elec       q    Type
REMARK                         _______ _______ _______ _____ _____    ______ ____
ROOT
ATOM      1  C   UNL     1       0.718  -0.497  -1.257  0.00  0.00    -0.000 C 
ATOM      2  C   UNL     1      -0.017   0.013  -2.499  0.00  0.00    +0.009 C 
ATOM      3  C   UNL     1       0.538  -0.670  -3.751  0.00  0.00    +0.037 C 
ATOM      4  C   UNL     1       2.052  -0.516  -3.760  0.00  0.00    -0.023 A 
ATOM      5  C   UNL     1       2.731  -0.199  -2.636  0.00  0.00    -0.004 A 
ATOM      6  S   UNL     1       4.426  -0.134  -3.140  0.00  0.00    -0.077 S 
ATOM      7  C   UNL     1       4.255  -0.510  -4.768  0.00  0.00    +0.085 A 
ATOM      8  C   UNL     1       2.890  -0.688  -4.933  0.00  0.00    +0.068 A 
ATOM      9  C   UNL     1       2.158   0.038  -1.273  0.00  0.00    +0.046 C 
ENDROOT
BRANCH   8  10
ATOM     10  C   UNL     1       2.317  -1.034  -6.237  0.00  0.00    +0.244 C 
ATOM     11  O   UNL     1       1.974  -0.154  -7.004  0.00  0.00    -0.270 OA
ATOM     12  N   UNL     1       2.170  -2.327  -6.587  0.00  0.00    -0.325 N 
ATOM     13  H   UNL     1       2.444  -3.029  -5.976  0.00  0.00    +0.145 HD
ATOM     14  H   UNL     1       1.791  -2.557  -7.450  0.00  0.00    +0.145 HD
ENDBRANCH   8  10
BRANCH   1  16
ATOM     15  C   UNL     1      -0.019   1.526   0.010  0.00  0.00    +0.011 C 
ATOM     16  C   UNL     1       0.002  -0.004   0.002  0.00  0.00    -0.035 C 
ATOM     17  C   UNL     1       0.742  -0.511   1.242  0.00  0.00    +0.011 C 
ATOM     18  C   UNL     1      -1.433  -0.534   0.013  0.00  0.00    +0.011 C 
ENDBRANCH   1  16
BRANCH   7  19
ATOM     19  N   UNL     1       5.250  -0.618  -5.726  0.00  0.00    -0.275 N 
ATOM     20  C   UNL     1       6.538  -0.410  -5.387  0.00  0.00    +0.249 C 
ATOM     21  O   UNL     1       6.826  -0.128  -4.240  0.00  0.00    -0.270 OA
ATOM     22  H   UNL     1       5.020  -0.844  -6.641  0.00  0.00    +0.156 HD
BRANCH  20  23
ATOM     23  C   UNL     1       7.598  -0.525  -6.408  0.00  0.00    +0.039 A 
ATOM     24  C   UNL     1       7.251  -0.847  -7.734  0.00  0.00    +0.015 A 
ATOM     25  C   UNL     1       8.190  -0.961  -8.697  0.00  0.00    +0.031 A 
ATOM     26  C   UNL     1       9.565  -0.757  -8.393  0.00  0.00    +0.100 A 
ATOM     27  C   UNL     1       9.937  -0.423  -7.022  0.00  0.00    +0.101 A 
ATOM     28  C   UNL     1       8.912  -0.310  -6.049  0.00  0.00    +0.043 A 
ATOM     29  N   UNL     1      11.252  -0.256  -6.861  0.00  0.00    -0.191 NA
ATOM     30  S   UNL     1      11.901  -0.505  -8.312  0.00  0.00    +0.116 S 
ATOM     31  N   UNL     1      10.611  -0.830  -9.216  0.00  0.00    -0.191 NA
ENDBRANCH  20  23
ENDBRANCH   7  19
TORSDOF 4
