REMARK  Name = ZINC50363303
REMARK  8 active torsions:
REMARK  status: ('A' for Active; 'I' for Inactive)
REMARK    1  A    between atoms: C_1  and  C_2
REMARK    2  A    between atoms: C_2  and  C_3
REMARK    3  A    between atoms: C_2  and  C_4
REMARK    4  A    between atoms: C_7  and  N_13
REMARK    5  A    between atoms: CA_8  and  C_10
REMARK    6  A    between atoms: C_18  and  C_20
REMARK    7  A    between atoms: C_20  and  C_21
REMARK    8  A    between atoms: C_21  and  O_22
REMARK                            x       y       z     vdW  Elec       q    Type
REMARK                         _______ _______ _______ _____ _____    ______ ____
ROOT
ATOM      1  C   UNL     1      -1.380  -0.680  -0.463  0.00  0.00    +0.133 A 
ATOM      2  N   UNL     1      -2.025  -0.416   0.659  0.00  0.00    -0.238 NA
ATOM      3  C   UNL     1      -3.271  -0.811   0.839  0.00  0.00    +0.138 A 
ATOM      4  C   UNL     1      -3.912  -1.521  -0.182  0.00  0.00    +0.081 A 
ATOM      5  CA  UNL     1      -3.192  -1.782  -1.358  0.00  0.00    +0.176 A 
ATOM      6  N   UNL     1      -1.937  -1.339  -1.453  0.00  0.00    -0.223 NA
ENDROOT
BRANCH   4   7
ATOM      7  N   UNL     1      -5.221  -1.956  -0.036  0.00  0.00    -0.324 N 
ATOM      8  C   UNL     1      -5.511  -3.285   0.520  0.00  0.00    +0.105 C 
ATOM      9  C   UNL     1      -6.483  -3.127   1.694  0.00  0.00    +0.019 C 
ATOM     10  C   UNL     1      -7.720  -2.358   1.226  0.00  0.00    +0.003 C 
ATOM     11  C   UNL     1      -7.307  -0.963   0.751  0.00  0.00    +0.022 C 
ATOM     12  C   UNL     1      -6.344  -1.093  -0.427  0.00  0.00    +0.076 C 
BRANCH  12  13
ATOM     13  C   UNL     1      -5.818   0.291  -0.813  0.00  0.00    +0.050 C 
BRANCH  13  14
ATOM     14  C   UNL     1      -6.969   1.141  -1.355  0.00  0.00    +0.157 C 
BRANCH  14  15
ATOM     15  O   UNL     1      -6.463   2.404  -1.792  0.00  0.00    -0.395 OA
ATOM     16  H   UNL     1      -7.139   2.996  -2.148  0.00  0.00    +0.209 HD
ENDBRANCH  14  15
ENDBRANCH  13  14
ENDBRANCH  12  13
ENDBRANCH   4   7
BRANCH   1  18
ATOM     17  C   UNL     1       0.086   1.319  -0.488  0.00  0.00    +0.015 C 
ATOM     18  C   UNL     1       0.042  -0.205  -0.614  0.00  0.00    +0.051 C 
ATOM     19  C   UNL     1       0.909  -0.832   0.479  0.00  0.00    +0.015 C 
ENDBRANCH   1  18
BRANCH   5  20
ATOM     20  C   UNL     1      -3.813  -2.527  -2.472  0.00  0.00    +0.406 C 
ATOM     21  O   UNL     1      -4.965  -2.924  -2.375  0.00  0.00    -0.239 OA
ATOM     22  OXT UNL     1      -3.175  -2.747  -3.492  0.00  0.00    -0.239 OA
ENDBRANCH   5  20
TORSDOF 6
