REMARK  Name = ZINC00894639
REMARK  11 active torsions:
REMARK  status: ('A' for Active; 'I' for Inactive)
REMARK    1  A    between atoms: C_1  and  C_2
REMARK    2  A    between atoms: C_2  and  N_59
REMARK    3  A    between atoms: C_3  and  C_4
REMARK    4  A    between atoms: C_3  and  N_59
REMARK    5  A    between atoms: C_5  and  C_7
REMARK    6  A    between atoms: C_5  and  C_21
REMARK    7  A    between atoms: C_5  and  N_59
REMARK    8  A    between atoms: C_10  and  C_20
REMARK    9  A    between atoms: C_12  and  C_19
REMARK   10  A    between atoms: N_25  and  C_26
REMARK   11  A    between atoms: C_26  and  C_27
REMARK                            x       y       z     vdW  Elec       q    Type
REMARK                         _______ _______ _______ _____ _____    ______ ____
ROOT
ATOM      1  C   UNL     1       4.766   4.211  -0.277  0.00  0.00    +0.039 C 
ENDROOT
BRANCH   1   2
ATOM      2  C   UNL     1       3.299   3.987  -0.011  0.00  0.00    +0.011 A 
ATOM      3  C   UNL     1       2.775   2.741  -0.123  0.00  0.00    +0.018 A 
ATOM      4  C   UNL     1       1.347   2.557   0.143  0.00  0.00    +0.002 A 
ATOM      5  C   UNL     1       0.750   1.296   0.042  0.00  0.00    -0.041 A 
ATOM      6  C   UNL     1      -0.585   1.157   0.296  0.00  0.00    +0.007 A 
ATOM      7  C   UNL     1      -1.354   2.256   0.653  0.00  0.00    -0.048 A 
ATOM      8  C   UNL     1      -0.787   3.507   0.758  0.00  0.00    +0.029 A 
ATOM      9  C   UNL     1       0.571   3.673   0.504  0.00  0.00    +0.050 A 
ATOM     10  N   UNL     1       1.165   4.914   0.601  0.00  0.00    -0.322 N 
ATOM     11  H   UNL     1       0.611   5.706   0.858  0.00  0.00    +0.169 HD
ATOM     12  C   UNL     1       2.477   5.073   0.355  0.00  0.00    +0.251 A 
ATOM     13  O   UNL     1       2.968   6.185   0.451  0.00  0.00    -0.268 OA
ATOM     14  C   UNL     1      -2.825   2.079   0.930  0.00  0.00    +0.044 C 
ATOM     15  C   UNL     1       1.576   0.096  -0.344  0.00  0.00    +0.044 C 
ENDBRANCH   1   2
BRANCH   1  16
ATOM     16  C   UNL     1       5.446   4.648   0.995  0.00  0.00    +0.143 A 
ATOM     17  N   UNL     1       5.376   5.832   1.553  0.00  0.00    -0.115 NA
ATOM     18  N   UNL     1       6.091   5.809   2.625  0.00  0.00    -0.023 NA
ATOM     19  N   UNL     1       6.622   4.645   2.760  0.00  0.00    -0.044 NA
ATOM     20  N   UNL     1       6.248   3.900   1.775  0.00  0.00    -0.226 N 
BRANCH  20  21
ATOM     21  C   UNL     1       6.626   2.503   1.548  0.00  0.00    +0.182 C 
BRANCH  21  22
ATOM     22  C   UNL     1       7.884   2.451   0.720  0.00  0.00    -0.026 A 
ATOM     23  C   UNL     1       7.802   2.406  -0.659  0.00  0.00    +0.005 A 
ATOM     24  C   UNL     1       8.956   2.363  -1.419  0.00  0.00    +0.000 A 
ATOM     25  C   UNL     1      10.191   2.355  -0.800  0.00  0.00    +0.000 A 
ATOM     26  C   UNL     1      10.273   2.395   0.580  0.00  0.00    +0.000 A 
ATOM     27  C   UNL     1       9.120   2.443   1.339  0.00  0.00    +0.005 A 
ENDBRANCH  21  22
ENDBRANCH  20  21
ENDBRANCH   1  16
BRANCH   1  28
ATOM     28  N   UNL     1       4.917   5.279  -1.288  0.00  0.00    +0.389 N 
ATOM     29  H   UNL     1       4.693   6.182  -0.855  0.00  0.00    -0.080 HD
BRANCH  28  31
ATOM     30  C   UNL     1       7.176   6.039  -0.744  0.00  0.00    -0.017 C 
ATOM     31  C   UNL     1       6.311   5.315  -1.778  0.00  0.00    -0.081 C 
ENDBRANCH  28  31
BRANCH  28  32
ATOM     32  C   UNL     1       3.991   5.043  -2.415  0.00  0.00    -0.081 C 
ATOM     33  C   UNL     1       3.893   6.323  -3.247  0.00  0.00    -0.017 C 
ENDBRANCH  28  32
ENDBRANCH   1  28
TORSDOF 7
