REMARK  Name = ZINC11288809
REMARK  11 active torsions:
REMARK  status: ('A' for Active; 'I' for Inactive)
REMARK    1  A    between atoms: C_1  and  C_2
REMARK    2  A    between atoms: C_2  and  O_3
REMARK    3  A    between atoms: O_3  and  C_4
REMARK    4  A    between atoms: C_4  and  C_6
REMARK    5  A    between atoms: C_7  and  C_21
REMARK    6  A    between atoms: C_12  and  C_14
REMARK    7  A    between atoms: C_21  and  S_22
REMARK    8  A    between atoms: S_22  and  C_23
REMARK    9  A    between atoms: C_26  and  C_29
REMARK   10  A    between atoms: N_27  and  C_28
REMARK   11  A    between atoms: C_32  and  C_35
REMARK                            x       y       z     vdW  Elec       q    Type
REMARK                         _______ _______ _______ _____ _____    ______ ____
ROOT
ATOM      1  C   UNL     1      -7.187   5.786  -1.300  0.00  0.00    +0.079 C 
ATOM      2  C   UNL     1      -6.366   5.782  -0.228  0.00  0.00    +0.034 C 
ATOM      3  N   UNL     1      -6.443   6.760   0.723  0.00  0.00    -0.272 N 
ATOM      4  C   UNL     1      -7.318   7.772   0.677  0.00  0.00    +0.304 C 
ATOM      5  O   UNL     1      -7.312   8.596   1.571  0.00  0.00    -0.252 OA
ATOM      6  N   UNL     1      -8.206   7.908  -0.328  0.00  0.00    -0.288 N 
ATOM      7  C   UNL     1      -8.204   6.904  -1.406  0.00  0.00    +0.144 C 
ATOM      8  H   UNL     1      -5.830   6.718   1.473  0.00  0.00    +0.156 HD
ATOM      9  H   UNL     1      -8.831   8.650  -0.342  0.00  0.00    +0.151 HD
ENDROOT
BRANCH   7  10
ATOM     10  C   UNL     1      -9.576   6.286  -1.467  0.00  0.00    -0.022 A 
ATOM     11  C   UNL     1     -10.255   5.993  -0.299  0.00  0.00    +0.007 A 
ATOM     12  C   UNL     1     -11.516   5.431  -0.354  0.00  0.00    +0.020 A 
ATOM     13  C   UNL     1     -12.095   5.151  -1.579  0.00  0.00    +0.041 A 
ATOM     14  C   UNL     1     -11.413   5.439  -2.748  0.00  0.00    +0.020 A 
ATOM     15  C   UNL     1     -10.154   6.006  -2.691  0.00  0.00    +0.007 A 
ATOM     16 CL   UNL     1     -13.677   4.439  -1.649  0.00  0.00    -0.084 Cl
ENDBRANCH   7  10
BRANCH   1  17
ATOM     17  C   UNL     1      -7.104   4.777  -2.288  0.00  0.00    +0.339 C 
ATOM     18  O   UNL     1      -6.389   3.809  -2.110  0.00  0.00    -0.245 OA
BRANCH  17  19
ATOM     19  O   UNL     1      -7.817   4.889  -3.428  0.00  0.00    -0.462 OA
BRANCH  19  21
ATOM     20  C   UNL     1      -8.562   4.133  -5.599  0.00  0.00    +0.048 C 
ATOM     21  C   UNL     1      -7.686   3.833  -4.382  0.00  0.00    +0.229 C 
ENDBRANCH  19  21
ENDBRANCH  17  19
ENDBRANCH   1  17
BRANCH   2  22
ATOM     22  C   UNL     1      -5.343   4.685  -0.081  0.00  0.00    +0.128 C 
BRANCH  22  23
ATOM     23  S   UNL     1      -5.962   3.434   1.073  0.00  0.00    -0.080 S 
BRANCH  23  24
ATOM     24  C   UNL     1      -4.608   2.307   1.056  0.00  0.00    +0.192 A 
ATOM     25  N   UNL     1      -3.499   2.430   0.362  0.00  0.00    -0.122 NA
ATOM     26  N   UNL     1      -2.725   1.429   0.585  0.00  0.00    -0.128 NA
ATOM     27  C   UNL     1      -3.293   0.604   1.434  0.00  0.00    +0.165 A 
ATOM     28  N   UNL     1      -4.519   1.138   1.758  0.00  0.00    -0.305 N 
ATOM     29  C   UNL     1      -5.518   0.573   2.667  0.00  0.00    +0.153 C 
BRANCH  27  30
ATOM     30  C   UNL     1      -2.724  -0.662   1.942  0.00  0.00    +0.019 A 
ATOM     31  C   UNL     1      -3.237  -1.245   3.102  0.00  0.00    +0.012 A 
ATOM     32  C   UNL     1      -2.698  -2.424   3.575  0.00  0.00    +0.004 A 
ATOM     33  C   UNL     1      -1.652  -3.029   2.901  0.00  0.00    -0.050 A 
ATOM     34  C   UNL     1      -1.139  -2.456   1.750  0.00  0.00    +0.004 A 
ATOM     35  C   UNL     1      -1.669  -1.277   1.268  0.00  0.00    +0.012 A 
ATOM     36  C   UNL     1      -1.068  -4.316   3.423  0.00  0.00    +0.044 C 
ENDBRANCH  27  30
ENDBRANCH  23  24
ENDBRANCH  22  23
ENDBRANCH   2  22
TORSDOF 8
