REMARK  Name = ZINC04212945
REMARK  13 active torsions:
REMARK  status: ('A' for Active; 'I' for Inactive)
REMARK    1  A    between atoms: C_1  and  C_2
REMARK    2  A    between atoms: C_2  and  C_3
REMARK    3  A    between atoms: C_3  and  C_4
REMARK    4  A    between atoms: C_4  and  O_6
REMARK    5  A    between atoms: O_6  and  C_7
REMARK    6  A    between atoms: C_7  and  C_34
REMARK    7  A    between atoms: C_12  and  C_33
REMARK    8  A    between atoms: C_14  and  O_32
REMARK    9  A    between atoms: C_28  and  C_29
REMARK   10  A    between atoms: C_34  and  C_36
REMARK   11  A    between atoms: C_36  and  O_37
REMARK   12  A    between atoms: O_37  and  C_38
REMARK   13  A    between atoms: C_38  and  C_40
REMARK                            x       y       z     vdW  Elec       q    Type
REMARK                         _______ _______ _______ _____ _____    ______ ____
ROOT
ATOM      1  C   UNL     1       2.982  -3.241   2.194  0.00  0.00    +0.180 C 
ATOM      2  C   UNL     1       1.568  -3.207   1.563  0.00  0.00    +0.057 C 
ATOM      3  C   UNL     1       0.647  -4.024   2.510  0.00  0.00    +0.009 C 
ATOM      4  C   UNL     1       1.378  -3.943   3.854  0.00  0.00    +0.006 C 
ATOM      5  C   UNL     1       2.856  -4.138   3.421  0.00  0.00    +0.021 C 
ATOM      6  C   UNL     1       3.722  -3.779   4.613  0.00  0.00    +0.045 C 
ATOM      7  C   UNL     1       3.423  -4.806   5.717  0.00  0.00    +0.154 C 
ATOM      8  C   UNL     1       1.942  -4.822   6.084  0.00  0.00    +0.153 C 
ATOM      9  C   UNL     1       1.039  -5.031   4.857  0.00  0.00    +0.037 C 
ATOM     10  C   UNL     1      -0.432  -4.926   5.262  0.00  0.00    +0.048 C 
ATOM     11  C   UNL     1      -0.780  -6.049   6.244  0.00  0.00    +0.194 C 
ATOM     12  C   UNL     1       0.188  -5.973   7.410  0.00  0.00    -0.020 C 
ATOM     13  C   UNL     1      -0.294  -5.951   8.645  0.00  0.00    +0.054 C 
ATOM     14  C   UNL     1       0.613  -5.858   9.800  0.00  0.00    +0.179 C 
ATOM     15  O   UNL     1       0.177  -5.877  10.936  0.00  0.00    -0.288 OA
ATOM     16  C   UNL     1       2.059  -5.741   9.550  0.00  0.00    +0.047 C 
ATOM     17  C   UNL     1       2.519  -5.772   8.308  0.00  0.00    -0.009 C 
ATOM     18  C   UNL     1       1.682  -5.948   7.090  0.00  0.00    +0.047 C 
ATOM     19  C   UNL     1       2.078  -7.268   6.426  0.00  0.00    +0.023 C 
ATOM     20  F   UNL     1      -2.090  -5.884   6.705  0.00  0.00    -0.241 F 
ATOM     21  F   UNL     1       1.598  -3.597   6.665  0.00  0.00    -0.238 F 
ATOM     22  C   UNL     1       3.092  -5.596   3.024  0.00  0.00    +0.016 C 
ENDROOT
BRANCH   7  23
ATOM     23  O   UNL     1       3.804  -6.105   5.261  0.00  0.00    -0.389 OA
ATOM     24  H   UNL     1       4.741  -6.185   5.038  0.00  0.00    +0.210 HD
ENDBRANCH   7  23
BRANCH   1  25
ATOM     25  C   UNL     1       3.976  -3.823   1.222  0.00  0.00    +0.214 C 
ATOM     26  O   UNL     1       3.607  -4.598   0.373  0.00  0.00    -0.289 OA
BRANCH  25  27
ATOM     27  C   UNL     1       5.431  -3.438   1.310  0.00  0.00    +0.310 C 
BRANCH  27  28
ATOM     28  O   UNL     1       6.145  -4.025   0.221  0.00  0.00    -0.457 OA
BRANCH  28  29
ATOM     29  C   UNL     1       7.463  -3.778   0.153  0.00  0.00    +0.304 C 
ATOM     30  O   UNL     1       7.992  -3.086   0.991  0.00  0.00    -0.251 OA
ATOM     31  C   UNL     1       8.283  -4.364  -0.968  0.00  0.00    +0.136 C 
ENDBRANCH  28  29
ENDBRANCH  27  28
ENDBRANCH  25  27
ENDBRANCH   1  25
BRANCH   1  32
ATOM     32  O   UNL     1       3.383  -1.925   2.582  0.00  0.00    -0.450 OA
BRANCH  32  33
ATOM     33  C   UNL     1       3.432  -0.993   1.617  0.00  0.00    +0.308 C 
ATOM     34  O   UNL     1       3.230  -1.304   0.467  0.00  0.00    -0.251 OA
BRANCH  33  35
ATOM     35  C   UNL     1       3.738   0.440   1.968  0.00  0.00    +0.120 C 
BRANCH  35  37
ATOM     36  C   UNL     1       4.044   2.744   1.051  0.00  0.00    +0.004 C 
ATOM     37  C   UNL     1       3.733   1.289   0.695  0.00  0.00    +0.008 C 
ENDBRANCH  35  37
ENDBRANCH  33  35
ENDBRANCH  32  33
ENDBRANCH   1  32
TORSDOF 9
