REMARK  Name = ZINC09349379
REMARK  11 active torsions:
REMARK  status: ('A' for Active; 'I' for Inactive)
REMARK    1  A    between atoms: C_1  and  C_2
REMARK    2  A    between atoms: C_2  and  C_4
REMARK    3  A    between atoms: C_2  and  N_60
REMARK    4  A    between atoms: C_7  and  S_16
REMARK    5  A    between atoms: N_8  and  C_9
REMARK    6  A    between atoms: S_16  and  C_17
REMARK    7  A    between atoms: C_17  and  C_18
REMARK    8  A    between atoms: N_20  and  C_21
REMARK    9  A    between atoms: C_26  and  C_27
REMARK   10  A    between atoms: C_33  and  N_60
REMARK   11  A    between atoms: C_34  and  N_60
REMARK                            x       y       z     vdW  Elec       q    Type
REMARK                         _______ _______ _______ _____ _____    ______ ____
ROOT
ATOM      1  C   UNL     1      -1.428   3.444   2.534  0.00  0.00    +0.125 A 
ATOM      2  N   UNL     1      -2.544   2.962   3.003  0.00  0.00    -0.135 NA
ATOM      3  N   UNL     1      -2.873   3.576   4.082  0.00  0.00    -0.122 NA
ATOM      4  C   UNL     1      -1.982   4.499   4.361  0.00  0.00    +0.197 A 
ATOM      5  N   UNL     1      -1.029   4.444   3.381  0.00  0.00    -0.275 N 
ENDROOT
BRANCH   5   6
ATOM      6  C   UNL     1       0.117   5.245   3.266  0.00  0.00    +0.050 A 
ATOM      7  C   UNL     1       1.377   4.675   3.377  0.00  0.00    +0.028 A 
ATOM      8  C   UNL     1       2.504   5.465   3.258  0.00  0.00    +0.022 A 
ATOM      9  C   UNL     1       2.377   6.825   3.039  0.00  0.00    +0.041 A 
ATOM     10  C   UNL     1       1.121   7.397   2.934  0.00  0.00    +0.022 A 
ATOM     11  C   UNL     1      -0.009   6.610   3.046  0.00  0.00    +0.028 A 
ATOM     12 CL   UNL     1       3.795   7.817   2.897  0.00  0.00    -0.084 Cl
ENDBRANCH   5   6
BRANCH   1  14
ATOM     13  C   UNL     1      -1.458   3.505   0.055  0.00  0.00    -0.005 C 
ATOM     14  C   UNL     1      -0.712   2.990   1.288  0.00  0.00    -0.003 C 
BRANCH  14  17
ATOM     15  C   UNL     1       0.024   1.042   0.053  0.00  0.00    -0.096 C 
ATOM     16  C   UNL     1      -0.042   0.987   2.473  0.00  0.00    -0.096 C 
ATOM     17  N   UNL     1      -0.695   1.512   1.255  0.00  0.00    +0.382 N 
ATOM     18  H   UNL     1      -1.662   1.168   1.221  0.00  0.00    -0.082 HD
ENDBRANCH  14  17
ENDBRANCH   1  14
BRANCH   4  19
ATOM     19  S   UNL     1      -2.006   5.599   5.737  0.00  0.00    -0.076 S 
BRANCH  19  20
ATOM     20  C   UNL     1      -3.536   5.061   6.542  0.00  0.00    +0.173 C 
BRANCH  20  21
ATOM     21  C   UNL     1      -3.769   5.887   7.781  0.00  0.00    +0.228 C 
ATOM     22  O   UNL     1      -2.979   6.754   8.089  0.00  0.00    -0.275 OA
ATOM     23  N   UNL     1      -4.856   5.662   8.546  0.00  0.00    -0.284 N 
ATOM     24  H   UNL     1      -5.528   5.025   8.258  0.00  0.00    +0.155 HD
BRANCH  23  25
ATOM     25  C   UNL     1      -5.013   6.346   9.754  0.00  0.00    +0.041 A 
ATOM     26  C   UNL     1      -3.903   6.836  10.427  0.00  0.00    +0.024 A 
ATOM     27  C   UNL     1      -4.061   7.513  11.621  0.00  0.00    +0.002 A 
ATOM     28  C   UNL     1      -5.324   7.706  12.153  0.00  0.00    +0.001 A 
ATOM     29  C   UNL     1      -6.438   7.224  11.494  0.00  0.00    +0.010 A 
ATOM     30  C   UNL     1      -6.292   6.545  10.287  0.00  0.00    +0.003 A 
BRANCH  30  31
ATOM     31  C   UNL     1      -7.485   6.031   9.573  0.00  0.00    -0.016 A 
ATOM     32  C   UNL     1      -7.662   6.307   8.218  0.00  0.00    +0.008 A 
ATOM     33  C   UNL     1      -8.773   5.822   7.557  0.00  0.00    +0.001 A 
ATOM     34  C   UNL     1      -9.714   5.071   8.239  0.00  0.00    +0.000 A 
ATOM     35  C   UNL     1      -9.545   4.798   9.585  0.00  0.00    +0.001 A 
ATOM     36  C   UNL     1      -8.436   5.274  10.255  0.00  0.00    +0.008 A 
ENDBRANCH  30  31
ENDBRANCH  23  25
ENDBRANCH  20  21
ENDBRANCH  19  20
ENDBRANCH   4  19
TORSDOF 8
