REMARK  Name = ZINC36497918
REMARK  9 active torsions:
REMARK  status: ('A' for Active; 'I' for Inactive)
REMARK    1  A    between atoms: C_4  and  O_37
REMARK    2  A    between atoms: C_5  and  C_7
REMARK    3  A    between atoms: N_9  and  C_10
REMARK    4  A    between atoms: N_9  and  C_16
REMARK    5  A    between atoms: C_10  and  C_11
REMARK    6  A    between atoms: C_16  and  C_18
REMARK    7  A    between atoms: C_16  and  C_28
REMARK    8  A    between atoms: C_20  and  N_25
REMARK    9  A    between atoms: N_30  and  C_31
REMARK                            x       y       z     vdW  Elec       q    Type
REMARK                         _______ _______ _______ _____ _____    ______ ____
ROOT
ATOM      1  C   UNL     1       0.484  -4.179  -0.108  0.00  0.00    +0.194 C 
ENDROOT
BRANCH   1   2
ATOM      2  C   UNL     1      -0.272  -4.562  -1.354  0.00  0.00    +0.002 A 
ATOM      3  C   UNL     1      -1.559  -5.059  -1.257  0.00  0.00    +0.040 A 
ATOM      4  C   UNL     1      -2.252  -5.410  -2.400  0.00  0.00    +0.127 A 
ATOM      5  C   UNL     1      -1.659  -5.267  -3.641  0.00  0.00    +0.034 A 
ATOM      6  C   UNL     1      -0.373  -4.770  -3.739  0.00  0.00    +0.022 A 
ATOM      7  C   UNL     1       0.319  -4.413  -2.596  0.00  0.00    +0.047 A 
ATOM      8 CL   UNL     1       1.932  -3.782  -2.719  0.00  0.00    -0.083 Cl
BRANCH   4   9
ATOM      9  N   UNL     1      -3.630  -5.942  -2.296  0.00  0.00    +0.056 N 
ATOM     10  O   UNL     1      -4.183  -5.980  -1.221  0.00  0.00    -0.126 OA
ATOM     11  O   UNL     1      -4.201  -6.339  -3.284  0.00  0.00    -0.126 OA
ENDBRANCH   4   9
ENDBRANCH   1   2
BRANCH   1  12
ATOM     12  C   UNL     1      -0.233  -4.723   1.101  0.00  0.00    +0.238 C 
ATOM     13  O   UNL     1      -0.868  -3.976   1.816  0.00  0.00    -0.273 OA
ATOM     14  N   UNL     1      -0.169  -6.038   1.388  0.00  0.00    -0.311 N 
ATOM     15  H   UNL     1       0.413  -6.619   0.873  0.00  0.00    +0.149 HD
BRANCH  14  16
ATOM     16  C   UNL     1      -0.977  -6.590   2.478  0.00  0.00    +0.073 C 
ATOM     17  C   UNL     1      -0.233  -6.414   3.804  0.00  0.00    +0.022 C 
ATOM     18  C   UNL     1      -1.077  -6.991   4.942  0.00  0.00    +0.002 C 
ATOM     19  C   UNL     1      -1.324  -8.480   4.690  0.00  0.00    +0.000 C 
ATOM     20  C   UNL     1      -2.068  -8.656   3.365  0.00  0.00    +0.002 C 
ATOM     21  C   UNL     1      -1.224  -8.079   2.226  0.00  0.00    +0.022 C 
ENDBRANCH  14  16
ENDBRANCH   1  12
BRANCH   1  24
ATOM     22  C   UNL     1       1.691  -2.133   0.430  0.00  0.00    +0.251 C 
ATOM     23  O   UNL     1       1.657  -0.996   0.861  0.00  0.00    -0.270 OA
ATOM     24  N   UNL     1       0.562  -2.720  -0.014  0.00  0.00    -0.274 N 
BRANCH  22  29
ATOM     25  C   UNL     1       4.259  -4.825   0.924  0.00  0.00    +0.001 A 
ATOM     26  C   UNL     1       5.371  -4.255   0.326  0.00  0.00    +0.004 A 
ATOM     27  C   UNL     1       5.293  -2.997  -0.238  0.00  0.00    +0.046 A 
ATOM     28  C   UNL     1       4.096  -2.296  -0.210  0.00  0.00    +0.129 A 
ATOM     29  C   UNL     1       2.969  -2.869   0.394  0.00  0.00    +0.078 A 
ATOM     30  C   UNL     1       3.062  -4.143   0.961  0.00  0.00    +0.017 A 
BRANCH  28  31
ATOM     31  O   UNL     1       4.018  -1.060  -0.763  0.00  0.00    -0.506 OA
ATOM     32  H   UNL     1       3.766  -1.062  -1.696  0.00  0.00    +0.292 HD
ENDBRANCH  28  31
ENDBRANCH  22  29
BRANCH  24  33
ATOM     33  C   UNL     1      -0.586  -1.897  -0.403  0.00  0.00    +0.183 C 
BRANCH  33  34
ATOM     34  C   UNL     1      -1.362  -1.504   0.828  0.00  0.00    +0.122 A 
ATOM     35  C   UNL     1      -1.161  -0.395   1.562  0.00  0.00    +0.046 A 
ATOM     36  C   UNL     1      -2.104  -0.425   2.616  0.00  0.00    +0.041 A 
ATOM     37  C   UNL     1      -2.824  -1.551   2.461  0.00  0.00    +0.195 A 
ATOM     38  O   UNL     1      -2.374  -2.197   1.373  0.00  0.00    -0.466 OA
ENDBRANCH  33  34
ENDBRANCH  24  33
ENDBRANCH   1  24
TORSDOF 9
