REMARK  Name = ZINC12662629
REMARK  2 active torsions:
REMARK  status: ('A' for Active; 'I' for Inactive)
REMARK    1  A    between atoms: C_14  and  C_16
REMARK    2  A    between atoms: C_16  and  C_18
REMARK                            x       y       z     vdW  Elec       q    Type
REMARK                         _______ _______ _______ _____ _____    ______ ____
ROOT
ATOM      1  C   UNL     1       1.158   1.803  -0.038  0.00  0.00    +0.000 A 
ATOM      2  C   UNL     1       1.125   3.186  -0.045  0.00  0.00    +0.002 A 
ATOM      3  C   UNL     1      -0.082   3.854  -0.030  0.00  0.00    +0.023 A 
ATOM      4  C   UNL     1      -1.278   3.139  -0.008  0.00  0.00    +0.038 A 
ATOM      5  C   UNL     1      -1.232   1.749  -0.006  0.00  0.00    -0.012 A 
ATOM      6  C   UNL     1      -0.025   1.086  -0.016  0.00  0.00    +0.006 A 
ATOM      7  C   UNL     1      -2.663   1.289   0.013  0.00  0.00    +0.071 C 
ATOM      8  C   UNL     1      -2.987   0.419  -1.205  0.00  0.00    -0.046 C 
ATOM      9  C   UNL     1      -3.872   1.220  -2.180  0.00  0.00    -0.016 C 
ATOM     10  C   UNL     1      -5.248   0.518  -2.153  0.00  0.00    -0.020 C 
ATOM     11  C   UNL     1      -5.226  -0.239  -0.801  0.00  0.00    -0.076 C 
ATOM     12  C   UNL     1      -3.444  -0.910   0.705  0.00  0.00    +0.052 C 
ATOM     13  C   UNL     1      -2.959   0.438   1.252  0.00  0.00    +0.081 C 
ATOM     14  C   UNL     1      -4.600  -1.436   1.513  0.00  0.00    -0.027 A 
ATOM     15  C   UNL     1      -5.858  -0.950   1.789  0.00  0.00    +0.004 A 
ATOM     16  C   UNL     1      -6.722  -1.681   2.586  0.00  0.00    +0.000 A 
ATOM     17  C   UNL     1      -6.319  -2.898   3.103  0.00  0.00    +0.002 A 
ATOM     18  C   UNL     1      -5.059  -3.388   2.829  0.00  0.00    +0.023 A 
ATOM     19  C   UNL     1      -4.182  -2.659   2.028  0.00  0.00    +0.036 A 
ATOM     20  N   UNL     1      -2.878  -2.937   1.615  0.00  0.00    -0.286 N 
ATOM     21  C   UNL     1      -2.373  -1.961   0.836  0.00  0.00    +0.212 C 
ATOM     22  O   UNL     1      -1.268  -1.934   0.336  0.00  0.00    -0.277 OA
ATOM     23  C   UNL     1      -3.478   2.555   0.013  0.00  0.00    +0.227 C 
ATOM     24  O   UNL     1      -4.688   2.637   0.025  0.00  0.00    -0.275 OA
ATOM     25  N   UNL     1      -2.603   3.579   0.010  0.00  0.00    -0.285 N 
ATOM     26  H   UNL     1      -2.392  -3.739   1.860  0.00  0.00    +0.155 HD
ATOM     27  H   UNL     1      -2.864   4.513   0.009  0.00  0.00    +0.155 HD
ATOM     28  N   UNL     1      -3.812  -0.663  -0.701  0.00  0.00    +0.395 N 
ATOM     29  H   UNL     1      -3.663  -1.515  -1.254  0.00  0.00    -0.079 HD
ENDROOT
BRANCH  13  30
ATOM     30  C   UNL     1      -4.037   1.083   2.085  0.00  0.00    +0.168 C 
ATOM     31  O   UNL     1      -5.100   1.375   1.580  0.00  0.00    -0.292 OA
BRANCH  30  32
ATOM     32  C   UNL     1      -3.799   1.358   3.510  0.00  0.00    +0.036 A 
ATOM     33  C   UNL     1      -2.576   1.017   4.097  0.00  0.00    +0.014 A 
ATOM     34  C   UNL     1      -2.358   1.283   5.431  0.00  0.00    +0.021 A 
ATOM     35  C   UNL     1      -3.352   1.876   6.195  0.00  0.00    +0.042 A 
ATOM     36  C   UNL     1      -4.567   2.212   5.623  0.00  0.00    +0.040 A 
ATOM     37  C   UNL     1      -4.798   1.958   4.287  0.00  0.00    +0.053 A 
ATOM     38 CL   UNL     1      -6.322   2.380   3.571  0.00  0.00    -0.083 Cl
ATOM     39 CL   UNL     1      -3.070   2.200   7.877  0.00  0.00    -0.083 Cl
ENDBRANCH  30  32
ENDBRANCH  13  30
TORSDOF 2
