REMARK  Name = ZINC26268683
REMARK  7 active torsions:
REMARK  status: ('A' for Active; 'I' for Inactive)
REMARK    1  A    between atoms: C_1  and  C_2
REMARK    2  A    between atoms: C_3  and  C_16
REMARK    3  A    between atoms: C_4  and  C_15
REMARK    4  A    between atoms: C_16  and  C_17
REMARK    5  A    between atoms: C_17  and  C_18
REMARK    6  A    between atoms: C_23  and  C_28
REMARK    7  A    between atoms: C_24  and  C_26
REMARK                            x       y       z     vdW  Elec       q    Type
REMARK                         _______ _______ _______ _____ _____    ______ ____
ROOT
ATOM      1  C   UNL     1       0.702   3.647  -1.183  0.00  0.00    +0.066 C 
ATOM      2  C   UNL     1      -0.400   2.814  -1.787  0.00  0.00    +0.045 A 
ATOM      3  C   UNL     1      -0.742   1.585  -1.213  0.00  0.00    -0.005 A 
ATOM      4  C   UNL     1      -1.733   0.844  -1.771  0.00  0.00    +0.047 A 
ATOM      5  N   UNL     1      -2.380   1.320  -2.873  0.00  0.00    -0.217 N 
ATOM      6  C   UNL     1      -2.017   2.525  -3.403  0.00  0.00    +0.164 A 
ATOM      7  N   UNL     1      -1.040   3.244  -2.852  0.00  0.00    -0.232 NA
ATOM      8  C   UNL     1      -2.846   2.750  -4.523  0.00  0.00    +0.046 A 
ATOM      9  C   UNL     1      -2.947   3.793  -5.454  0.00  0.00    +0.014 A 
ATOM     10  C   UNL     1      -3.871   3.723  -6.452  0.00  0.00    +0.001 A 
ATOM     11  C   UNL     1      -4.722   2.624  -6.562  0.00  0.00    +0.002 A 
ATOM     12  C   UNL     1      -4.655   1.594  -5.679  0.00  0.00    +0.030 A 
ATOM     13  C   UNL     1      -3.712   1.629  -4.631  0.00  0.00    +0.095 A 
ATOM     14  N   UNL     1      -3.422   0.789  -3.643  0.00  0.00    -0.165 NA
ATOM     15  C   UNL     1      -2.117  -0.487  -1.177  0.00  0.00    +0.066 C 
ENDROOT
BRANCH   3  16
ATOM     16  C   UNL     1      -0.013   1.086   0.008  0.00  0.00    +0.048 C 
BRANCH  16  17
ATOM     17  C   UNL     1      -0.729   1.579   1.267  0.00  0.00    +0.101 C 
BRANCH  17  18
ATOM     18  C   UNL     1       0.000   1.080   2.488  0.00  0.00    +0.220 C 
ATOM     19  O   UNL     1       0.994   0.397   2.363  0.00  0.00    -0.275 OA
ATOM     20  N   UNL     1      -0.453   1.393   3.718  0.00  0.00    -0.254 N 
ATOM     21  C   UNL     1       0.216   0.934   4.839  0.00  0.00    +0.224 A 
ATOM     22  N   UNL     1       1.333   0.160   4.825  0.00  0.00    -0.201 NA
ATOM     23  C   UNL     1       1.685  -0.075   6.138  0.00  0.00    +0.179 A 
ATOM     24  C   UNL     1       0.736   0.578   6.917  0.00  0.00    +0.179 A 
ATOM     25  N   UNL     1      -0.132   1.175   6.081  0.00  0.00    -0.201 NA
ATOM     26  H   UNL     1      -1.355   2.012   3.831  0.00  0.00    +0.158 HD
BRANCH  24  27
ATOM     27  C   UNL     1       0.692   0.610   8.348  0.00  0.00    +0.122 C 
ATOM     28  N   UNL     1       0.656   0.636   9.483  0.00  0.00    -0.189 NA
ENDBRANCH  24  27
BRANCH  23  29
ATOM     29  C   UNL     1       2.801  -0.841   6.604  0.00  0.00    +0.122 C 
ATOM     30  N   UNL     1       3.687  -1.449   6.975  0.00  0.00    -0.189 NA
ENDBRANCH  23  29
ENDBRANCH  17  18
ENDBRANCH  16  17
ENDBRANCH   3  16
TORSDOF 5
