REMARK  Name = ZINC12657585
REMARK  6 active torsions:
REMARK  status: ('A' for Active; 'I' for Inactive)
REMARK    1  A    between atoms: C_1  and  O_2
REMARK    2  A    between atoms: O_2  and  C_3
REMARK    3  A    between atoms: C_6  and  C_9
REMARK    4  A    between atoms: C_17  and  O_40
REMARK    5  A    between atoms: C_19  and  C_34
REMARK    6  A    between atoms: C_25  and  C_26
REMARK                            x       y       z     vdW  Elec       q    Type
REMARK                         _______ _______ _______ _____ _____    ______ ____
ROOT
ATOM      1  C   UNL     1      -4.385  -0.128   1.670  0.00  0.00    +0.044 C 
ATOM      2  C   UNL     1      -5.449   0.621   0.862  0.00  0.00    +0.057 C 
ATOM      3  C   UNL     1      -6.771  -0.146   0.912  0.00  0.00    +0.009 C 
ATOM      4  C   UNL     1      -7.825   0.605   0.096  0.00  0.00    +0.001 C 
ATOM      5  C   UNL     1      -7.359   0.726  -1.357  0.00  0.00    +0.005 C 
ATOM      6  C   UNL     1      -6.032   1.488  -1.407  0.00  0.00    +0.065 C 
ATOM      7  C   UNL     1      -4.980   0.736  -0.591  0.00  0.00    +0.171 C 
ATOM      8  O   UNL     1      -3.733   1.432  -0.632  0.00  0.00    -0.340 OA
ATOM      9  C   UNL     1      -2.677   0.764   0.064  0.00  0.00    +0.166 C 
ATOM     10  C   UNL     1      -3.051   0.603   1.535  0.00  0.00    +0.071 C 
ATOM     11  C   UNL     1      -3.138   1.984   2.210  0.00  0.00    +0.023 C 
ATOM     12  C   UNL     1      -2.625   1.699   3.638  0.00  0.00    +0.040 C 
ATOM     13  C   UNL     1      -1.715   0.499   3.503  0.00  0.00    -0.004 C 
ATOM     14  C   UNL     1      -0.800   0.103   4.419  0.00  0.00    +0.015 C 
ATOM     15  C   UNL     1      -1.968  -0.144   2.273  0.00  0.00    +0.169 C 
ATOM     16  O   UNL     1      -1.403  -1.141   1.871  0.00  0.00    -0.292 OA
ENDROOT
BRANCH   1  20
ATOM     17  C   UNL     1      -5.535  -0.255   5.784  0.00  0.00    +0.120 A 
ATOM     18  C   UNL     1      -5.871   0.841   5.002  0.00  0.00    +0.046 A 
ATOM     19  C   UNL     1      -5.498   0.880   3.672  0.00  0.00    +0.007 A 
ATOM     20  C   UNL     1      -4.790  -0.172   3.121  0.00  0.00    -0.043 A 
ATOM     21  C   UNL     1      -4.459  -1.268   3.896  0.00  0.00    +0.007 A 
ATOM     22  C   UNL     1      -4.825  -1.309   5.228  0.00  0.00    +0.046 A 
BRANCH  17  24
ATOM     23  C   UNL     1      -5.521  -1.455   7.836  0.00  0.00    +0.277 C 
ATOM     24  O   UNL     1      -5.901  -0.296   7.092  0.00  0.00    -0.495 OA
ENDBRANCH  17  24
ENDBRANCH   1  20
BRANCH  14  25
ATOM     25  C   UNL     1      -0.729   0.776   5.725  0.00  0.00    -0.025 A 
ATOM     26  C   UNL     1       0.489   0.856   6.409  0.00  0.00    +0.008 A 
ATOM     27  C   UNL     1       0.549   1.494   7.630  0.00  0.00    +0.001 A 
ATOM     28  C   UNL     1      -0.594   2.044   8.184  0.00  0.00    +0.000 A 
ATOM     29  C   UNL     1      -1.804   1.964   7.517  0.00  0.00    +0.001 A 
ATOM     30  C   UNL     1      -1.880   1.335   6.292  0.00  0.00    +0.008 A 
ENDBRANCH  14  25
BRANCH   9  31
ATOM     31  C   UNL     1      -1.413   1.577  -0.046  0.00  0.00    -0.018 A 
ATOM     32  C   UNL     1      -1.484   2.950  -0.190  0.00  0.00    +0.006 A 
ATOM     33  C   UNL     1      -0.324   3.696  -0.285  0.00  0.00    +0.000 A 
ATOM     34  C   UNL     1       0.907   3.068  -0.241  0.00  0.00    +0.000 A 
ATOM     35  C   UNL     1       0.978   1.695  -0.103  0.00  0.00    +0.000 A 
ATOM     36  C   UNL     1      -0.182   0.949  -0.008  0.00  0.00    +0.006 A 
ENDBRANCH   9  31
BRANCH   7  37
ATOM     37  O   UNL     1      -4.808  -0.572  -1.140  0.00  0.00    -0.364 OA
ATOM     38  H   UNL     1      -4.511  -0.577  -2.060  0.00  0.00    +0.213 HD
ENDBRANCH   7  37
TORSDOF 5
