REMARK  Name = ZINC19413854
REMARK  5 active torsions:
REMARK  status: ('A' for Active; 'I' for Inactive)
REMARK    1  A    between atoms: C_1  and  C_2
REMARK    2  A    between atoms: C_5  and  C_8
REMARK    3  A    between atoms: C_9  and  C_19
REMARK    4  A    between atoms: C_10  and  C_18
REMARK    5  A    between atoms: C_19  and  C_20
REMARK                            x       y       z     vdW  Elec       q    Type
REMARK                         _______ _______ _______ _____ _____    ______ ____
ROOT
ATOM      1  C   UNL     1      -0.980  -2.958  -1.214  0.00  0.00    +0.051 A 
ATOM      2  C   UNL     1      -1.024  -2.259   0.002  0.00  0.00    -0.009 A 
ATOM      3  C   UNL     1      -0.779  -2.915   1.171  0.00  0.00    -0.036 A 
ATOM      4  C   UNL     1      -0.479  -4.291   1.115  0.00  0.00    +0.002 A 
ATOM      5  C   UNL     1      -0.216  -5.027   2.280  0.00  0.00    +0.010 A 
ATOM      6  C   UNL     1       0.070  -6.355   2.188  0.00  0.00    +0.001 A 
ATOM      7  C   UNL     1       0.104  -6.995   0.951  0.00  0.00    +0.002 A 
ATOM      8  C   UNL     1      -0.145  -6.312  -0.200  0.00  0.00    +0.026 A 
ATOM      9  C   UNL     1      -0.445  -4.939  -0.145  0.00  0.00    +0.047 A 
ATOM     10  N   UNL     1      -0.693  -4.245  -1.259  0.00  0.00    -0.354 N 
ATOM     11  C   UNL     1      -0.826  -2.188   2.490  0.00  0.00    +0.045 C 
ATOM     12  H   UNL     1      -0.655  -4.767  -2.227  0.00  0.00    +0.166 HD
ENDROOT
BRANCH   1  17
ATOM     13  C   UNL     1      -2.049  -0.143  -6.122  0.00  0.00    +0.044 C 
ATOM     14  C   UNL     1      -1.770  -0.879  -4.838  0.00  0.00    -0.050 A 
ATOM     15  C   UNL     1      -0.915  -0.329  -3.900  0.00  0.00    +0.004 A 
ATOM     16  C   UNL     1      -0.655  -0.999  -2.722  0.00  0.00    +0.010 A 
ATOM     17  C   UNL     1      -1.256  -2.233  -2.478  0.00  0.00    -0.001 A 
ATOM     18  C   UNL     1      -2.113  -2.785  -3.429  0.00  0.00    +0.010 A 
ATOM     19  C   UNL     1      -2.369  -2.103  -4.601  0.00  0.00    +0.004 A 
ENDBRANCH   1  17
BRANCH   2  20
ATOM     20  C   UNL     1      -1.348  -0.787   0.016  0.00  0.00    +0.162 C 
BRANCH  20  21
ATOM     21  C   UNL     1      -0.069   0.009   0.054  0.00  0.00    +0.360 C 
ATOM     22  O   UNL     1       0.996  -0.561   0.070  0.00  0.00    -0.246 OA
ATOM     23  O   UNL     1      -0.114   1.350   0.072  0.00  0.00    -0.246 OA
ENDBRANCH  20  21
ENDBRANCH   2  20
TORSDOF 3
