REMARK  Name = ZINC11855322
REMARK  7 active torsions:
REMARK  status: ('A' for Active; 'I' for Inactive)
REMARK    1  A    between atoms: C_1  and  C_2
REMARK    2  A    between atoms: C_2  and  C_3
REMARK    3  A    between atoms: C_3  and  C_5
REMARK    4  A    between atoms: C_3  and  C_11
REMARK    5  A    between atoms: N_13  and  C_14
REMARK    6  A    between atoms: C_16  and  C_33
REMARK    7  A    between atoms: C_25  and  C_27
REMARK                            x       y       z     vdW  Elec       q    Type
REMARK                         _______ _______ _______ _____ _____    ______ ____
ROOT
ATOM      1  C   UNL     1       2.297   6.891   0.017  0.00  0.00    +0.132 A 
ATOM      2  C   UNL     1       2.267   5.534   0.010  0.00  0.00    +0.074 A 
ATOM      3  C   UNL     1       0.915   5.132   0.020  0.00  0.00    +0.102 A 
ATOM      4  N   UNL     1       0.164   6.215   0.028  0.00  0.00    -0.162 NA
ATOM      5  N   UNL     1       1.005   7.334   0.031  0.00  0.00    -0.185 N 
ATOM      6  C   UNL     1       0.600   8.655   0.042  0.00  0.00    +0.234 A 
ATOM      7  N   UNL     1      -0.730   8.943   0.051  0.00  0.00    -0.291 N 
ATOM      8  H   UNL     1      -1.380   8.223   0.049  0.00  0.00    +0.172 HD
ATOM      9  C   UNL     1      -1.146  10.226   0.066  0.00  0.00    +0.253 A 
ATOM     10  O   UNL     1      -2.336  10.493   0.078  0.00  0.00    -0.268 OA
ATOM     11  C   UNL     1      -0.184  11.249   0.063  0.00  0.00    +0.098 A 
ATOM     12  C   UNL     1       1.158  10.900   0.049  0.00  0.00    +0.080 A 
ATOM     13  N   UNL     1       1.507   9.605   0.039  0.00  0.00    -0.212 NA
ENDROOT
BRANCH  12  14
ATOM     14  C   UNL     1       2.201  11.952   0.044  0.00  0.00    +0.001 A 
ATOM     15  C   UNL     1       1.838  13.298   0.049  0.00  0.00    +0.010 A 
ATOM     16  C   UNL     1       2.814  14.273   0.050  0.00  0.00    +0.001 A 
ATOM     17  C   UNL     1       4.151  13.918   0.036  0.00  0.00    +0.000 A 
ATOM     18  C   UNL     1       4.517  12.584   0.025  0.00  0.00    +0.001 A 
ATOM     19  C   UNL     1       3.550  11.600   0.030  0.00  0.00    +0.010 A 
ENDBRANCH  12  14
BRANCH   3  20
ATOM     20  C   UNL     1       0.425   3.737   0.017  0.00  0.00    +0.039 A 
ATOM     21  C   UNL     1      -0.864   3.276   0.027  0.00  0.00    +0.018 A 
ATOM     22  C   UNL     1      -1.080   1.915   0.017  0.00  0.00    +0.008 A 
ATOM     23  C   UNL     1      -0.013   1.076   0.008  0.00  0.00    +0.046 A 
ATOM     24  S   UNL     1       1.360   2.217   0.001  0.00  0.00    -0.095 S 
ENDBRANCH   3  20
BRANCH   1  27
ATOM     25  C   UNL     1       4.660   7.116  -0.004  0.00  0.00    +0.226 C 
ATOM     26  O   UNL     1       4.764   5.908  -0.012  0.00  0.00    -0.275 OA
ATOM     27  N   UNL     1       3.440   7.688   0.011  0.00  0.00    -0.270 N 
ATOM     28  H   UNL     1       3.357   8.654   0.017  0.00  0.00    +0.156 HD
BRANCH  25  29
ATOM     29  C   UNL     1       5.896   7.978  -0.010  0.00  0.00    +0.105 C 
BRANCH  29  30
ATOM     30  C   UNL     1       7.121   7.100  -0.027  0.00  0.00    -0.036 A 
ATOM     31  C   UNL     1       7.346   6.209   1.006  0.00  0.00    +0.004 A 
ATOM     32  C   UNL     1       8.468   5.401   0.988  0.00  0.00    +0.000 A 
ATOM     33  C   UNL     1       9.368   5.490  -0.057  0.00  0.00    +0.000 A 
ATOM     34  C   UNL     1       9.145   6.385  -1.087  0.00  0.00    +0.000 A 
ATOM     35  C   UNL     1       8.022   7.190  -1.071  0.00  0.00    +0.004 A 
ENDBRANCH  29  30
BRANCH  29  37
ATOM     36  C   UNL     1       7.101   9.817   1.177  0.00  0.00    +0.005 C 
ATOM     37  C   UNL     1       5.913   8.854   1.244  0.00  0.00    +0.014 C 
ENDBRANCH  29  37
ENDBRANCH  25  29
ENDBRANCH   1  27
TORSDOF 6
