REMARK  Name = ZINC10612273
REMARK  14 active torsions:
REMARK  status: ('A' for Active; 'I' for Inactive)
REMARK    1  A    between atoms: C_1  and  C_2
REMARK    2  A    between atoms: C_2  and  O_3
REMARK    3  A    between atoms: O_3  and  C_4
REMARK    4  A    between atoms: C_4  and  C_6
REMARK    5  A    between atoms: C_10  and  N_11
REMARK    6  A    between atoms: C_12  and  C_14
REMARK    7  A    between atoms: C_14  and  C_16
REMARK    8  A    between atoms: C_14  and  S_17
REMARK    9  A    between atoms: S_17  and  C_18
REMARK   10  A    between atoms: C_21  and  C_27
REMARK   11  A    between atoms: N_22  and  C_23
REMARK   12  A    between atoms: C_23  and  C_24
REMARK   13  A    between atoms: C_24  and  O_25
REMARK   14  A    between atoms: O_25  and  C_26
REMARK                            x       y       z     vdW  Elec       q    Type
REMARK                         _______ _______ _______ _____ _____    ______ ____
ROOT
ATOM      1  N   UNL     1       5.743  -2.960  -0.598  0.00  0.00    -0.278 N 
ATOM      2  C   UNL     1       4.461  -2.971  -0.182  0.00  0.00    +0.231 C 
ATOM      3  O   UNL     1       3.916  -4.023   0.075  0.00  0.00    -0.274 OA
ATOM      4  H   UNL     1       6.179  -2.119  -0.803  0.00  0.00    +0.155 HD
ENDROOT
BRANCH   1   9
ATOM      5  C   UNL     1       7.749  -4.344  -1.147  0.00  0.00    +0.091 A 
ATOM      6  C   UNL     1       8.244  -5.710  -1.196  0.00  0.00    -0.021 A 
ATOM      7  C   UNL     1       7.352  -6.658  -0.836  0.00  0.00    -0.004 A 
ATOM      8  S   UNL     1       5.880  -5.764  -0.428  0.00  0.00    -0.077 S 
ATOM      9  C   UNL     1       6.438  -4.152  -0.732  0.00  0.00    +0.086 A 
ATOM     10  C   UNL     1       7.574  -8.139  -0.796  0.00  0.00    +0.043 C 
ATOM     11  C   UNL     1       8.854  -8.457  -1.584  0.00  0.00    +0.005 C 
ATOM     12  C   UNL     1       9.962  -7.501  -1.133  0.00  0.00    +0.005 C 
ATOM     13  C   UNL     1       9.658  -6.084  -1.624  0.00  0.00    +0.037 C 
BRANCH   5  14
ATOM     14  C   UNL     1       8.603  -3.213  -1.517  0.00  0.00    +0.342 C 
ATOM     15  O   UNL     1       9.285  -2.665  -0.673  0.00  0.00    -0.245 OA
BRANCH  14  16
ATOM     16  O   UNL     1       8.632  -2.780  -2.794  0.00  0.00    -0.461 OA
BRANCH  16  18
ATOM     17  C   UNL     1       9.401  -1.309  -4.576  0.00  0.00    +0.048 C 
ATOM     18  C   UNL     1       9.501  -1.654  -3.088  0.00  0.00    +0.229 C 
ENDBRANCH  16  18
ENDBRANCH  14  16
ENDBRANCH   5  14
ENDBRANCH   1   9
BRANCH   2  19
ATOM     19  C   UNL     1       3.705  -1.675  -0.037  0.00  0.00    +0.137 C 
ATOM     20  C   UNL     1       4.088  -1.007   1.286  0.00  0.00    +0.029 C 
BRANCH  19  21
ATOM     21  S   UNL     1       1.927  -2.009  -0.051  0.00  0.00    -0.074 S 
BRANCH  21  22
ATOM     22  C   UNL     1       1.305  -0.360  -0.022  0.00  0.00    +0.193 A 
ATOM     23  N   UNL     1       2.021   0.743   0.003  0.00  0.00    -0.122 NA
ATOM     24  N   UNL     1       1.249   1.770   0.019  0.00  0.00    -0.128 NA
ATOM     25  C   UNL     1      -0.007   1.386   0.006  0.00  0.00    +0.165 A 
ATOM     26  N   UNL     1      -0.008   0.010  -0.020  0.00  0.00    -0.300 N 
BRANCH  25  27
ATOM     27  C   UNL     1      -1.194   2.265   0.013  0.00  0.00    +0.022 A 
ATOM     28  C   UNL     1      -2.444   1.790  -0.402  0.00  0.00    +0.031 A 
ATOM     29  C   UNL     1      -3.527   2.643  -0.375  0.00  0.00    +0.111 A 
ATOM     30  N   UNL     1      -3.393   3.894   0.024  0.00  0.00    -0.263 NA
ATOM     31  C   UNL     1      -2.233   4.384   0.417  0.00  0.00    +0.111 A 
ATOM     32  C   UNL     1      -1.099   3.599   0.428  0.00  0.00    +0.031 A 
ENDBRANCH  25  27
BRANCH  26  33
ATOM     33  C   UNL     1      -1.177  -0.874  -0.042  0.00  0.00    +0.154 C 
BRANCH  33  34
ATOM     34  C   UNL     1      -1.503  -1.252  -1.488  0.00  0.00    +0.181 C 
BRANCH  34  35
ATOM     35  O   UNL     1      -2.643  -2.114  -1.509  0.00  0.00    -0.381 OA
ATOM     36  C   UNL     1      -3.034  -2.528  -2.819  0.00  0.00    +0.194 C 
ENDBRANCH  34  35
ENDBRANCH  33  34
ENDBRANCH  26  33
ENDBRANCH  21  22
ENDBRANCH  19  21
ENDBRANCH   2  19
TORSDOF 11
