REMARK  Name = ZINC22000893
REMARK  13 active torsions:
REMARK  status: ('A' for Active; 'I' for Inactive)
REMARK    1  A    between atoms: C_1  and  C_2
REMARK    2  A    between atoms: C_7  and  C_9
REMARK    3  A    between atoms: C_7  and  C_10
REMARK    4  A    between atoms: N_13  and  C_17
REMARK    5  A    between atoms: C_17  and  C_18
REMARK    6  A    between atoms: C_18  and  O_20
REMARK    7  A    between atoms: O_20  and  C_21
REMARK    8  A    between atoms: C_21  and  C_22
REMARK    9  A    between atoms: N_24  and  C_25
REMARK   10  A    between atoms: C_30  and  C_31
REMARK   11  A    between atoms: C_31  and  C_32
REMARK   12  A    between atoms: C_31  and  C_33
REMARK   13  A    between atoms: C_31  and  C_34
REMARK                            x       y       z     vdW  Elec       q    Type
REMARK                         _______ _______ _______ _____ _____    ______ ____
ROOT
ATOM      1  C   UNL     1      -1.724  -3.439  -4.972  0.00  0.00    +0.326 C 
ATOM      2  O   UNL     1      -1.395  -2.306  -5.231  0.00  0.00    -0.249 OA
ENDROOT
BRANCH   1   3
ATOM      3  C   UNL     1      -0.897  -4.266  -4.022  0.00  0.00    +0.238 C 
BRANCH   3  15
ATOM      4  C   UNL     1       1.118   1.341  -0.862  0.00  0.00    +0.007 C 
ATOM      5  C   UNL     1       1.115  -0.191  -0.884  0.00  0.00    -0.011 C 
ATOM      6  C   UNL     1       1.679  -0.677  -2.220  0.00  0.00    +0.038 C 
ATOM      7  C   UNL     1       1.637  -2.199  -2.273  0.00  0.00    +0.113 C 
ATOM      8  C   UNL     1       2.324  -2.849  -1.089  0.00  0.00    +0.041 C 
ATOM      9  C   UNL     1       2.012  -2.239   0.267  0.00  0.00    -0.032 C 
ATOM     10  C   UNL     1       2.007  -0.715   0.239  0.00  0.00    +0.009 C 
ATOM     11  C   UNL     1       0.675  -2.760   0.802  0.00  0.00    +0.011 C 
ATOM     12  C   UNL     1       3.111  -2.687   1.255  0.00  0.00    +0.011 C 
ATOM     13  C   UNL     1       0.222  -2.691  -2.453  0.00  0.00    +0.247 C 
ATOM     14  O   UNL     1      -0.753  -2.435  -1.779  0.00  0.00    -0.273 OA
ATOM     15  N   UNL     1       0.243  -3.475  -3.553  0.00  0.00    -0.213 N 
ATOM     16  C   UNL     1       1.435  -3.437  -4.158  0.00  0.00    +0.310 C 
ATOM     17  O   UNL     1       1.697  -4.048  -5.176  0.00  0.00    -0.252 OA
ATOM     18  N   UNL     1       2.311  -2.648  -3.511  0.00  0.00    -0.285 N 
ATOM     19  H   UNL     1       3.208  -2.412  -3.788  0.00  0.00    +0.151 HD
ENDBRANCH   3  15
ENDBRANCH   1   3
BRANCH   1  20
ATOM     20  O   UNL     1      -2.827  -3.962  -5.531  0.00  0.00    -0.454 OA
BRANCH  20  21
ATOM     21  C   UNL     1      -3.563  -3.122  -6.422  0.00  0.00    +0.328 C 
BRANCH  21  22
ATOM     22  C   UNL     1      -4.759  -3.874  -6.948  0.00  0.00    +0.255 C 
ATOM     23  O   UNL     1      -4.961  -5.016  -6.594  0.00  0.00    -0.272 OA
ATOM     24  N   UNL     1      -5.604  -3.277  -7.811  0.00  0.00    -0.282 N 
ATOM     25  H   UNL     1      -5.494  -2.337  -8.027  0.00  0.00    +0.155 HD
BRANCH  24  26
ATOM     26  C   UNL     1      -6.641  -4.012  -8.397  0.00  0.00    +0.037 A 
ATOM     27  C   UNL     1      -6.870  -5.324  -8.006  0.00  0.00    +0.023 A 
ATOM     28  C   UNL     1      -7.894  -6.047  -8.586  0.00  0.00    +0.002 A 
ATOM     29  C   UNL     1      -8.691  -5.465  -9.555  0.00  0.00    +0.000 A 
ATOM     30  C   UNL     1      -8.465  -4.158  -9.947  0.00  0.00    +0.006 A 
ATOM     31  C   UNL     1      -7.446  -3.428  -9.366  0.00  0.00    -0.021 A 
BRANCH  31  32
ATOM     32  C   UNL     1      -7.205  -2.002  -9.788  0.00  0.00    -0.011 C 
ATOM     33  C   UNL     1      -8.202  -1.619 -10.884  0.00  0.00    +0.015 C 
ATOM     34  C   UNL     1      -7.390  -1.075  -8.584  0.00  0.00    +0.015 C 
ATOM     35  C   UNL     1      -5.779  -1.863 -10.325  0.00  0.00    +0.015 C 
ENDBRANCH  31  32
ENDBRANCH  24  26
ENDBRANCH  21  22
ENDBRANCH  20  21
ENDBRANCH   1  20
TORSDOF 7
