REMARK  Name = ZINC44865383
REMARK  6 active torsions:
REMARK  status: ('A' for Active; 'I' for Inactive)
REMARK    1  A    between atoms: C_1  and  C_2
REMARK    2  A    between atoms: C_2  and  C_3
REMARK    3  A    between atoms: C_3  and  C_4
REMARK    4  A    between atoms: C_4  and  C_6
REMARK    5  A    between atoms: C_4  and  C_10
REMARK    6  A    between atoms: N_7  and  O_8
REMARK                            x       y       z     vdW  Elec       q    Type
REMARK                         _______ _______ _______ _____ _____    ______ ____
ROOT
ATOM      1  C   UNL     1       0.755  -2.040   1.239  0.00  0.00    +0.141 C 
ENDROOT
BRANCH   1   2
ATOM      2  C   UNL     1       1.596  -2.538   2.386  0.00  0.00    +0.226 C 
ATOM      3  O   UNL     1       2.201  -1.750   3.082  0.00  0.00    -0.275 OA
ATOM      4  N   UNL     1       1.675  -3.860   2.640  0.00  0.00    -0.301 N 
ATOM      5  C   UNL     1       1.048  -4.829   1.730  0.00  0.00    +0.108 C 
ATOM      6  C   UNL     1       1.801  -4.827   0.406  0.00  0.00    +0.019 C 
ATOM      7  C   UNL     1       3.162  -5.518   0.598  0.00  0.00    +0.002 C 
ATOM      8  C   UNL     1       4.126  -4.556   1.284  0.00  0.00    +0.000 C 
ATOM      9  C   UNL     1       4.493  -5.064   2.690  0.00  0.00    +0.002 C 
ATOM     10  C   UNL     1       3.234  -5.550   3.408  0.00  0.00    +0.019 C 
ATOM     11  C   UNL     1       2.386  -4.341   3.812  0.00  0.00    +0.108 C 
ENDBRANCH   1   2
BRANCH   1  12
ATOM     12  C   UNL     1      -0.444  -1.304   1.777  0.00  0.00    +0.144 C 
ATOM     13  N   UNL     1      -0.398  -0.764   2.950  0.00  0.00    -0.076 NA
ATOM     14  N   UNL     1      -1.589  -1.206   1.019  0.00  0.00    -0.343 N 
ATOM     15  H   UNL     1      -1.624  -1.610   0.138  0.00  0.00    +0.144 HD
ATOM     16  H   UNL     1      -2.362  -0.731   1.365  0.00  0.00    +0.144 HD
BRANCH  13  17
ATOM     17  O   UNL     1      -1.525  -0.072   3.456  0.00  0.00    -0.408 OA
ATOM     18  H   UNL     1      -1.396   0.296   4.340  0.00  0.00    +0.328 HD
ENDBRANCH  13  17
ENDBRANCH   1  12
BRANCH   1  19
ATOM     19  C   UNL     1       1.587  -1.094   0.371  0.00  0.00    +0.020 C 
BRANCH  19  21
ATOM     20  C   UNL     1       1.608   0.260  -1.729  0.00  0.00    +0.004 C 
ATOM     21  C   UNL     1       0.776  -0.686  -0.861  0.00  0.00    -0.002 C 
ENDBRANCH  19  21
ENDBRANCH   1  19
TORSDOF 5
