REMARK  Name = ZINC00743520
REMARK  9 active torsions:
REMARK  status: ('A' for Active; 'I' for Inactive)
REMARK    1  A    between atoms: C_1  and  C_2
REMARK    2  A    between atoms: C_5  and  C_8
REMARK    3  A    between atoms: C_15  and  C_17
REMARK    4  A    between atoms: C_18  and  C_20
REMARK    5  A    between atoms: C_20  and  C_22
REMARK    6  A    between atoms: C_20  and  N_25
REMARK    7  A    between atoms: C_22  and  C_23
REMARK    8  A    between atoms: C_22  and  C_24
REMARK    9  A    between atoms: N_28  and  C_29
REMARK                            x       y       z     vdW  Elec       q    Type
REMARK                         _______ _______ _______ _____ _____    ______ ____
ROOT
ATOM      1  C   UNL     1      -4.820  -9.352  -1.965  0.00  0.00    +0.247 C 
ATOM      2  O   UNL     1      -4.512 -10.347  -2.592  0.00  0.00    -0.270 OA
ATOM      3  N   UNL     1      -3.873  -8.642  -1.321  0.00  0.00    -0.292 N 
ATOM      4  C   UNL     1      -4.244  -7.512  -0.456  0.00  0.00    +0.127 C 
ATOM      5  C   UNL     1      -3.648  -7.745   0.938  0.00  0.00    +0.127 C 
ATOM      6  N   UNL     1      -2.226  -8.086   0.789  0.00  0.00    -0.297 N 
ATOM      7  C   UNL     1      -1.855  -9.212  -0.079  0.00  0.00    +0.130 C 
ATOM      8  C   UNL     1      -2.451  -8.983  -1.469  0.00  0.00    +0.091 C 
ATOM      9  C   UNL     1      -2.313 -10.254  -2.309  0.00  0.00    +0.029 C 
ATOM     10  C   UNL     1      -1.280  -7.376   1.434  0.00  0.00    +0.236 C 
ATOM     11  O   UNL     1      -0.106  -7.601   1.226  0.00  0.00    -0.274 OA
ENDROOT
BRANCH   1  16
ATOM     12  C   UNL     1     -10.320  -7.674  -1.750  0.00  0.00    +0.044 C 
ATOM     13  C   UNL     1      -8.880  -8.114  -1.807  0.00  0.00    -0.050 A 
ATOM     14  C   UNL     1      -8.574  -9.456  -1.939  0.00  0.00    +0.004 A 
ATOM     15  C   UNL     1      -7.258  -9.865  -1.992  0.00  0.00    +0.013 A 
ATOM     16  C   UNL     1      -6.233  -8.921  -1.910  0.00  0.00    +0.037 A 
ATOM     17  C   UNL     1      -6.548  -7.568  -1.771  0.00  0.00    +0.013 A 
ATOM     18  C   UNL     1      -7.869  -7.172  -1.726  0.00  0.00    +0.004 A 
ENDBRANCH   1  16
BRANCH  10  19
ATOM     19  C   UNL     1      -1.679  -6.302   2.413  0.00  0.00    +0.163 C 
BRANCH  19  20
ATOM     20  N   UNL     1      -0.637  -5.273   2.461  0.00  0.00    -0.288 N 
ATOM     21  C   UNL     1      -0.948  -4.016   2.837  0.00  0.00    +0.305 C 
ATOM     22  O   UNL     1      -2.093  -3.737   3.136  0.00  0.00    -0.252 OA
ATOM     23  N   UNL     1       0.010  -3.070   2.881  0.00  0.00    -0.268 N 
ATOM     24  H   UNL     1       0.276  -5.496   2.222  0.00  0.00    +0.151 HD
ATOM     25  H   UNL     1       0.909  -3.276   2.582  0.00  0.00    +0.156 HD
BRANCH  23  26
ATOM     26  C   UNL     1      -0.293  -1.788   3.358  0.00  0.00    +0.053 A 
ATOM     27  C   UNL     1      -1.545  -1.237   3.122  0.00  0.00    +0.026 A 
ATOM     28  C   UNL     1      -1.842   0.027   3.593  0.00  0.00    +0.022 A 
ATOM     29  C   UNL     1      -0.892   0.745   4.300  0.00  0.00    +0.042 A 
ATOM     30  C   UNL     1       0.357   0.198   4.536  0.00  0.00    +0.041 A 
ATOM     31  C   UNL     1       0.659  -1.067   4.067  0.00  0.00    +0.064 A 
ATOM     32 CL   UNL     1       2.226  -1.752   4.363  0.00  0.00    -0.082 Cl
ATOM     33 CL   UNL     1      -1.269   2.333   4.890  0.00  0.00    -0.083 Cl
ENDBRANCH  23  26
ENDBRANCH  19  20
BRANCH  19  34
ATOM     34  C   UNL     1      -1.852  -6.918   3.803  0.00  0.00    +0.012 C 
ATOM     35  C   UNL     1      -3.026  -7.899   3.783  0.00  0.00    +0.009 C 
ATOM     36  C   UNL     1      -0.573  -7.660   4.195  0.00  0.00    +0.009 C 
ENDBRANCH  19  34
ENDBRANCH  10  19
TORSDOF 5
