REMARK  Name = ZINC09338705
REMARK  14 active torsions:
REMARK  status: ('A' for Active; 'I' for Inactive)
REMARK    1  A    between atoms: C_1  and  C_2
REMARK    2  A    between atoms: C_3  and  C_34
REMARK    3  A    between atoms: C_4  and  C_33
REMARK    4  A    between atoms: C_7  and  C_8
REMARK    5  A    between atoms: C_8  and  C_10
REMARK    6  A    between atoms: C_10  and  C_12
REMARK    7  A    between atoms: C_10  and  S_13
REMARK    8  A    between atoms: S_13  and  C_14
REMARK    9  A    between atoms: C_17  and  C_25
REMARK   10  A    between atoms: N_18  and  C_19
REMARK   11  A    between atoms: C_25  and  C_27
REMARK   12  A    between atoms: C_25  and  N_68
REMARK   13  A    between atoms: C_34  and  O_36
REMARK   14  A    between atoms: O_36  and  C_37
REMARK                            x       y       z     vdW  Elec       q    Type
REMARK                         _______ _______ _______ _____ _____    ______ ____
ROOT
ATOM      1  C   UNL     1       2.330   0.877   1.406  0.00  0.00    +0.197 A 
ATOM      2  N   UNL     1       1.679   0.047   2.188  0.00  0.00    -0.122 NA
ATOM      3  N   UNL     1       2.456  -0.377   3.120  0.00  0.00    -0.135 NA
ATOM      4  C   UNL     1       3.640   0.150   2.992  0.00  0.00    +0.125 A 
ATOM      5  N   UNL     1       3.606   0.965   1.891  0.00  0.00    -0.275 N 
ENDROOT
BRANCH   5   6
ATOM      6  C   UNL     1       4.659   1.732   1.372  0.00  0.00    +0.050 A 
ATOM      7  C   UNL     1       5.787   1.108   0.857  0.00  0.00    +0.026 A 
ATOM      8  C   UNL     1       6.819   1.866   0.340  0.00  0.00    +0.002 A 
ATOM      9  C   UNL     1       6.736   3.246   0.348  0.00  0.00    +0.000 A 
ATOM     10  C   UNL     1       5.617   3.871   0.865  0.00  0.00    +0.002 A 
ATOM     11  C   UNL     1       4.579   3.118   1.377  0.00  0.00    +0.026 A 
ENDBRANCH   5   6
BRANCH   4  12
ATOM     12  C   UNL     1       4.829  -0.095   3.885  0.00  0.00    -0.002 C 
ATOM     13  C   UNL     1       5.414  -1.477   3.587  0.00  0.00    -0.005 C 
BRANCH  12  19
ATOM     14  C   UNL     1       3.748   1.243   5.588  0.00  0.00    -0.078 C 
ATOM     15  C   UNL     1       3.193   1.213   7.014  0.00  0.00    -0.019 C 
ATOM     16  C   UNL     1       4.340   0.968   7.998  0.00  0.00    -0.004 C 
ATOM     17  C   UNL     1       5.040  -0.346   7.636  0.00  0.00    -0.019 C 
ATOM     18  C   UNL     1       5.541  -0.271   6.192  0.00  0.00    -0.078 C 
ATOM     19  N   UNL     1       4.386  -0.058   5.294  0.00  0.00    +0.386 N 
ATOM     20  H   UNL     1       3.701  -0.807   5.449  0.00  0.00    -0.081 HD
ENDBRANCH  12  19
ENDBRANCH   4  12
BRANCH   1  21
ATOM     21  S   UNL     1       1.685   1.712  -0.005  0.00  0.00    -0.074 S 
BRANCH  21  22
ATOM     22  C   UNL     1      -0.013   1.086   0.008  0.00  0.00    +0.124 C 
ATOM     23  C   UNL     1      -0.729   1.579   1.267  0.00  0.00    +0.028 C 
BRANCH  22  24
ATOM     24  C   UNL     1      -0.742   1.585  -1.213  0.00  0.00    +0.192 C 
ATOM     25  O   UNL     1      -0.381   2.607  -1.760  0.00  0.00    -0.289 OA
BRANCH  24  32
ATOM     26  C   UNL     1      -2.401   2.409  -3.709  0.00  0.00    +0.047 C 
ATOM     27  C   UNL     1      -2.599   1.204  -2.825  0.00  0.00    -0.008 A 
ATOM     28  C   UNL     1      -3.589   0.209  -2.969  0.00  0.00    +0.083 A 
ATOM     29  C   UNL     1      -3.403  -0.704  -1.945  0.00  0.00    +0.028 A 
ATOM     30  N   UNL     1      -2.356  -0.312  -1.205  0.00  0.00    -0.355 N 
ATOM     31  H   UNL     1      -2.011  -0.778  -0.427  0.00  0.00    +0.166 HD
ATOM     32  C   UNL     1      -1.847   0.862  -1.722  0.00  0.00    +0.087 A 
ATOM     33  C   UNL     1      -4.235  -1.938  -1.706  0.00  0.00    +0.064 C 
BRANCH  28  34
ATOM     34  C   UNL     1      -4.627   0.152  -4.013  0.00  0.00    +0.341 C 
ATOM     35  O   UNL     1      -4.407  -0.428  -5.057  0.00  0.00    -0.245 OA
BRANCH  34  36
ATOM     36  O   UNL     1      -5.821   0.743  -3.809  0.00  0.00    -0.464 OA
ATOM     37  C   UNL     1      -6.795   0.647  -4.881  0.00  0.00    +0.280 C 
ENDBRANCH  34  36
ENDBRANCH  28  34
ENDBRANCH  24  32
ENDBRANCH  22  24
ENDBRANCH  21  22
ENDBRANCH   1  21
TORSDOF 9
