REMARK  Name = ZINC20358091
REMARK  9 active torsions:
REMARK  status: ('A' for Active; 'I' for Inactive)
REMARK    1  A    between atoms: C_1  and  C_2
REMARK    2  A    between atoms: C_2  and  C_3
REMARK    3  A    between atoms: C_3  and  C_4
REMARK    4  A    between atoms: C_4  and  C_5
REMARK    5  A    between atoms: C_5  and  N_6
REMARK    6  A    between atoms: C_25  and  C_27
REMARK    7  A    between atoms: C_25  and  C_28
REMARK    8  A    between atoms: C_30  and  S_32
REMARK    9  A    between atoms: S_32  and  C_33
REMARK                            x       y       z     vdW  Elec       q    Type
REMARK                         _______ _______ _______ _____ _____    ______ ____
ROOT
ATOM      1  N   UNL     1       3.927   5.993   0.165  0.00  0.00    -0.328 N 
ATOM      2  C   UNL     1       4.231   4.643   0.080  0.00  0.00    +0.138 A 
ATOM      3  C   UNL     1       3.224   3.688   0.069  0.00  0.00    +0.080 A 
ATOM      4  C   UNL     1       3.524   2.324  -0.015  0.00  0.00    +0.094 A 
ATOM      5  C   UNL     1       2.368   1.408  -0.017  0.00  0.00    +0.038 A 
ATOM      6  C   UNL     1       2.388  -0.006  -0.089  0.00  0.00    -0.024 A 
ATOM      7  C   UNL     1       1.216  -0.695  -0.076  0.00  0.00    +0.022 A 
ATOM      8  C   UNL     1       0.002  -0.004   0.002  0.00  0.00    +0.128 A 
ATOM      9  N   UNL     1      -0.015   1.318   0.068  0.00  0.00    -0.224 NA
ATOM     10  C   UNL     1       1.103   2.015   0.063  0.00  0.00    +0.113 A 
ATOM     11  S   UNL     1       1.454   3.754   0.142  0.00  0.00    -0.064 S 
ATOM     12  N   UNL     1      -1.193  -0.710   0.009  0.00  0.00    -0.310 N 
ATOM     13  C   UNL     1      -2.021  -0.356  -1.153  0.00  0.00    +0.134 C 
ATOM     14  C   UNL     1      -3.300  -1.198  -1.138  0.00  0.00    +0.178 C 
ATOM     15  O   UNL     1      -3.986  -0.990   0.099  0.00  0.00    -0.377 OA
ATOM     16  C   UNL     1      -3.210  -1.325   1.252  0.00  0.00    +0.178 C 
ATOM     17  C   UNL     1      -1.930  -0.484   1.261  0.00  0.00    +0.134 C 
ATOM     18  C   UNL     1       1.188  -2.201  -0.135  0.00  0.00    +0.199 C 
ATOM     19  O   UNL     1       2.449  -2.702  -0.579  0.00  0.00    -0.369 OA
ATOM     20  C   UNL     1       3.557  -2.181   0.164  0.00  0.00    +0.068 C 
ATOM     21  C   UNL     1       3.720  -0.700  -0.186  0.00  0.00    +0.070 C 
ATOM     22  C   UNL     1       4.831  -2.942  -0.208  0.00  0.00    +0.041 C 
ATOM     23  C   UNL     1       3.287  -2.329   1.663  0.00  0.00    +0.041 C 
ATOM     24  N   UNL     1       4.837   2.006  -0.087  0.00  0.00    -0.221 NA
ATOM     25  C   UNL     1       5.768   2.936  -0.075  0.00  0.00    +0.190 A 
ATOM     26  N   UNL     1       5.496   4.232   0.006  0.00  0.00    -0.206 NA
ATOM     27  H   UNL     1       2.878   6.319   0.225  0.00  0.00    +0.147 HD
ENDROOT
BRANCH  25  28
ATOM     28  S   UNL     1       7.455   2.437  -0.171  0.00  0.00    -0.089 S 
ATOM     29  C   UNL     1       8.265   4.054  -0.116  0.00  0.00    +0.093 C 
ENDBRANCH  25  28
BRANCH   1  30
ATOM     30  C   UNL     1       5.003   6.987   0.175  0.00  0.00    +0.103 C 
BRANCH  30  31
ATOM     31  C   UNL     1       4.401   8.390   0.275  0.00  0.00    +0.019 C 
BRANCH  31  32
ATOM     32  C   UNL     1       5.526   9.428   0.285  0.00  0.00    +0.001 C 
BRANCH  32  34
ATOM     33  C   UNL     1       6.048  11.869   0.395  0.00  0.00    +0.004 C 
ATOM     34  C   UNL     1       4.923  10.831   0.385  0.00  0.00    -0.003 C 
ENDBRANCH  32  34
ENDBRANCH  31  32
ENDBRANCH  30  31
ENDBRANCH   1  30
TORSDOF 5
