REMARK  Name = ZINC36216281
REMARK  8 active torsions:
REMARK  status: ('A' for Active; 'I' for Inactive)
REMARK    1  A    between atoms: C_4  and  C_7
REMARK    2  A    between atoms: C_7  and  N_8
REMARK    3  A    between atoms: C_9  and  C_31
REMARK    4  A    between atoms: C_11  and  C_16
REMARK    5  A    between atoms: C_19  and  N_22
REMARK    6  A    between atoms: C_23  and  C_25
REMARK    7  A    between atoms: N_33  and  C_34
REMARK    8  A    between atoms: C_34  and  C_35
REMARK                            x       y       z     vdW  Elec       q    Type
REMARK                         _______ _______ _______ _____ _____    ______ ____
ROOT
ATOM      1  N   UNL     1       4.295  -0.781   1.243  0.00  0.00    -0.248 N 
ATOM      2  C   UNL     1       5.183   0.005   2.122  0.00  0.00    +0.210 C 
ATOM      3  C   UNL     1       5.414  -0.965   3.305  0.00  0.00    +0.238 C 
ATOM      4  O   UNL     1       4.249  -1.809   3.233  0.00  0.00    -0.440 OA
ATOM      5  C   UNL     1       3.814  -1.812   1.962  0.00  0.00    +0.405 C 
ATOM      6  O   UNL     1       3.067  -2.657   1.509  0.00  0.00    -0.226 OA
ENDROOT
BRANCH   3   7
ATOM      7  C   UNL     1       5.458  -0.218   4.613  0.00  0.00    -0.005 A 
ATOM      8  C   UNL     1       4.283   0.072   5.282  0.00  0.00    +0.009 A 
ATOM      9  C   UNL     1       4.320   0.757   6.481  0.00  0.00    +0.024 A 
ATOM     10  C   UNL     1       5.539   1.154   7.015  0.00  0.00    +0.034 A 
ATOM     11  C   UNL     1       6.718   0.861   6.341  0.00  0.00    +0.024 A 
ATOM     12  C   UNL     1       6.674   0.172   5.145  0.00  0.00    +0.009 A 
BRANCH  10  13
ATOM     13  N   UNL     1       5.580   1.848   8.228  0.00  0.00    -0.282 N 
ATOM     14  C   UNL     1       4.669   1.584   9.187  0.00  0.00    +0.248 C 
ATOM     15  O   UNL     1       3.873   0.678   9.035  0.00  0.00    -0.270 OA
ATOM     16  H   UNL     1       6.264   2.519   8.381  0.00  0.00    +0.155 HD
BRANCH  14  17
ATOM     17  C   UNL     1       4.639   2.396  10.421  0.00  0.00    +0.037 A 
ATOM     18  C   UNL     1       5.548   3.441  10.595  0.00  0.00    +0.013 A 
ATOM     19  C   UNL     1       5.514   4.196  11.750  0.00  0.00    +0.001 A 
ATOM     20  C   UNL     1       4.582   3.918  12.734  0.00  0.00    +0.000 A 
ATOM     21  C   UNL     1       3.678   2.885  12.567  0.00  0.00    +0.001 A 
ATOM     22  C   UNL     1       3.697   2.126  11.415  0.00  0.00    +0.013 A 
ENDBRANCH  14  17
ENDBRANCH  10  13
ENDBRANCH   3   7
BRANCH   2  23
ATOM     23  C   UNL     1       4.500   1.267   2.583  0.00  0.00    +0.238 C 
ATOM     24  O   UNL     1       3.293   1.363   2.516  0.00  0.00    -0.274 OA
ATOM     25  N   UNL     1       5.232   2.289   3.070  0.00  0.00    -0.311 N 
ATOM     26  H   UNL     1       6.197   2.212   3.124  0.00  0.00    +0.149 HD
BRANCH  25  27
ATOM     27  C   UNL     1       4.568   3.516   3.518  0.00  0.00    +0.135 C 
BRANCH  27  28
ATOM     28  C   UNL     1       5.618   4.509   4.021  0.00  0.00    +0.135 C 
ATOM     29  C   UNL     1       4.921   5.756   4.607  0.00  0.00    +0.035 C 
ATOM     30  C   UNL     1       5.843   6.908   4.120  0.00  0.00    +0.031 C 
ATOM     31  C   UNL     1       6.294   6.361   2.742  0.00  0.00    +0.160 C 
ATOM     32  O   UNL     1       6.439   4.942   2.930  0.00  0.00    -0.375 OA
ENDBRANCH  27  28
ENDBRANCH  25  27
ENDBRANCH   2  23
BRANCH   1  33
ATOM     33  C   UNL     1       3.989  -0.488  -0.159  0.00  0.00    +0.147 C 
BRANCH  33  37
ATOM     34  C   UNL     1       0.567   2.060  -0.369  0.00  0.00    +0.000 A 
ATOM     35  C   UNL     1       1.833   2.608  -0.289  0.00  0.00    +0.000 A 
ATOM     36  C   UNL     1       2.941   1.784  -0.221  0.00  0.00    +0.005 A 
ATOM     37  C   UNL     1       2.782   0.411  -0.233  0.00  0.00    -0.030 A 
ATOM     38  C   UNL     1       1.515  -0.138  -0.311  0.00  0.00    +0.005 A 
ATOM     39  C   UNL     1       0.408   0.687  -0.381  0.00  0.00    +0.000 A 
ENDBRANCH  33  37
ENDBRANCH   1  33
TORSDOF 8
