REMARK  Name = ZINC00861036
REMARK  10 active torsions:
REMARK  status: ('A' for Active; 'I' for Inactive)
REMARK    1  A    between atoms: C_1  and  C_2
REMARK    2  A    between atoms: C_3  and  C_20
REMARK    3  A    between atoms: C_4  and  C_10
REMARK    4  A    between atoms: C_13  and  O_18
REMARK    5  A    between atoms: C_14  and  O_16
REMARK    6  A    between atoms: O_16  and  C_17
REMARK    7  A    between atoms: O_18  and  C_19
REMARK    8  A    between atoms: C_20  and  O_22
REMARK    9  A    between atoms: O_22  and  C_23
REMARK   10  A    between atoms: C_23  and  C_24
REMARK                            x       y       z     vdW  Elec       q    Type
REMARK                         _______ _______ _______ _____ _____    ______ ____
ROOT
ATOM      1  C   UNL     1       3.086  -4.699   3.481  0.00  0.00    +0.061 C 
ATOM      2  C   UNL     1       2.927  -4.430   2.007  0.00  0.00    +0.021 C 
ATOM      3  C   UNL     1       2.783  -3.158   1.576  0.00  0.00    +0.078 C 
ATOM      4  C   UNL     1       2.625  -2.932   0.086  0.00  0.00    +0.144 C 
ATOM      5  N   UNL     1       2.641  -4.127  -0.775  0.00  0.00    -0.288 N 
ATOM      6  C   UNL     1       2.794  -5.333  -0.196  0.00  0.00    +0.304 C 
ATOM      7  O   UNL     1       2.808  -6.325  -0.898  0.00  0.00    -0.252 OA
ATOM      8  N   UNL     1       2.929  -5.475   1.129  0.00  0.00    -0.273 N 
ATOM      9  H   UNL     1       2.544  -4.047  -1.736  0.00  0.00    +0.151 HD
ATOM     10  H   UNL     1       3.035  -6.372   1.485  0.00  0.00    +0.156 HD
ENDROOT
BRANCH   4  11
ATOM     11  C   UNL     1       1.319  -2.214  -0.139  0.00  0.00    -0.019 A 
ATOM     12  C   UNL     1       1.318  -0.869  -0.457  0.00  0.00    +0.009 A 
ATOM     13  C   UNL     1       0.122  -0.206  -0.665  0.00  0.00    +0.050 A 
ATOM     14  C   UNL     1      -1.077  -0.892  -0.561  0.00  0.00    +0.162 A 
ATOM     15  C   UNL     1      -1.076  -2.245  -0.235  0.00  0.00    +0.162 A 
ATOM     16  C   UNL     1       0.126  -2.903  -0.028  0.00  0.00    +0.055 A 
BRANCH  15  17
ATOM     17  O   UNL     1      -2.251  -2.921  -0.126  0.00  0.00    -0.491 OA
ATOM     18  C   UNL     1      -2.170  -4.332   0.085  0.00  0.00    +0.277 C 
ENDBRANCH  15  17
BRANCH  14  19
ATOM     19  O   UNL     1      -2.254  -0.243  -0.771  0.00  0.00    -0.491 OA
ATOM     20  C   UNL     1      -2.179   1.145  -1.101  0.00  0.00    +0.277 C 
ENDBRANCH  14  19
ENDBRANCH   4  11
BRANCH   3  21
ATOM     21  C   UNL     1       2.781  -2.074   2.485  0.00  0.00    +0.339 C 
ATOM     22  O   UNL     1       3.784  -1.400   2.631  0.00  0.00    -0.245 OA
BRANCH  21  23
ATOM     23  O   UNL     1       1.666  -1.786   3.189  0.00  0.00    -0.457 OA
BRANCH  23  24
ATOM     24  C   UNL     1       1.698  -0.612   4.003  0.00  0.00    +0.287 C 
BRANCH  24  25
ATOM     25  C   UNL     1       0.403  -0.517   4.812  0.00  0.00    +0.224 C 
ATOM     26 CL   UNL     1       0.311  -1.901   5.964  0.00  0.00    -0.080 Cl
ATOM     27 CL   UNL     1       0.382   1.033   5.732  0.00  0.00    -0.080 Cl
ATOM     28 CL   UNL     1      -1.010  -0.571   3.693  0.00  0.00    -0.080 Cl
ENDBRANCH  24  25
ENDBRANCH  23  24
ENDBRANCH  21  23
ENDBRANCH   3  21
TORSDOF 7
