REMARK  Name = ZINC01254801
REMARK  2 active torsions:
REMARK  status: ('A' for Active; 'I' for Inactive)
REMARK    1  A    between atoms: C_1  and  C_2
REMARK    2  A    between atoms: N_12  and  C_14
REMARK                            x       y       z     vdW  Elec       q    Type
REMARK                         _______ _______ _______ _____ _____    ______ ____
ROOT
ATOM      1  C   UNL     1       0.594   0.868  -0.516  0.00  0.00    +0.011 C 
ATOM      2  C   UNL     1       0.378  -0.574  -0.051  0.00  0.00    +0.025 C 
ATOM      3  C   UNL     1       1.223  -1.518  -0.910  0.00  0.00    +0.007 C 
ATOM      4  C   UNL     1       1.020  -2.958  -0.433  0.00  0.00    +0.000 C 
ATOM      5  C   UNL     1       1.459  -3.079   1.028  0.00  0.00    +0.003 C 
ATOM      6  C   UNL     1       0.615  -2.140   1.893  0.00  0.00    +0.043 C 
ATOM      7  C   UNL     1       0.795  -0.704   1.411  0.00  0.00    +0.103 C 
ATOM      8  N   UNL     1       0.020   0.219   2.248  0.00  0.00    -0.306 N 
ATOM      9  C   UNL     1       0.905   1.060   2.818  0.00  0.00    +0.153 C 
ATOM     10  S   UNL     1       0.477   2.325   3.889  0.00  0.00    -0.017 S 
ATOM     11  N   UNL     1       2.162   0.784   2.443  0.00  0.00    -0.214 N 
ATOM     12  N   UNL     1       2.195  -0.278   1.583  0.00  0.00    -0.211 NA
ATOM     13  H   UNL     1      -0.942   0.223   2.369  0.00  0.00    +0.150 HD
ATOM     14  H   UNL     1       2.757  -1.028   1.956  0.00  0.00    +0.147 HD
ENDROOT
BRANCH  11  15
ATOM     15  C   UNL     1       3.290   1.489   2.874  0.00  0.00    +0.052 A 
ATOM     16  C   UNL     1       3.472   1.751   4.226  0.00  0.00    +0.025 A 
ATOM     17  C   UNL     1       4.588   2.447   4.648  0.00  0.00    +0.002 A 
ATOM     18  C   UNL     1       5.522   2.884   3.727  0.00  0.00    +0.000 A 
ATOM     19  C   UNL     1       5.344   2.624   2.381  0.00  0.00    +0.002 A 
ATOM     20  C   UNL     1       4.234   1.923   1.952  0.00  0.00    +0.025 A 
ENDBRANCH  11  15
TORSDOF 1
