REMARK  Name = ZINC14993134
REMARK  11 active torsions:
REMARK  status: ('A' for Active; 'I' for Inactive)
REMARK    1  A    between atoms: C_1  and  C_2
REMARK    2  A    between atoms: C_10  and  C_12
REMARK    3  A    between atoms: C_12  and  N_13
REMARK    4  A    between atoms: N_13  and  C_14
REMARK    5  A    between atoms: C_14  and  C_15
REMARK    6  A    between atoms: C_15  and  C_16
REMARK    7  A    between atoms: C_23  and  C_25
REMARK    8  A    between atoms: C_25  and  C_26
REMARK    9  A    between atoms: C_27  and  C_32
REMARK   10  A    between atoms: C_30  and  C_31
REMARK   11  A    between atoms: C_37  and  O_40
REMARK                            x       y       z     vdW  Elec       q    Type
REMARK                         _______ _______ _______ _____ _____    ______ ____
ROOT
ATOM      1  C   UNL     1      -3.482  -1.618  -2.380  0.00  0.00    +0.146 C 
ENDROOT
BRANCH   1  11
ATOM      2  C   UNL     1      -6.082  -3.212   3.408  0.00  0.00    +0.046 C 
ATOM      3  C   UNL     1      -5.519  -4.061   2.298  0.00  0.00    -0.024 A 
ATOM      4  C   UNL     1      -5.501  -5.417   2.416  0.00  0.00    +0.005 A 
ATOM      5  C   UNL     1      -4.984  -6.220   1.403  0.00  0.00    +0.001 A 
ATOM      6  C   UNL     1      -4.482  -5.668   0.263  0.00  0.00    +0.010 A 
ATOM      7  C   UNL     1      -4.485  -4.274   0.107  0.00  0.00    +0.001 A 
ATOM      8  C   UNL     1      -5.010  -3.455   1.137  0.00  0.00    +0.076 A 
ATOM      9  N   UNL     1      -5.015  -2.125   0.994  0.00  0.00    -0.231 NA
ATOM     10  C   UNL     1      -4.539  -1.552  -0.092  0.00  0.00    +0.127 A 
ATOM     11  C   UNL     1      -4.012  -2.308  -1.149  0.00  0.00    +0.010 A 
ATOM     12  C   UNL     1      -3.973  -3.667  -1.059  0.00  0.00    +0.018 A 
ATOM     13  N   UNL     1      -4.566  -0.170  -0.196  0.00  0.00    -0.312 N 
ATOM     14  C   UNL     1      -5.781   0.381   0.418  0.00  0.00    +0.106 C 
ATOM     15  C   UNL     1      -5.848   1.888   0.158  0.00  0.00    +0.021 C 
ATOM     16  C   UNL     1      -4.605   2.558   0.750  0.00  0.00    +0.034 C 
ATOM     17  C   UNL     1      -3.353   1.933   0.129  0.00  0.00    +0.132 C 
ATOM     18  C   UNL     1      -3.358   0.425   0.390  0.00  0.00    +0.137 C 
BRANCH  17  19
ATOM     19  O   UNL     1      -2.188   2.515   0.718  0.00  0.00    -0.390 OA
ATOM     20  H   UNL     1      -2.120   3.472   0.594  0.00  0.00    +0.210 HD
ENDBRANCH  17  19
ENDBRANCH   1  11
BRANCH   1  21
ATOM     21  N   UNL     1      -2.869  -2.608  -3.269  0.00  0.00    -0.296 N 
ATOM     22  C   UNL     1      -3.633  -3.299  -4.138  0.00  0.00    +0.220 C 
ATOM     23  O   UNL     1      -4.829  -3.102  -4.184  0.00  0.00    -0.275 OA
BRANCH  21  24
ATOM     24  C   UNL     1      -1.424  -2.846  -3.214  0.00  0.00    +0.113 C 
BRANCH  24  25
ATOM     25  C   UNL     1      -1.129  -3.959  -2.206  0.00  0.00    +0.054 C 
BRANCH  25  26
ATOM     26  C   UNL     1       0.360  -4.172  -2.114  0.00  0.00    -0.046 A 
ATOM     27  C   UNL     1       0.994  -5.012  -3.010  0.00  0.00    +0.006 A 
ATOM     28  C   UNL     1       2.360  -5.204  -2.930  0.00  0.00    +0.038 A 
ATOM     29  C   UNL     1       3.092  -4.563  -1.945  0.00  0.00    +0.123 A 
ATOM     30  C   UNL     1       2.455  -3.726  -1.044  0.00  0.00    +0.038 A 
ATOM     31  C   UNL     1       1.089  -3.532  -1.130  0.00  0.00    +0.006 A 
ATOM     32  F   UNL     1       4.427  -4.754  -1.862  0.00  0.00    -0.205 F 
ENDBRANCH  25  26
ENDBRANCH  24  25
ENDBRANCH  21  24
BRANCH  22  33
ATOM     33  C   UNL     1      -3.002  -4.318  -5.052  0.00  0.00    +0.136 C 
BRANCH  33  34
ATOM     34  C   UNL     1      -4.065  -4.944  -5.916  0.00  0.00    +0.026 A 
ATOM     35  C   UNL     1      -4.520  -4.516  -7.185  0.00  0.00    +0.084 A 
ATOM     36  N   UNL     1      -5.442  -5.360  -7.548  0.00  0.00    -0.083 NA
ATOM     37  O   UNL     1      -5.615  -6.218  -6.714  0.00  0.00    -0.359 OA
ATOM     38  C   UNL     1      -4.803  -6.051  -5.661  0.00  0.00    +0.138 A 
ATOM     39  C   UNL     1      -4.727  -6.922  -4.433  0.00  0.00    +0.089 C 
ATOM     40  C   UNL     1      -4.033  -3.320  -7.962  0.00  0.00    +0.069 C 
ENDBRANCH  33  34
ENDBRANCH  22  33
ENDBRANCH   1  21
TORSDOF 8
