REMARK  Name = ZINC10042291
REMARK  14 active torsions:
REMARK  status: ('A' for Active; 'I' for Inactive)
REMARK    1  A    between atoms: C_1  and  C_2
REMARK    2  A    between atoms: C_2  and  C_3
REMARK    3  A    between atoms: C_2  and  C_4
REMARK    4  A    between atoms: C_4  and  C_6
REMARK    5  A    between atoms: C_4  and  N_28
REMARK    6  A    between atoms: N_8  and  N_9
REMARK    7  A    between atoms: C_10  and  C_11
REMARK    8  A    between atoms: C_14  and  C_16
REMARK    9  A    between atoms: C_21  and  C_22
REMARK   10  A    between atoms: C_22  and  O_24
REMARK   11  A    between atoms: O_24  and  C_25
REMARK   12  A    between atoms: C_25  and  C_26
REMARK   13  A    between atoms: C_25  and  C_27
REMARK   14  A    between atoms: C_29  and  C_31
REMARK                            x       y       z     vdW  Elec       q    Type
REMARK                         _______ _______ _______ _____ _____    ______ ____
ROOT
ATOM      1  C   UNL     1      -0.665   1.077  -1.608  0.00  0.00    +0.253 C 
ATOM      2  O   UNL     1      -0.812  -0.113  -1.791  0.00  0.00    -0.272 OA
ATOM      3  N   UNL     1      -1.625   1.786  -0.983  0.00  0.00    -0.205 N 
ATOM      4  H   UNL     1      -1.540   2.749  -0.899  0.00  0.00    +0.177 HD
ENDROOT
BRANCH   3   5
ATOM      5  N   UNL     1      -2.747   1.134  -0.456  0.00  0.00    -0.185 NA
ATOM      6  C   UNL     1      -3.722   1.828   0.058  0.00  0.00    +0.176 C 
BRANCH   6   7
ATOM      7  C   UNL     1      -3.681   3.291   0.015  0.00  0.00    +0.148 A 
ATOM      8  C   UNL     1      -4.661   4.141   0.481  0.00  0.00    +0.051 A 
ATOM      9  C   UNL     1      -4.210   5.445   0.245  0.00  0.00    +0.050 A 
ATOM     10  C   UNL     1      -2.989   5.345  -0.358  0.00  0.00    +0.137 A 
ATOM     11  O   UNL     1      -2.681   4.040  -0.491  0.00  0.00    -0.454 OA
BRANCH  10  12
ATOM     12  C   UNL     1      -2.149   6.474  -0.791  0.00  0.00    +0.031 A 
ATOM     13  C   UNL     1      -2.646   7.412  -1.698  0.00  0.00    +0.012 A 
ATOM     14  C   UNL     1      -1.855   8.467  -2.101  0.00  0.00    +0.001 A 
ATOM     15  C   UNL     1      -0.565   8.607  -1.611  0.00  0.00    +0.001 A 
ATOM     16  C   UNL     1      -0.054   7.692  -0.715  0.00  0.00    +0.016 A 
ATOM     17  C   UNL     1      -0.839   6.619  -0.289  0.00  0.00    +0.070 A 
BRANCH  17  18
ATOM     18  C   UNL     1      -0.301   5.642   0.673  0.00  0.00    +0.340 C 
ATOM     19  O   UNL     1      -0.947   4.653   0.961  0.00  0.00    -0.245 OA
BRANCH  18  20
ATOM     20  O   UNL     1       0.908   5.845   1.235  0.00  0.00    -0.458 OA
BRANCH  20  21
ATOM     21  C   UNL     1       1.358   4.860   2.203  0.00  0.00    +0.171 C 
ATOM     22  C   UNL     1       2.347   3.903   1.534  0.00  0.00    +0.052 C 
ATOM     23  C   UNL     1       2.046   5.571   3.370  0.00  0.00    +0.052 C 
ENDBRANCH  20  21
ENDBRANCH  18  20
ENDBRANCH  17  18
ENDBRANCH  10  12
ENDBRANCH   6   7
ENDBRANCH   3   5
BRANCH   1  24
ATOM     24  C   UNL     1       0.589   1.763  -2.085  0.00  0.00    +0.163 C 
BRANCH  24  25
ATOM     25  N   UNL     1       1.679   0.787  -2.165  0.00  0.00    -0.300 N 
ATOM     26  C   UNL     1       2.959   1.198  -2.070  0.00  0.00    +0.245 C 
ATOM     27  O   UNL     1       3.210   2.377  -1.917  0.00  0.00    -0.270 OA
ATOM     28  H   UNL     1       1.479  -0.154  -2.287  0.00  0.00    +0.150 HD
BRANCH  26  29
ATOM     29  C   UNL     1       4.059   0.213  -2.151  0.00  0.00    +0.038 A 
ATOM     30  C   UNL     1       5.386   0.635  -2.052  0.00  0.00    +0.013 A 
ATOM     31  C   UNL     1       6.408  -0.288  -2.128  0.00  0.00    +0.002 A 
ATOM     32  C   UNL     1       6.121  -1.631  -2.301  0.00  0.00    +0.020 A 
ATOM     33  C   UNL     1       4.807  -2.057  -2.399  0.00  0.00    +0.042 A 
ATOM     34  C   UNL     1       3.775  -1.143  -2.321  0.00  0.00    +0.033 A 
ATOM     35 CL   UNL     1       4.457  -3.743  -2.615  0.00  0.00    -0.084 Cl
ENDBRANCH  26  29
ENDBRANCH  24  25
BRANCH  24  37
ATOM     36  C   UNL     1      -0.715   3.468  -3.363  0.00  0.00    +0.009 C 
ATOM     37  C   UNL     1       0.344   2.369  -3.468  0.00  0.00    +0.012 C 
ATOM     38  C   UNL     1       1.648   2.966  -4.001  0.00  0.00    +0.009 C 
ENDBRANCH  24  37
ENDBRANCH   1  24
TORSDOF 10
