REMARK  Name = ZINC15968589
REMARK  7 active torsions:
REMARK  status: ('A' for Active; 'I' for Inactive)
REMARK    1  A    between atoms: C_1  and  C_2
REMARK    2  A    between atoms: C_2  and  C_3
REMARK    3  A    between atoms: C_3  and  C_5
REMARK    4  A    between atoms: C_3  and  N_6
REMARK    5  A    between atoms: C_7  and  C_9
REMARK    6  A    between atoms: C_14  and  N_15
REMARK    7  A    between atoms: C_31  and  C_36
REMARK                            x       y       z     vdW  Elec       q    Type
REMARK                         _______ _______ _______ _____ _____    ______ ____
ROOT
ATOM      1  N   UNL     1      -2.465   3.812   0.045  0.00  0.00    -0.192 N 
ATOM      2  C   UNL     1      -3.116   4.175   1.169  0.00  0.00    +0.248 C 
ATOM      3  O   UNL     1      -2.757   3.993   2.312  0.00  0.00    -0.273 OA
ATOM      4  C   UNL     1      -4.389   4.857   0.708  0.00  0.00    +0.169 C 
ATOM      5  C   UNL     1      -4.384   6.320   1.167  0.00  0.00    +0.069 C 
ATOM      6  C   UNL     1      -5.247   7.138   0.239  0.00  0.00    -0.015 A 
ATOM      7  C   UNL     1      -5.831   8.441   0.498  0.00  0.00    +0.003 A 
ATOM      8  C   UNL     1      -5.788   9.292   1.606  0.00  0.00    +0.010 A 
ATOM      9  C   UNL     1      -6.471  10.479   1.503  0.00  0.00    +0.001 A 
ATOM     10  C   UNL     1      -7.172  10.828   0.360  0.00  0.00    +0.002 A 
ATOM     11  C   UNL     1      -7.231  10.004  -0.751  0.00  0.00    +0.026 A 
ATOM     12  C   UNL     1      -6.547   8.793  -0.675  0.00  0.00    +0.047 A 
ATOM     13  N   UNL     1      -6.397   7.768  -1.564  0.00  0.00    -0.356 N 
ATOM     14  H   UNL     1      -6.781   7.740  -2.454  0.00  0.00    +0.166 HD
ATOM     15  C   UNL     1      -5.623   6.784  -1.008  0.00  0.00    +0.041 A 
ATOM     16  C   UNL     1      -5.227   5.477  -1.666  0.00  0.00    +0.122 C 
ATOM     17  N   UNL     1      -4.258   4.840  -0.765  0.00  0.00    -0.265 N 
ATOM     18  C   UNL     1      -3.131   4.189  -1.057  0.00  0.00    +0.317 C 
ATOM     19  O   UNL     1      -2.752   3.961  -2.189  0.00  0.00    -0.252 OA
ATOM     20  C   UNL     1      -4.582   5.747  -3.026  0.00  0.00    +0.035 C 
ENDROOT
BRANCH   1  26
ATOM     21  C   UNL     1      -0.040   3.850   0.022  0.00  0.00    +0.059 A 
ATOM     22  C   UNL     1       1.174   3.159   0.007  0.00  0.00    +0.015 A 
ATOM     23  C   UNL     1       1.180   1.781   0.000  0.00  0.00    +0.001 A 
ATOM     24  C   UNL     1      -0.013   1.076   0.008  0.00  0.00    +0.002 A 
ATOM     25  C   UNL     1      -1.220   1.746   0.017  0.00  0.00    +0.025 A 
ATOM     26  C   UNL     1      -1.245   3.133   0.030  0.00  0.00    +0.058 A 
BRANCH  21  28
ATOM     27  N   UNL     1       1.107   6.010   0.021  0.00  0.00    -0.309 N 
ATOM     28  C   UNL     1      -0.054   5.325   0.029  0.00  0.00    +0.246 C 
ATOM     29  O   UNL     1      -1.113   5.923   0.042  0.00  0.00    -0.270 OA
ATOM     30  H   UNL     1       1.951   5.533   0.011  0.00  0.00    +0.149 HD
BRANCH  27  31
ATOM     31  C   UNL     1       1.093   7.475   0.029  0.00  0.00    +0.070 C 
ATOM     32  C   UNL     1       0.948   7.991  -1.405  0.00  0.00    +0.028 C 
BRANCH  31  34
ATOM     33  C   UNL     1       2.486   7.584   2.099  0.00  0.00    +0.005 C 
ATOM     34  C   UNL     1       2.401   7.995   0.628  0.00  0.00    +0.018 C 
ENDBRANCH  31  34
ENDBRANCH  27  31
ENDBRANCH  21  28
ENDBRANCH   1  26
TORSDOF 4
