REMARK  Name = ZINC34923788
REMARK  8 active torsions:
REMARK  status: ('A' for Active; 'I' for Inactive)
REMARK    1  A    between atoms: C_1  and  C_2
REMARK    2  A    between atoms: C_3  and  C_33
REMARK    3  A    between atoms: C_4  and  C_28
REMARK    4  A    between atoms: C_7  and  C_12
REMARK    5  A    between atoms: C_13  and  N_15
REMARK    6  A    between atoms: N_18  and  C_21
REMARK    7  A    between atoms: C_33  and  O_35
REMARK    8  A    between atoms: O_35  and  C_36
REMARK                            x       y       z     vdW  Elec       q    Type
REMARK                         _______ _______ _______ _____ _____    ______ ____
ROOT
ATOM      1  C   UNL     1       0.292   0.636   1.867  0.00  0.00    +0.066 C 
ATOM      2  C   UNL     1       0.309  -0.716   1.200  0.00  0.00    +0.053 C 
ATOM      3  C   UNL     1      -0.876  -1.394   0.993  0.00  0.00    +0.082 C 
ATOM      4  C   UNL     1      -0.807  -2.746   0.320  0.00  0.00    +0.150 C 
ATOM      5  N   UNL     1       0.541  -3.240  -0.069  0.00  0.00    -0.267 N 
ATOM      6  C   UNL     1       0.840  -4.436  -0.690  0.00  0.00    +0.048 C 
ATOM      7  C   UNL     1       2.139  -4.696  -0.958  0.00  0.00    +0.072 C 
ATOM      8  S   UNL     1       2.944  -3.237  -0.326  0.00  0.00    -0.060 S 
ATOM      9  C   UNL     1       1.589  -2.414   0.226  0.00  0.00    +0.166 C 
ATOM     10  N   UNL     1       1.460  -1.242   0.811  0.00  0.00    -0.230 NA
ENDROOT
BRANCH   4  11
ATOM     11  C   UNL     1      -1.421  -3.760   1.250  0.00  0.00    -0.015 A 
ATOM     12  C   UNL     1      -2.668  -4.293   0.982  0.00  0.00    +0.013 A 
ATOM     13  C   UNL     1      -3.193  -5.202   1.840  0.00  0.00    +0.045 A 
ATOM     14  S   UNL     1      -1.908  -5.331   3.073  0.00  0.00    -0.105 S 
ATOM     15  C   UNL     1      -0.757  -4.167   2.360  0.00  0.00    +0.051 A 
ENDBRANCH   4  11
BRANCH   6  16
ATOM     16  C   UNL     1      -0.216  -5.394  -1.048  0.00  0.00    +0.091 C 
ATOM     17  C   UNL     1       0.110  -6.606  -1.534  0.00  0.00    +0.241 C 
ATOM     18  O   UNL     1       1.409  -6.992  -1.578  0.00  0.00    -0.271 OA
BRANCH  17  19
ATOM     19  N   UNL     1      -0.881  -7.460  -1.990  0.00  0.00    -0.295 N 
ATOM     20  C   UNL     1      -2.119  -6.924  -2.572  0.00  0.00    +0.127 C 
ATOM     21  C   UNL     1      -2.303  -7.526  -3.971  0.00  0.00    +0.124 C 
ATOM     22  N   UNL     1      -2.135  -8.983  -3.881  0.00  0.00    -0.325 N 
ATOM     23  C   UNL     1      -0.897  -9.518  -3.298  0.00  0.00    +0.124 C 
ATOM     24  C   UNL     1      -0.711  -8.917  -1.905  0.00  0.00    +0.127 C 
BRANCH  22  25
ATOM     25  C   UNL     1      -3.136  -9.844  -4.341  0.00  0.00    +0.065 A 
ATOM     26  C   UNL     1      -3.123 -10.286  -5.657  0.00  0.00    +0.026 A 
ATOM     27  C   UNL     1      -4.113 -11.138  -6.108  0.00  0.00    +0.002 A 
ATOM     28  C   UNL     1      -5.117 -11.550  -5.252  0.00  0.00    +0.003 A 
ATOM     29  C   UNL     1      -5.135 -11.112  -3.940  0.00  0.00    +0.040 A 
ATOM     30  C   UNL     1      -4.144 -10.265  -3.479  0.00  0.00    +0.144 A 
ATOM     31  F   UNL     1      -4.158  -9.842  -2.196  0.00  0.00    -0.204 F 
ENDBRANCH  22  25
ENDBRANCH  17  19
ENDBRANCH   6  16
BRANCH   3  32
ATOM     32  C   UNL     1      -2.102  -0.848   1.395  0.00  0.00    +0.339 C 
ATOM     33  O   UNL     1      -2.134   0.244   1.936  0.00  0.00    -0.245 OA
BRANCH  32  34
ATOM     34  O   UNL     1      -3.248  -1.531   1.182  0.00  0.00    -0.465 OA
ATOM     35  C   UNL     1      -4.461  -0.914   1.617  0.00  0.00    +0.280 C 
ENDBRANCH  32  34
ENDBRANCH   3  32
TORSDOF 6
