REMARK  Name = ZINC03888658
REMARK  4 active torsions:
REMARK  status: ('A' for Active; 'I' for Inactive)
REMARK    1  A    between atoms: C_3  and  N_22
REMARK    2  A    between atoms: C_6  and  C_7
REMARK    3  A    between atoms: C_10  and  S_13
REMARK    4  A    between atoms: S_13  and  N_16
REMARK                            x       y       z     vdW  Elec       q    Type
REMARK                         _______ _______ _______ _____ _____    ______ ____
ROOT
ATOM      1  C   UNL     1      -5.296  -1.038  -1.400  0.00  0.00    -0.018 A 
ATOM      2  C   UNL     1      -5.158   0.128  -2.152  0.00  0.00    +0.010 A 
ATOM      3  C   UNL     1      -3.899   0.606  -2.453  0.00  0.00    +0.029 A 
ATOM      4  C   UNL     1      -2.776  -0.068  -2.009  0.00  0.00    +0.106 A 
ATOM      5  C   UNL     1      -2.907  -1.228  -1.268  0.00  0.00    +0.029 A 
ATOM      6  C   UNL     1      -4.161  -1.713  -0.956  0.00  0.00    +0.010 A 
ENDROOT
BRANCH   1  12
ATOM      7  C   UNL     1      -7.782  -0.877  -1.514  0.00  0.00    +0.010 A 
ATOM      8  C   UNL     1      -9.036  -1.364  -1.214  0.00  0.00    +0.023 A 
ATOM      9  C   UNL     1      -9.170  -2.527  -0.464  0.00  0.00    +0.025 A 
ATOM     10  C   UNL     1      -8.040  -3.204  -0.019  0.00  0.00    +0.023 A 
ATOM     11  C   UNL     1      -6.784  -2.723  -0.322  0.00  0.00    +0.010 A 
ATOM     12  C   UNL     1      -6.647  -1.557  -1.074  0.00  0.00    -0.018 A 
BRANCH   9  13
ATOM     13  N   UNL     1     -10.440  -3.016  -0.157  0.00  0.00    -0.358 N 
ATOM     14  H   UNL     1     -10.535  -3.827   0.367  0.00  0.00    +0.142 HD
ATOM     15  H   UNL     1     -11.229  -2.544  -0.466  0.00  0.00    +0.142 HD
ENDBRANCH   9  13
ENDBRANCH   1  12
BRANCH   4  16
ATOM     16  S   UNL     1      -1.171   0.548  -2.397  0.00  0.00    +0.061 S 
ATOM     17  O   UNL     1      -1.314   1.343  -3.567  0.00  0.00    -0.153 OA
ATOM     18  O   UNL     1      -0.284  -0.559  -2.332  0.00  0.00    -0.153 OA
BRANCH  16  19
ATOM     19  N   UNL     1      -0.734   1.578  -1.176  0.00  0.00    -0.172 NA
ATOM     20  C   UNL     1      -0.013   1.086   0.008  0.00  0.00    +0.137 C 
ATOM     21  C   UNL     1      -0.741   1.585   1.261  0.00  0.00    +0.177 C 
ATOM     22  O   UNL     1      -0.919   3.001   1.169  0.00  0.00    -0.377 OA
ATOM     23  C   UNL     1      -1.734   3.418   0.070  0.00  0.00    +0.177 C 
ATOM     24  C   UNL     1      -1.056   3.013  -1.243  0.00  0.00    +0.137 C 
ENDBRANCH  16  19
ENDBRANCH   4  16
TORSDOF 4
