REMARK  Name = ZINC45540706
REMARK  8 active torsions:
REMARK  status: ('A' for Active; 'I' for Inactive)
REMARK    1  A    between atoms: C_1  and  C_2
REMARK    2  A    between atoms: C_2  and  C_4
REMARK    3  A    between atoms: C_2  and  N_12
REMARK    4  A    between atoms: C_13  and  C_15
REMARK    5  A    between atoms: C_15  and  S_16
REMARK    6  A    between atoms: S_16  and  C_17
REMARK    7  A    between atoms: N_21  and  C_22
REMARK    8  A    between atoms: C_22  and  C_23
REMARK                            x       y       z     vdW  Elec       q    Type
REMARK                         _______ _______ _______ _____ _____    ______ ____
ROOT
ATOM      1  N   UNL     1      -1.367  -0.520  -0.079  0.00  0.00    -0.308 N 
ATOM      2  C   UNL     1      -1.943  -0.717  -1.281  0.00  0.00    +0.224 C 
ATOM      3  O   UNL     1      -1.329  -0.466  -2.296  0.00  0.00    -0.275 OA
ATOM      4  H   UNL     1      -1.858  -0.720   0.733  0.00  0.00    +0.149 HD
ENDROOT
BRANCH   1   6
ATOM      5  C   UNL     1      -0.028   1.526  -0.017  0.00  0.00    +0.033 C 
ATOM      6  C   UNL     1       0.002  -0.004   0.002  0.00  0.00    +0.102 C 
BRANCH   6   7
ATOM      7  C   UNL     1       0.643  -0.478   1.281  0.00  0.00    -0.009 A 
ATOM      8  C   UNL     1      -0.141  -0.765   2.382  0.00  0.00    +0.008 A 
ATOM      9  C   UNL     1       0.446  -1.200   3.555  0.00  0.00    +0.020 A 
ATOM     10  C   UNL     1       1.820  -1.350   3.627  0.00  0.00    +0.042 A 
ATOM     11  C   UNL     1       2.606  -1.063   2.525  0.00  0.00    +0.040 A 
ATOM     12  C   UNL     1       2.016  -0.632   1.350  0.00  0.00    +0.047 A 
ATOM     13 CL   UNL     1       3.001  -0.278  -0.036  0.00  0.00    -0.083 Cl
ATOM     14 CL   UNL     1       2.558  -1.896   5.101  0.00  0.00    -0.083 Cl
ENDBRANCH   6   7
ENDBRANCH   1   6
BRANCH   2  15
ATOM     15  C   UNL     1      -3.351  -1.248  -1.364  0.00  0.00    +0.173 C 
BRANCH  15  16
ATOM     16  S   UNL     1      -3.838  -1.401  -3.104  0.00  0.00    -0.075 S 
BRANCH  16  17
ATOM     17  C   UNL     1      -5.484  -2.025  -3.033  0.00  0.00    +0.210 A 
ATOM     18  N   UNL     1      -6.170  -2.297  -1.944  0.00  0.00    -0.102 NA
ATOM     19  N   UNL     1      -7.339  -2.736  -2.247  0.00  0.00    -0.022 NA
ATOM     20  N   UNL     1      -7.485  -2.776  -3.527  0.00  0.00    -0.043 NA
ATOM     21  N   UNL     1      -6.284  -2.308  -4.089  0.00  0.00    -0.218 N 
BRANCH  21  22
ATOM     22  C   UNL     1      -5.964  -2.162  -5.511  0.00  0.00    +0.179 C 
BRANCH  22  23
ATOM     23  C   UNL     1      -5.343  -3.459  -6.030  0.00  0.00    +0.140 C 
ATOM     24  C   UNL     1      -4.892  -3.275  -7.495  0.00  0.00    +0.035 C 
ATOM     25  C   UNL     1      -5.272  -4.640  -8.132  0.00  0.00    +0.031 C 
ATOM     26  C   UNL     1      -6.559  -4.985  -7.340  0.00  0.00    +0.160 C 
ATOM     27  O   UNL     1      -6.317  -4.509  -6.004  0.00  0.00    -0.375 OA
ENDBRANCH  22  23
ENDBRANCH  21  22
ENDBRANCH  16  17
ENDBRANCH  15  16
ENDBRANCH   2  15
TORSDOF 7
