REMARK  Name = ZINC62427808
REMARK  4 active torsions:
REMARK  status: ('A' for Active; 'I' for Inactive)
REMARK    1  A    between atoms: C_1  and  C_2
REMARK    2  A    between atoms: C_3  and  C_21
REMARK    3  A    between atoms: C_8  and  C_14
REMARK    4  A    between atoms: C_9  and  C_12
REMARK                            x       y       z     vdW  Elec       q    Type
REMARK                         _______ _______ _______ _____ _____    ______ ____
ROOT
ATOM      1  C   UNL     1      -0.018   1.503   0.010  0.00  0.00    +0.066 C 
ATOM      2  C   UNL     1       0.002  -0.004   0.002  0.00  0.00    +0.051 A 
ATOM      3  C   UNL     1       0.006  -0.707  -1.159  0.00  0.00    +0.011 A 
ATOM      4  S   UNL     1       0.032  -2.379  -0.535  0.00  0.00    -0.053 S 
ATOM      5  C   UNL     1       0.035  -2.014   1.108  0.00  0.00    +0.196 A 
ATOM      6  N   UNL     1       0.023  -0.699   1.122  0.00  0.00    -0.226 NA
ATOM      7  N   UNL     1       0.051  -2.891   2.190  0.00  0.00    -0.187 N 
ATOM      8  C   UNL     1       0.048  -2.553   3.513  0.00  0.00    +0.107 A 
ATOM      9  C   UNL     1       0.069  -3.756   4.220  0.00  0.00    +0.153 A 
ATOM     10  N   UNL     1       0.084  -4.762   3.328  0.00  0.00    -0.126 NA
ATOM     11  N   UNL     1       0.069  -4.291   2.131  0.00  0.00    -0.058 NA
ATOM     12  C   UNL     1      -0.008  -0.212  -2.583  0.00  0.00    +0.053 C 
ENDROOT
BRANCH   8  13
ATOM     13  C   UNL     1       0.027  -1.191   4.081  0.00  0.00    +0.005 A 
ATOM     14  C   UNL     1       0.861  -0.200   3.557  0.00  0.00    +0.010 A 
ATOM     15  C   UNL     1       0.837   1.072   4.091  0.00  0.00    +0.003 A 
ATOM     16  C   UNL     1      -0.011   1.368   5.144  0.00  0.00    +0.038 A 
ATOM     17  C   UNL     1      -0.840   0.391   5.669  0.00  0.00    +0.124 A 
ATOM     18  C   UNL     1      -0.830  -0.885   5.140  0.00  0.00    +0.048 A 
ATOM     19  F   UNL     1      -1.665   0.688   6.698  0.00  0.00    -0.205 F 
ENDBRANCH   8  13
BRANCH   9  20
ATOM     20  C   UNL     1       0.073  -3.897   5.677  0.00  0.00    +0.282 C 
ATOM     21  O   UNL     1       0.092  -5.002   6.179  0.00  0.00    -0.294 OA
ENDBRANCH   9  20
TORSDOF 2
