REMARK  Name = ZINC17306239
REMARK  12 active torsions:
REMARK  status: ('A' for Active; 'I' for Inactive)
REMARK    1  A    between atoms: C_1  and  C_2
REMARK    2  A    between atoms: C_4  and  S_28
REMARK    3  A    between atoms: C_6  and  N_9
REMARK    4  A    between atoms: C_7  and  C_8
REMARK    5  A    between atoms: C_10  and  C_12
REMARK    6  A    between atoms: C_12  and  N_57
REMARK    7  A    between atoms: C_13  and  N_57
REMARK    8  A    between atoms: C_14  and  C_16
REMARK    9  A    between atoms: C_14  and  C_17
REMARK   10  A    between atoms: C_14  and  N_57
REMARK   11  A    between atoms: C_20  and  N_23
REMARK   12  A    between atoms: S_28  and  N_31
REMARK                            x       y       z     vdW  Elec       q    Type
REMARK                         _______ _______ _______ _____ _____    ______ ____
ROOT
ATOM      1  N   UNL     1      -3.801   0.729   3.438  0.00  0.00    -0.287 N 
ATOM      2  C   UNL     1      -3.954  -0.514   2.939  0.00  0.00    +0.201 C 
ATOM      3  O   UNL     1      -3.273  -0.881   2.006  0.00  0.00    -0.278 OA
ATOM      4  H   UNL     1      -4.296   0.999   4.227  0.00  0.00    +0.155 HD
ENDROOT
BRANCH   1  10
ATOM      5  C   UNL     1      -2.680   5.345   2.173  0.00  0.00    +0.044 C 
ATOM      6  C   UNL     1      -2.361   3.873   2.189  0.00  0.00    -0.044 A 
ATOM      7  C   UNL     1      -1.201   3.411   1.593  0.00  0.00    +0.032 A 
ATOM      8  C   UNL     1      -0.908   2.059   1.600  0.00  0.00    +0.107 A 
ATOM      9  C   UNL     1      -1.767   1.168   2.213  0.00  0.00    +0.052 A 
ATOM     10  C   UNL     1      -2.929   1.629   2.817  0.00  0.00    +0.038 A 
ATOM     11  C   UNL     1      -3.224   2.986   2.803  0.00  0.00    -0.026 A 
ATOM     12  C   UNL     1      -4.484   3.491   3.457  0.00  0.00    +0.046 C 
BRANCH   8  13
ATOM     13  S   UNL     1       0.567   1.475   0.834  0.00  0.00    +0.056 S 
ATOM     14  O   UNL     1       0.886   0.239   1.457  0.00  0.00    -0.153 OA
ATOM     15  O   UNL     1       1.472   2.571   0.806  0.00  0.00    -0.153 OA
BRANCH  13  16
ATOM     16  N   UNL     1       0.196   1.129  -0.743  0.00  0.00    -0.204 NA
ATOM     17  H   UNL     1      -0.708   1.265  -1.069  0.00  0.00    +0.144 HD
ATOM     18  H   UNL     1       0.881   0.790  -1.339  0.00  0.00    +0.144 HD
ENDBRANCH  13  16
ENDBRANCH   8  13
ENDBRANCH   1  10
BRANCH   2  19
ATOM     19  C   UNL     1      -4.972  -1.448   3.542  0.00  0.00    +0.019 C 
BRANCH  19  21
ATOM     20  C   UNL     1      -5.397  -2.569   1.438  0.00  0.00    -0.095 C 
ATOM     21  N   UNL     1      -4.917  -2.740   2.826  0.00  0.00    +0.388 N 
ATOM     22  H   UNL     1      -3.944  -3.068   2.804  0.00  0.00    -0.081 HD
BRANCH  21  23
ATOM     23  C   UNL     1      -5.746  -3.742   3.527  0.00  0.00    -0.041 C 
ATOM     24  C   UNL     1      -7.228  -3.372   3.436  0.00  0.00    -0.008 C 
BRANCH  23  25
ATOM     25  C   UNL     1      -5.525  -5.089   2.889  0.00  0.00    -0.061 A 
ATOM     26  C   UNL     1      -6.586  -5.962   2.735  0.00  0.00    +0.004 A 
ATOM     27  C   UNL     1      -6.388  -7.195   2.145  0.00  0.00    +0.028 A 
ATOM     28  C   UNL     1      -5.119  -7.562   1.716  0.00  0.00    +0.067 A 
ATOM     29  C   UNL     1      -4.055  -6.686   1.878  0.00  0.00    +0.028 A 
ATOM     30  C   UNL     1      -4.260  -5.452   2.464  0.00  0.00    +0.004 A 
BRANCH  28  31
ATOM     31  N   UNL     1      -4.914  -8.815   1.122  0.00  0.00    -0.220 N 
ATOM     32  C   UNL     1      -5.841  -9.768   0.904  0.00  0.00    +0.225 A 
ATOM     33  N   UNL     1      -5.251 -10.783   0.327  0.00  0.00    -0.222 NA
ATOM     34  C   UNL     1      -3.954 -10.522   0.169  0.00  0.00    +0.245 A 
ATOM     35  N   UNL     1      -3.699  -9.330   0.640  0.00  0.00    -0.154 NA
ENDBRANCH  28  31
ENDBRANCH  23  25
ENDBRANCH  21  23
ENDBRANCH  19  21
ENDBRANCH   2  19
TORSDOF 8
