REMARK  Name = ZINC02111315
REMARK  3 active torsions:
REMARK  status: ('A' for Active; 'I' for Inactive)
REMARK    1  A    between atoms: C_1  and  C_2
REMARK    2  A    between atoms: C_7  and  C_8
REMARK    3  A    between atoms: N_27  and  C_30
REMARK                            x       y       z     vdW  Elec       q    Type
REMARK                         _______ _______ _______ _____ _____    ______ ____
ROOT
ATOM      1  C   UNL     1      -2.281  -2.830  -3.911  0.00  0.00    +0.154 C 
ATOM      2  C   UNL     1      -2.717  -1.621  -4.708  0.00  0.00    +0.046 A 
ATOM      3  C   UNL     1      -2.251  -0.373  -4.485  0.00  0.00    -0.015 A 
ATOM      4  C   UNL     1      -2.898   0.498  -5.445  0.00  0.00    +0.003 A 
ATOM      5  C   UNL     1      -2.808   1.872  -5.688  0.00  0.00    +0.010 A 
ATOM      6  C   UNL     1      -3.585   2.375  -6.702  0.00  0.00    +0.001 A 
ATOM      7  C   UNL     1      -4.421   1.569  -7.457  0.00  0.00    +0.002 A 
ATOM      8  C   UNL     1      -4.529   0.206  -7.239  0.00  0.00    +0.026 A 
ATOM      9  C   UNL     1      -3.752  -0.332  -6.215  0.00  0.00    +0.047 A 
ATOM     10  N   UNL     1      -3.616  -1.605  -5.741  0.00  0.00    -0.356 N 
ATOM     11  H   UNL     1      -4.085  -2.382  -6.085  0.00  0.00    +0.166 HD
ATOM     12  C   UNL     1      -1.248  -0.010  -3.420  0.00  0.00    +0.069 C 
ATOM     13  C   UNL     1      -0.537  -1.288  -2.952  0.00  0.00    +0.167 C 
ATOM     14  N   UNL     1      -1.531  -2.338  -2.736  0.00  0.00    -0.276 N 
ATOM     15  C   UNL     1      -1.788  -2.865  -1.537  0.00  0.00    +0.234 C 
ATOM     16  O   UNL     1      -2.681  -3.682  -1.458  0.00  0.00    -0.274 OA
ATOM     17  C   UNL     1      -1.050  -2.515  -0.286  0.00  0.00    +0.204 C 
ATOM     18  N   UNL     1       0.011  -1.552  -0.528  0.00  0.00    -0.288 N 
ATOM     19  C   UNL     1       0.248  -0.994  -1.714  0.00  0.00    +0.237 C 
ATOM     20  O   UNL     1       1.162  -0.201  -1.796  0.00  0.00    -0.274 OA
ENDROOT
BRANCH   1  27
ATOM     21  C   UNL     1      -2.140  -5.705  -3.666  0.00  0.00    +0.044 C 
ATOM     22  C   UNL     1      -3.423  -4.983  -3.341  0.00  0.00    -0.045 A 
ATOM     23  C   UNL     1      -4.530  -5.696  -2.921  0.00  0.00    +0.004 A 
ATOM     24  C   UNL     1      -5.708  -5.035  -2.628  0.00  0.00    +0.000 A 
ATOM     25  C   UNL     1      -5.777  -3.659  -2.751  0.00  0.00    +0.000 A 
ATOM     26  C   UNL     1      -4.668  -2.946  -3.166  0.00  0.00    +0.006 A 
ATOM     27  C   UNL     1      -3.490  -3.608  -3.458  0.00  0.00    -0.018 A 
ENDBRANCH   1  27
BRANCH  18  28
ATOM     28  C   UNL     1       0.865  -1.167   0.598  0.00  0.00    +0.077 C 
ATOM     29  C   UNL     1       1.584  -2.405   1.161  0.00  0.00    +0.022 C 
ATOM     30  C   UNL     1       1.136  -2.548   2.630  0.00  0.00    +0.002 C 
ATOM     31  C   UNL     1       0.693  -1.118   3.031  0.00  0.00    +0.002 C 
ATOM     32  C   UNL     1       0.003  -0.600   1.745  0.00  0.00    +0.022 C 
ENDBRANCH  18  28
TORSDOF 2
