REMARK  Name = ZINC06966412
REMARK  5 active torsions:
REMARK  status: ('A' for Active; 'I' for Inactive)
REMARK    1  A    between atoms: C_1  and  C_2
REMARK    2  A    between atoms: C_5  and  C_8
REMARK    3  A    between atoms: C_18  and  N_26
REMARK    4  A    between atoms: C_21  and  O_24
REMARK    5  A    between atoms: O_24  and  C_25
REMARK                            x       y       z     vdW  Elec       q    Type
REMARK                         _______ _______ _______ _____ _____    ______ ____
ROOT
ATOM      1  C   UNL     1      -2.553   3.869   0.045  0.00  0.00    +0.105 C 
ATOM      2  C   UNL     1      -3.169   3.783   1.444  0.00  0.00    +0.029 C 
ATOM      3  C   UNL     1      -2.094   4.245   2.467  0.00  0.00    +0.033 C 
ATOM      4  C   UNL     1      -1.251   3.003   2.683  0.00  0.00    -0.030 C 
ATOM      5  C   UNL     1      -1.919   1.930   2.343  0.00  0.00    -0.023 C 
ATOM      6  C   UNL     1      -3.298   2.299   1.846  0.00  0.00    +0.051 C 
ATOM      7  C   UNL     1      -3.684   1.442   0.677  0.00  0.00    +0.014 A 
ATOM      8  C   UNL     1      -3.984   0.106   0.919  0.00  0.00    +0.132 A 
ATOM      9  C   UNL     1      -4.339  -0.736  -0.114  0.00  0.00    +0.037 A 
ATOM     10  C   UNL     1      -4.401  -0.255  -1.409  0.00  0.00    +0.050 A 
ATOM     11  C   UNL     1      -4.108   1.073  -1.663  0.00  0.00    +0.141 A 
ATOM     12  C   UNL     1      -3.748   1.927  -0.615  0.00  0.00    +0.076 A 
ATOM     13  N   UNL     1      -3.464   3.260  -0.925  0.00  0.00    -0.334 N 
ATOM     14  H   UNL     1      -4.312   3.800  -1.012  0.00  0.00    +0.147 HD
ENDROOT
BRANCH   1  19
ATOM     15  C   UNL     1       2.490   1.047  -0.013  0.00  0.00    +0.044 C 
ATOM     16  C   UNL     1       1.175   1.783   0.002  0.00  0.00    -0.050 A 
ATOM     17  C   UNL     1       1.107   3.067   0.510  0.00  0.00    +0.004 A 
ATOM     18  C   UNL     1      -0.100   3.740   0.529  0.00  0.00    +0.006 A 
ATOM     19  C   UNL     1      -1.238   3.133   0.030  0.00  0.00    -0.027 A 
ATOM     20  C   UNL     1      -1.170   1.849  -0.478  0.00  0.00    +0.006 A 
ATOM     21  C   UNL     1       0.036   1.174  -0.492  0.00  0.00    +0.004 A 
ENDBRANCH   1  19
BRANCH   8  22
ATOM     22  N   UNL     1      -3.921  -0.419   2.302  0.00  0.00    +0.057 N 
ATOM     23  O   UNL     1      -4.182  -1.588   2.522  0.00  0.00    -0.126 OA
ATOM     24  O   UNL     1      -3.609   0.319   3.219  0.00  0.00    -0.126 OA
ENDBRANCH   8  22
BRANCH  11  25
ATOM     25  O   UNL     1      -4.170   1.549  -2.935  0.00  0.00    -0.493 OA
ATOM     26  C   UNL     1      -4.544   0.623  -3.957  0.00  0.00    +0.277 C 
ENDBRANCH  11  25
TORSDOF 3
