REMARK  Name = ZINC35665431
REMARK  17 active torsions:
REMARK  status: ('A' for Active; 'I' for Inactive)
REMARK    1  A    between atoms: C_1  and  C_2
REMARK    2  A    between atoms: C_2  and  C_3
REMARK    3  A    between atoms: C_3  and  N_4
REMARK    4  A    between atoms: N_10  and  C_15
REMARK    5  A    between atoms: C_12  and  C_14
REMARK    6  A    between atoms: C_15  and  C_16
REMARK    7  A    between atoms: C_17  and  C_37
REMARK    8  A    between atoms: C_18  and  C_27
REMARK    9  A    between atoms: N_23  and  C_24
REMARK   10  A    between atoms: C_24  and  C_25
REMARK   11  A    between atoms: C_30  and  C_33
REMARK   12  A    between atoms: C_33  and  C_34
REMARK   13  A    between atoms: C_33  and  C_35
REMARK   14  A    between atoms: C_33  and  C_36
REMARK   15  A    between atoms: C_37  and  O_39
REMARK   16  A    between atoms: O_39  and  C_40
REMARK   17  A    between atoms: C_40  and  C_41
REMARK                            x       y       z     vdW  Elec       q    Type
REMARK                         _______ _______ _______ _____ _____    ______ ____
ROOT
ATOM      1  C   UNL     1       2.087  -8.750  -0.214  0.00  0.00    +0.041 C 
ATOM      2  C   UNL     1       2.058 -10.092  -0.362  0.00  0.00    +0.080 C 
ATOM      3  C   UNL     1       1.257 -10.895   0.642  0.00  0.00    +0.144 C 
ATOM      4  N   UNL     1       0.570 -10.141   1.705  0.00  0.00    -0.288 N 
ATOM      5  C   UNL     1       0.694  -8.799   1.721  0.00  0.00    +0.307 C 
ATOM      6  O   UNL     1       0.131  -8.167   2.593  0.00  0.00    -0.252 OA
ATOM      7  N   UNL     1       1.420  -8.139   0.810  0.00  0.00    -0.254 N 
ATOM      8  H   UNL     1       0.042 -10.599   2.377  0.00  0.00    +0.151 HD
ENDROOT
BRANCH   3   9
ATOM      9  C   UNL     1       0.217 -11.681  -0.115  0.00  0.00    -0.022 A 
ATOM     10  C   UNL     1      -0.946 -11.063  -0.534  0.00  0.00    +0.006 A 
ATOM     11  C   UNL     1      -1.899 -11.784  -1.228  0.00  0.00    +0.004 A 
ATOM     12  C   UNL     1      -1.689 -13.122  -1.504  0.00  0.00    -0.042 A 
ATOM     13  C   UNL     1      -0.525 -13.739  -1.085  0.00  0.00    +0.004 A 
ATOM     14  C   UNL     1       0.430 -13.018  -0.395  0.00  0.00    +0.006 A 
BRANCH  12  15
ATOM     15  C   UNL     1      -2.729 -13.908  -2.260  0.00  0.00    -0.013 C 
ATOM     16  C   UNL     1      -2.944 -13.277  -3.637  0.00  0.00    +0.015 C 
ATOM     17  C   UNL     1      -2.253 -15.352  -2.430  0.00  0.00    +0.015 C 
ATOM     18  C   UNL     1      -4.046 -13.893  -1.481  0.00  0.00    +0.015 C 
ENDBRANCH  12  15
ENDBRANCH   3   9
BRANCH   2  19
ATOM     19  C   UNL     1       2.752 -10.726  -1.419  0.00  0.00    +0.339 C 
ATOM     20  O   UNL     1       3.467 -10.072  -2.156  0.00  0.00    -0.245 OA
BRANCH  19  21
ATOM     21  O   UNL     1       2.623 -12.055  -1.609  0.00  0.00    -0.462 OA
BRANCH  21  22
ATOM     22  C   UNL     1       3.353 -12.629  -2.695  0.00  0.00    +0.229 C 
ATOM     23  C   UNL     1       3.082 -14.134  -2.753  0.00  0.00    +0.048 C 
ENDBRANCH  21  22
ENDBRANCH  19  21
ENDBRANCH   2  19
BRANCH   1  24
ATOM     24  C   UNL     1       2.872  -7.913  -1.191  0.00  0.00    +0.136 C 
BRANCH  24  31
ATOM     25  N   UNL     1       8.966  -8.515  -0.767  0.00  0.00    -0.299 N 
ATOM     26  C   UNL     1       8.260  -7.370  -0.847  0.00  0.00    +0.303 C 
ATOM     27  O   UNL     1       8.789  -6.357  -1.262  0.00  0.00    -0.253 OA
ATOM     28  N   UNL     1       6.967  -7.348  -0.466  0.00  0.00    -0.280 N 
ATOM     29  C   UNL     1       6.338  -8.532   0.140  0.00  0.00    +0.125 C 
ATOM     30  C   UNL     1       5.037  -8.830  -0.612  0.00  0.00    +0.104 C 
ATOM     31  N   UNL     1       4.199  -7.623  -0.631  0.00  0.00    -0.294 NA
ATOM     32  C   UNL     1       4.853  -6.532  -1.366  0.00  0.00    +0.107 C 
ATOM     33  C   UNL     1       6.149  -6.138  -0.640  0.00  0.00    +0.088 C 
ATOM     34  C   UNL     1       6.918  -5.114  -1.477  0.00  0.00    +0.029 C 
ATOM     35  H   UNL     1       8.568  -9.304  -0.368  0.00  0.00    +0.150 HD
BRANCH  25  36
ATOM     36  C   UNL     1      10.337  -8.567  -1.282  0.00  0.00    +0.105 C 
BRANCH  36  38
ATOM     37  C   UNL     1      12.339 -10.025  -1.609  0.00  0.00    +0.005 C 
ATOM     38  C   UNL     1      10.908  -9.971  -1.070  0.00  0.00    +0.015 C 
ENDBRANCH  36  38
ENDBRANCH  25  36
ENDBRANCH  24  31
ENDBRANCH   1  24
BRANCH   7  39
ATOM     39  C   UNL     1       1.500  -6.680   0.914  0.00  0.00    +0.141 C 
BRANCH  39  40
ATOM     40  C   UNL     1       0.315  -6.062   0.216  0.00  0.00    -0.015 C 
ATOM     41  C   UNL     1      -0.492  -5.269   0.875  0.00  0.00    +0.005 C 
ENDBRANCH  39  40
ENDBRANCH   7  39
TORSDOF 11
