REMARK  Name = ZINC12181943
REMARK  9 active torsions:
REMARK  status: ('A' for Active; 'I' for Inactive)
REMARK    1  A    between atoms: C_1  and  C_2
REMARK    2  A    between atoms: C_5  and  C_9
REMARK    3  A    between atoms: C_6  and  C_8
REMARK    4  A    between atoms: C_9  and  N_67
REMARK    5  A    between atoms: C_12  and  C_15
REMARK    6  A    between atoms: C_15  and  C_29
REMARK    7  A    between atoms: N_18  and  C_22
REMARK    8  A    between atoms: C_22  and  C_23
REMARK    9  A    between atoms: C_23  and  C_24
REMARK                            x       y       z     vdW  Elec       q    Type
REMARK                         _______ _______ _______ _____ _____    ______ ____
ROOT
ATOM      1  C   UNL     1       3.086   8.596   1.565  0.00  0.00    +0.157 C 
ATOM      2  C   UNL     1       3.155   7.083   1.628  0.00  0.00    +0.253 C 
ATOM      3  O   UNL     1       4.153   6.395   1.658  0.00  0.00    -0.272 OA
ATOM      4  N   UNL     1       1.875   6.660   1.642  0.00  0.00    -0.224 N 
ATOM      5  C   UNL     1       1.016   7.686   1.605  0.00  0.00    +0.310 C 
ATOM      6  O   UNL     1      -0.192   7.556   1.613  0.00  0.00    -0.252 OA
ATOM      7  N   UNL     1       1.640   8.877   1.558  0.00  0.00    -0.280 N 
ATOM      8  H   UNL     1       1.220   9.751   1.526  0.00  0.00    +0.152 HD
ENDROOT
BRANCH   1  11
ATOM      9  C   UNL     1       4.182  11.344   4.028  0.00  0.00    -0.078 C 
ATOM     10  C   UNL     1       3.571  10.736   2.764  0.00  0.00    -0.012 C 
ATOM     11  C   UNL     1       3.749   9.215   2.797  0.00  0.00    +0.024 C 
ATOM     12  C   UNL     1       3.093   8.660   4.065  0.00  0.00    -0.012 C 
ATOM     13  C   UNL     1       3.719   9.328   5.291  0.00  0.00    -0.078 C 
ATOM     14  N   UNL     1       3.491  10.787   5.211  0.00  0.00    +0.382 N 
ATOM     15  H   UNL     1       2.484  10.962   5.122  0.00  0.00    -0.081 HD
BRANCH  14  16
ATOM     16  C   UNL     1       3.985  11.443   6.439  0.00  0.00    -0.043 C 
BRANCH  16  21
ATOM     17  C   UNL     1       0.352  10.247  10.770  0.00  0.00    +0.044 C 
ATOM     18  C   UNL     1       1.299  10.558   9.640  0.00  0.00    -0.050 A 
ATOM     19  C   UNL     1       2.540   9.951   9.591  0.00  0.00    +0.003 A 
ATOM     20  C   UNL     1       3.409  10.237   8.556  0.00  0.00    +0.002 A 
ATOM     21  C   UNL     1       3.038  11.131   7.568  0.00  0.00    -0.061 A 
ATOM     22  C   UNL     1       1.799  11.742   7.620  0.00  0.00    -0.049 A 
ATOM     23  C   UNL     1       0.928  11.452   8.653  0.00  0.00    +0.007 A 
ATOM     24  C   UNL     1       1.396  12.721   6.547  0.00  0.00    +0.044 C 
ENDBRANCH  16  21
ENDBRANCH  14  16
ENDBRANCH   1  11
BRANCH   1  25
ATOM     25  C   UNL     1       3.732   9.108   0.304  0.00  0.00    +0.074 A 
ATOM     26  C   UNL     1       3.238   8.714  -0.926  0.00  0.00    +0.026 A 
ATOM     27  C   UNL     1       3.839   9.191  -2.080  0.00  0.00    +0.003 A 
ATOM     28  C   UNL     1       4.920  10.050  -1.954  0.00  0.00    +0.020 A 
ATOM     29  C   UNL     1       5.359  10.400  -0.692  0.00  0.00    +0.111 A 
ATOM     30  N   UNL     1       4.759   9.931   0.385  0.00  0.00    -0.257 NA
ENDBRANCH   1  25
BRANCH   4  31
ATOM     31  C   UNL     1       1.473   5.253   1.698  0.00  0.00    +0.123 C 
BRANCH  31  32
ATOM     32  C   UNL     1       1.330   4.707   0.276  0.00  0.00    +0.062 C 
BRANCH  32  33
ATOM     33  C   UNL     1       0.917   3.258   0.334  0.00  0.00    -0.009 A 
ATOM     34  C   UNL     1      -0.330   2.727   0.357  0.00  0.00    +0.011 A 
ATOM     35  C   UNL     1      -0.472   1.353   0.405  0.00  0.00    +0.008 A 
ATOM     36  C   UNL     1       0.640   0.578   0.438  0.00  0.00    +0.045 A 
ATOM     37  S   UNL     1       1.942   1.798   0.387  0.00  0.00    -0.102 S 
ENDBRANCH  32  33
ENDBRANCH  31  32
ENDBRANCH   4  31
TORSDOF 7
