REMARK  Name = ZINC03641287
REMARK  4 active torsions:
REMARK  status: ('A' for Active; 'I' for Inactive)
REMARK    1  A    between atoms: C_3  and  C_8
REMARK    2  A    between atoms: N_10  and  C_11
REMARK    3  A    between atoms: C_11  and  C_31
REMARK    4  A    between atoms: N_19  and  C_24
REMARK                            x       y       z     vdW  Elec       q    Type
REMARK                         _______ _______ _______ _____ _____    ______ ____
ROOT
ATOM      1  C   UNL     1       0.202   5.505   0.190  0.00  0.00    +0.240 C 
ATOM      2  C   UNL     1      -0.048   4.018   0.278  0.00  0.00    +0.097 A 
ATOM      3  C   UNL     1      -1.197   3.229   0.141  0.00  0.00    +0.262 A 
ATOM      4  O   UNL     1      -2.274   3.747  -0.099  0.00  0.00    -0.267 OA
ATOM      5  N   UNL     1      -1.099   1.889   0.274  0.00  0.00    -0.274 N 
ATOM      6  H   UNL     1      -1.912   1.317   0.170  0.00  0.00    +0.173 HD
ATOM      7  C   UNL     1       0.091   1.322   0.544  0.00  0.00    +0.335 A 
ATOM      8  O   UNL     1       0.161   0.115   0.665  0.00  0.00    -0.246 OA
ATOM      9  N   UNL     1       1.205   2.062   0.678  0.00  0.00    -0.249 N 
ATOM     10  C   UNL     1       1.155   3.436   0.547  0.00  0.00    +0.125 A 
ATOM     11  N   UNL     1       2.148   4.381   0.641  0.00  0.00    -0.269 N 
ATOM     12  C   UNL     1       1.690   5.630   0.447  0.00  0.00    +0.256 C 
ATOM     13  O   UNL     1       2.339   6.654   0.472  0.00  0.00    -0.272 OA
ATOM     14  H   UNL     1       3.077   4.170   0.827  0.00  0.00    +0.156 HD
ENDROOT
BRANCH   9  15
ATOM     15  C   UNL     1       2.427   1.434   0.955  0.00  0.00    +0.053 A 
ATOM     16  C   UNL     1       2.616   0.784   2.167  0.00  0.00    +0.028 A 
ATOM     17  C   UNL     1       3.819   0.161   2.434  0.00  0.00    +0.022 A 
ATOM     18  C   UNL     1       4.840   0.194   1.500  0.00  0.00    +0.041 A 
ATOM     19  C   UNL     1       4.655   0.846   0.294  0.00  0.00    +0.022 A 
ATOM     20  C   UNL     1       3.452   1.466   0.019  0.00  0.00    +0.028 A 
ATOM     21 CL   UNL     1       6.354  -0.583   1.843  0.00  0.00    -0.084 Cl
ENDBRANCH   9  15
BRANCH   1  24
ATOM     22  C   UNL     1      -0.290   6.012   2.522  0.00  0.00    +0.245 C 
ATOM     23  O   UNL     1       0.518   5.165   2.849  0.00  0.00    -0.270 OA
ATOM     24  N   UNL     1      -0.561   6.218   1.218  0.00  0.00    -0.287 N 
ATOM     25  H   UNL     1      -1.261   6.837   0.960  0.00  0.00    +0.151 HD
BRANCH  22  28
ATOM     26  C   UNL     1      -1.338   7.363   5.866  0.00  0.00    +0.002 A 
ATOM     27  C   UNL     1      -0.696   6.608   4.907  0.00  0.00    +0.013 A 
ATOM     28  C   UNL     1      -0.975   6.818   3.555  0.00  0.00    +0.038 A 
ATOM     29  C   UNL     1      -1.899   7.796   3.183  0.00  0.00    +0.033 A 
ATOM     30  C   UNL     1      -2.538   8.541   4.154  0.00  0.00    +0.042 A 
ATOM     31  C   UNL     1      -2.256   8.327   5.492  0.00  0.00    +0.020 A 
ATOM     32 CL   UNL     1      -3.693   9.753   3.694  0.00  0.00    -0.084 Cl
ENDBRANCH  22  28
ENDBRANCH   1  24
BRANCH   1  33
ATOM     33  C   UNL     1      -0.151   6.028  -1.204  0.00  0.00    +0.424 C 
ATOM     34  F   UNL     1      -1.525   5.886  -1.422  0.00  0.00    -0.167 F 
ATOM     35  F   UNL     1       0.199   7.380  -1.297  0.00  0.00    -0.167 F 
ATOM     36  F   UNL     1       0.552   5.297  -2.168  0.00  0.00    -0.167 F 
ENDBRANCH   1  33
TORSDOF 4
