REMARK  Name = ZINC64648347
REMARK  9 active torsions:
REMARK  status: ('A' for Active; 'I' for Inactive)
REMARK    1  A    between atoms: C_1  and  C_2
REMARK    2  A    between atoms: C_7  and  C_12
REMARK    3  A    between atoms: C_12  and  N_13
REMARK    4  A    between atoms: C_14  and  C_16
REMARK    5  A    between atoms: C_16  and  N_17
REMARK    6  A    between atoms: N_17  and  C_18
REMARK    7  A    between atoms: N_17  and  S_19
REMARK    8  A    between atoms: S_19  and  C_22
REMARK    9  A    between atoms: C_27  and  C_28
REMARK                            x       y       z     vdW  Elec       q    Type
REMARK                         _______ _______ _______ _____ _____    ______ ____
ROOT
ATOM      1  C   UNL     1       5.320  -3.689   1.595  0.00  0.00    +0.204 C 
ENDROOT
BRANCH   1   3
ATOM      2  N   UNL     1       2.900  -4.159   1.394  0.00  0.00    -0.310 N 
ATOM      3  C   UNL     1       4.133  -4.612   1.696  0.00  0.00    +0.229 C 
ATOM      4  O   UNL     1       4.287  -5.762   2.049  0.00  0.00    -0.274 OA
ATOM      5  H   UNL     1       2.776  -3.239   1.112  0.00  0.00    +0.149 HD
BRANCH   2   6
ATOM      6  C   UNL     1       1.745  -5.056   1.492  0.00  0.00    +0.151 C 
BRANCH   6  13
ATOM      7  C   UNL     1       0.101   1.718   0.803  0.00  0.00    +0.044 C 
ATOM      8  C   UNL     1       0.239   0.252   0.487  0.00  0.00    -0.048 A 
ATOM      9  C   UNL     1       0.425  -0.136  -0.852  0.00  0.00    +0.005 A 
ATOM     10  C   UNL     1       0.557  -1.425  -1.224  0.00  0.00    +0.027 A 
ATOM     11  C   UNL     1       0.508  -2.482  -0.205  0.00  0.00    +0.060 A 
ATOM     12  N   UNL     1       0.604  -3.779  -0.269  0.00  0.00    -0.362 N 
ATOM     13  C   UNL     1       0.476  -4.299   1.098  0.00  0.00    +0.191 C 
ATOM     14  N   UNL     1       0.293  -3.131   1.969  0.00  0.00    -0.362 N 
ATOM     15  C   UNL     1       0.311  -2.072   1.212  0.00  0.00    +0.060 A 
ATOM     16  C   UNL     1       0.184  -0.637   1.500  0.00  0.00    +0.030 A 
ATOM     17  H   UNL     1       0.735  -4.305  -1.073  0.00  0.00    +0.162 HD
ATOM     18  H   UNL     1       0.179  -3.146   2.933  0.00  0.00    +0.162 HD
ENDBRANCH   6  13
ENDBRANCH   2   6
ENDBRANCH   1   3
BRANCH   1  19
ATOM     19  N   UNL     1       6.514  -4.374   2.096  0.00  0.00    -0.171 NA
ATOM     20  C   UNL     1       7.270  -5.267   1.214  0.00  0.00    +0.132 C 
BRANCH  19  21
ATOM     21  S   UNL     1       7.010  -4.138   3.658  0.00  0.00    +0.061 S 
ATOM     22  O   UNL     1       8.350  -4.606   3.734  0.00  0.00    -0.153 OA
ATOM     23  O   UNL     1       6.647  -2.808   4.003  0.00  0.00    -0.153 OA
BRANCH  21  24
ATOM     24  C   UNL     1       6.046  -5.204   4.677  0.00  0.00    +0.112 A 
ATOM     25  C   UNL     1       4.841  -4.760   5.193  0.00  0.00    +0.076 A 
ATOM     26  C   UNL     1       4.084  -5.596   5.993  0.00  0.00    +0.144 A 
ATOM     27  C   UNL     1       4.537  -6.884   6.277  0.00  0.00    +0.076 A 
ATOM     28  C   UNL     1       5.743  -7.323   5.757  0.00  0.00    +0.032 A 
ATOM     29  C   UNL     1       6.493  -6.482   4.954  0.00  0.00    -0.022 A 
ATOM     30  C   UNL     1       7.803  -6.960   4.382  0.00  0.00    +0.046 C 
ATOM     31  N   UNL     1       3.760  -7.721   7.090  0.00  0.00    -0.280 N 
ATOM     32  C   UNL     1       2.469  -7.396   7.320  0.00  0.00    +0.255 C 
ATOM     33  O   UNL     1       1.787  -8.088   8.045  0.00  0.00    -0.272 OA
ATOM     34  C   UNL     1       1.880  -6.169   6.671  0.00  0.00    +0.325 C 
ATOM     35  O   UNL     1       2.897  -5.177   6.508  0.00  0.00    -0.481 OA
ATOM     36  H   UNL     1       4.144  -8.521   7.482  0.00  0.00    +0.155 HD
ENDBRANCH  21  24
ENDBRANCH  19  21
ENDBRANCH   1  19
TORSDOF 6
