REMARK  Name = ZINC04288501
REMARK  5 active torsions:
REMARK  status: ('A' for Active; 'I' for Inactive)
REMARK    1  A    between atoms: C_2  and  C_9
REMARK    2  A    between atoms: N_11  and  S_12
REMARK    3  A    between atoms: S_12  and  C_15
REMARK    4  A    between atoms: C_17  and  C_25
REMARK    5  A    between atoms: C_19  and  C_21
REMARK                            x       y       z     vdW  Elec       q    Type
REMARK                         _______ _______ _______ _____ _____    ______ ____
ROOT
ATOM      1  S   UNL     1       2.778   6.823  -0.041  0.00  0.00    +0.073 S 
ATOM      2  O   UNL     1       2.015   8.011   0.121  0.00  0.00    -0.150 OA
ATOM      3  O   UNL     1       3.860   6.490   0.818  0.00  0.00    -0.150 OA
ENDROOT
BRANCH   1   6
ATOM      4  C   UNL     1       2.162   4.267  -0.107  0.00  0.00    +0.117 C 
ATOM      5  H   UNL     1       4.146   4.699  -0.239  0.00  0.00    +0.157 HD
ATOM      6  N   UNL     1       1.710   5.561   0.033  0.00  0.00    -0.201 N 
ATOM      7  H   UNL     1       0.765   5.732   0.174  0.00  0.00    +0.175 HD
ATOM      8  N   UNL     1       3.446   3.959  -0.193  0.00  0.00    -0.385 N 
ATOM      9  H   UNL     1       3.737   2.975  -0.214  0.00  0.00    +0.157 HD
BRANCH   4  11
ATOM     10  C   UNL     1       1.632   1.825  -0.301  0.00  0.00    +0.051 A 
ATOM     11  C   UNL     1       1.194   3.145  -0.160  0.00  0.00    +0.019 A 
ATOM     12  C   UNL     1      -0.181   3.378  -0.070  0.00  0.00    +0.051 A 
ATOM     13  C   UNL     1      -1.049   2.304  -0.123  0.00  0.00    +0.132 A 
ATOM     14  N   UNL     1      -0.595   1.073  -0.263  0.00  0.00    -0.224 NA
ATOM     15  C   UNL     1       0.696   0.809  -0.346  0.00  0.00    +0.132 A 
ATOM     16 CL   UNL     1       1.224  -0.835  -0.521  0.00  0.00    -0.062 Cl
ATOM     17 CL   UNL     1      -2.759   2.578  -0.012  0.00  0.00    -0.062 Cl
ENDBRANCH   4  11
ENDBRANCH   1   6
BRANCH   1  18
ATOM     18  C   UNL     1       3.428   6.862  -1.678  0.00  0.00    +0.110 A 
ATOM     19  C   UNL     1       4.645   6.266  -1.953  0.00  0.00    +0.041 A 
ATOM     20  C   UNL     1       5.152   6.292  -3.239  0.00  0.00    +0.057 A 
ATOM     21  C   UNL     1       4.448   6.921  -4.247  0.00  0.00    +0.024 A 
ATOM     22  C   UNL     1       3.234   7.522  -3.971  0.00  0.00    +0.057 A 
ATOM     23  C   UNL     1       2.724   7.492  -2.687  0.00  0.00    +0.041 A 
BRANCH  22  24
ATOM     24  C   UNL     1       2.465   8.209  -5.071  0.00  0.00    +0.417 C 
ATOM     25  F   UNL     1       2.849   9.552  -5.139  0.00  0.00    -0.166 F 
ATOM     26  F   UNL     1       2.740   7.583  -6.292  0.00  0.00    -0.166 F 
ATOM     27  F   UNL     1       1.095   8.127  -4.803  0.00  0.00    -0.166 F 
ENDBRANCH  22  24
BRANCH  20  28
ATOM     28  C   UNL     1       6.476   5.637  -3.539  0.00  0.00    +0.417 C 
ATOM     29  F   UNL     1       6.778   5.797  -4.896  0.00  0.00    -0.166 F 
ATOM     30  F   UNL     1       7.478   6.232  -2.765  0.00  0.00    -0.166 F 
ATOM     31  F   UNL     1       6.401   4.273  -3.236  0.00  0.00    -0.166 F 
ENDBRANCH  20  28
ENDBRANCH   1  18
TORSDOF 5
