REMARK  Name = ZINC08990552
REMARK  9 active torsions:
REMARK  status: ('A' for Active; 'I' for Inactive)
REMARK    1  A    between atoms: C_1  and  C_2
REMARK    2  A    between atoms: C_5  and  S_8
REMARK    3  A    between atoms: S_8  and  N_11
REMARK    4  A    between atoms: C_20  and  C_22
REMARK    5  A    between atoms: N_24  and  C_25
REMARK    6  A    between atoms: C_27  and  C_32
REMARK    7  A    between atoms: C_27  and  C_33
REMARK    8  A    between atoms: C_28  and  C_30
REMARK    9  A    between atoms: C_28  and  C_31
REMARK                            x       y       z     vdW  Elec       q    Type
REMARK                         _______ _______ _______ _____ _____    ______ ____
ROOT
ATOM      1  N   UNL     1      -1.629  -4.723  -0.016  0.00  0.00    -0.160 NA
ATOM      2  C   UNL     1      -2.306  -5.024   1.249  0.00  0.00    +0.145 C 
ATOM      3  C   UNL     1      -3.779  -4.704   1.121  0.00  0.00    -0.028 A 
ATOM      4  C   UNL     1      -4.543  -4.699   2.279  0.00  0.00    +0.005 A 
ATOM      5  C   UNL     1      -5.896  -4.432   2.225  0.00  0.00    +0.000 A 
ATOM      6  C   UNL     1      -6.493  -4.166   1.007  0.00  0.00    +0.000 A 
ATOM      7  C   UNL     1      -5.734  -4.165  -0.144  0.00  0.00    +0.004 A 
ATOM      8  C   UNL     1      -4.371  -4.432  -0.092  0.00  0.00    -0.041 A 
ATOM      9  C   UNL     1      -3.604  -4.405  -1.388  0.00  0.00    +0.065 C 
ATOM     10  C   UNL     1      -2.286  -5.167  -1.257  0.00  0.00    +0.170 C 
ENDROOT
BRANCH  10  11
ATOM     11  C   UNL     1      -1.402  -4.864  -2.439  0.00  0.00    +0.232 C 
ATOM     12  O   UNL     1      -1.239  -3.717  -2.796  0.00  0.00    -0.274 OA
ATOM     13  N   UNL     1      -0.793  -5.869  -3.099  0.00  0.00    -0.311 N 
ATOM     14  H   UNL     1      -0.923  -6.787  -2.813  0.00  0.00    +0.149 HD
BRANCH  13  15
ATOM     15  C   UNL     1       0.069  -5.574  -4.251  0.00  0.00    +0.070 C 
ATOM     16  C   UNL     1      -0.787  -5.505  -5.516  0.00  0.00    +0.009 C 
ATOM     17  C   UNL     1       0.085  -5.233  -6.738  0.00  0.00    -0.072 C 
ATOM     18  C   UNL     1       1.994  -6.413  -5.614  0.00  0.00    -0.072 C 
ATOM     19  C   UNL     1       1.085  -6.705  -4.420  0.00  0.00    +0.009 C 
ATOM     20  C   UNL     1       2.975  -5.293  -5.255  0.00  0.00    -0.010 C 
ATOM     21  C   UNL     1       2.826  -7.685  -5.887  0.00  0.00    -0.010 C 
ATOM     22  C   UNL     1       0.492  -3.755  -6.759  0.00  0.00    -0.010 C 
ATOM     23  C   UNL     1      -0.783  -5.483  -7.992  0.00  0.00    -0.010 C 
ATOM     24  N   UNL     1       1.266  -6.125  -6.880  0.00  0.00    +0.386 N 
ATOM     25  H   UNL     1       1.924  -5.682  -7.532  0.00  0.00    -0.084 HD
ATOM     26  H   UNL     1       0.945  -7.018  -7.273  0.00  0.00    -0.084 HD
ENDBRANCH  13  15
ENDBRANCH  10  11
BRANCH   1  27
ATOM     27  S   UNL     1      -0.180  -3.922  -0.049  0.00  0.00    +0.062 S 
ATOM     28  O   UNL     1       0.398  -4.178  -1.321  0.00  0.00    -0.153 OA
ATOM     29  O   UNL     1       0.485  -4.236   1.167  0.00  0.00    -0.153 OA
BRANCH  27  34
ATOM     30  C   UNL     1      -1.401   1.984   0.130  0.00  0.00    +0.044 C 
ATOM     31  C   UNL     1      -1.096   0.509   0.086  0.00  0.00    -0.050 A 
ATOM     32  C   UNL     1      -1.003  -0.141  -1.131  0.00  0.00    +0.005 A 
ATOM     33  C   UNL     1      -0.719  -1.493  -1.172  0.00  0.00    +0.029 A 
ATOM     34  C   UNL     1      -0.536  -2.197   0.004  0.00  0.00    +0.106 A 
ATOM     35  C   UNL     1      -0.634  -1.548   1.220  0.00  0.00    +0.029 A 
ATOM     36  C   UNL     1      -0.914  -0.195   1.261  0.00  0.00    +0.005 A 
ENDBRANCH  27  34
ENDBRANCH   1  27
TORSDOF 4
