REMARK  Name = ZINC07504133
REMARK  3 active torsions:
REMARK  status: ('A' for Active; 'I' for Inactive)
REMARK    1  A    between atoms: C_1  and  C_2
REMARK    2  A    between atoms: C_2  and  C_3
REMARK    3  A    between atoms: N_16  and  C_17
REMARK                            x       y       z     vdW  Elec       q    Type
REMARK                         _______ _______ _______ _____ _____    ______ ____
ROOT
ATOM      1  C   UNL     1      -0.718   1.572   1.248  0.00  0.00    +0.138 A 
ATOM      2  N   UNL     1      -1.739   0.996   1.834  0.00  0.00    -0.134 NA
ATOM      3  N   UNL     1      -2.095   1.674   2.870  0.00  0.00    -0.126 NA
ATOM      4  C   UNL     1      -1.311   2.724   2.995  0.00  0.00    +0.202 A 
ATOM      5  N   UNL     1      -0.410   2.674   1.959  0.00  0.00    -0.275 N 
ATOM      6  C   UNL     1       0.541   3.673   1.841  0.00  0.00    +0.075 A 
ATOM      7  C   UNL     1       1.461   3.651   0.801  0.00  0.00    +0.028 A 
ATOM      8  C   UNL     1       2.408   4.648   0.695  0.00  0.00    +0.002 A 
ATOM      9  C   UNL     1       2.450   5.678   1.623  0.00  0.00    +0.002 A 
ATOM     10  C   UNL     1       1.548   5.718   2.661  0.00  0.00    +0.030 A 
ATOM     11  C   UNL     1       0.579   4.714   2.785  0.00  0.00    +0.090 A 
ATOM     12  N   UNL     1      -0.311   4.755   3.809  0.00  0.00    -0.227 NA
ATOM     13  C   UNL     1      -1.232   3.829   3.953  0.00  0.00    +0.165 A 
ATOM     14  N   UNL     1      -2.124   3.897   5.006  0.00  0.00    -0.323 N 
ATOM     15  H   UNL     1      -2.804   3.213   5.111  0.00  0.00    +0.148 HD
ENDROOT
BRANCH  14  16
ATOM     16  C   UNL     1      -2.044   5.003   5.963  0.00  0.00    +0.072 C 
ATOM     17  C   UNL     1      -0.981   4.665   7.029  0.00  0.00    +0.022 C 
ATOM     18  C   UNL     1      -0.533   5.947   7.680  0.00  0.00    +0.002 C 
ATOM     19  C   UNL     1      -1.314   6.254   8.971  0.00  0.00    +0.000 C 
ATOM     20  C   UNL     1      -2.822   5.964   8.841  0.00  0.00    +0.000 C 
ATOM     21  C   UNL     1      -3.383   6.415   7.520  0.00  0.00    +0.002 C 
ATOM     22  C   UNL     1      -3.360   5.220   6.545  0.00  0.00    +0.022 C 
ENDBRANCH  14  16
BRANCH   1  24
ATOM     23  C   UNL     1      -0.568   1.818  -1.215  0.00  0.00    +0.012 C 
ATOM     24  C   UNL     1      -0.013   1.086   0.008  0.00  0.00    +0.073 C 
ENDBRANCH   1  24
TORSDOF 2
