REMARK  Name = ZINC29937133
REMARK  8 active torsions:
REMARK  status: ('A' for Active; 'I' for Inactive)
REMARK    1  A    between atoms: C_1  and  C_2
REMARK    2  A    between atoms: C_8  and  N_10
REMARK    3  A    between atoms: C_11  and  C_13
REMARK    4  A    between atoms: C_13  and  N_14
REMARK    5  A    between atoms: N_14  and  C_15
REMARK    6  A    between atoms: C_18  and  C_21
REMARK    7  A    between atoms: C_21  and  C_22
REMARK    8  A    between atoms: N_24  and  C_25
REMARK                            x       y       z     vdW  Elec       q    Type
REMARK                         _______ _______ _______ _____ _____    ______ ____
ROOT
ATOM      1  N   UNL     1       0.870   0.699  -5.961  0.00  0.00    -0.335 N 
ATOM      2  H   UNL     1       1.922   0.406  -5.827  0.00  0.00    +0.147 HD
ENDROOT
BRANCH   1   3
ATOM      3  C   UNL     1       0.421   1.137  -7.209  0.00  0.00    +0.028 A 
ATOM      4  C   UNL     1      -0.908   1.502  -7.382  0.00  0.00    +0.023 A 
ATOM      5  C   UNL     1      -1.347   1.939  -8.617  0.00  0.00    +0.006 A 
ATOM      6  C   UNL     1      -0.468   2.003  -9.682  0.00  0.00    -0.039 A 
ATOM      7  C   UNL     1       0.855   1.635  -9.515  0.00  0.00    +0.006 A 
ATOM      8  C   UNL     1       1.302   1.202  -8.282  0.00  0.00    +0.023 A 
BRANCH   6   9
ATOM      9  C   UNL     1      -0.952   2.474 -11.029  0.00  0.00    +0.130 C 
BRANCH   9  10
ATOM     10  C   UNL     1      -1.442   1.294 -11.828  0.00  0.00    +0.217 C 
ATOM     11  O   UNL     1      -1.401   0.179 -11.351  0.00  0.00    -0.275 OA
ATOM     12  N   UNL     1      -1.924   1.476 -13.073  0.00  0.00    -0.318 N 
ATOM     13  C   UNL     1      -2.400   0.329 -13.850  0.00  0.00    +0.128 C 
ATOM     14  H   UNL     1      -1.961   2.487 -13.506  0.00  0.00    +0.148 HD
ENDBRANCH   9  10
ENDBRANCH   6   9
ENDBRANCH   1   3
BRANCH   1  15
ATOM     15  C   UNL     1      -0.060   0.631  -4.831  0.00  0.00    +0.197 C 
BRANCH  15  17
ATOM     16  N   UNL     1       0.010  -0.012  -2.444  0.00  0.00    -0.311 N 
ATOM     17  C   UNL     1       0.669   0.132  -3.610  0.00  0.00    +0.230 C 
ATOM     18  O   UNL     1       1.849  -0.140  -3.677  0.00  0.00    -0.274 OA
ATOM     19  H   UNL     1      -1.060   0.235  -2.383  0.00  0.00    +0.149 HD
BRANCH  16  26
ATOM     20  C   UNL     1      -0.019   1.526   0.010  0.00  0.00    +0.009 C 
ATOM     21  C   UNL     1       0.002  -0.004   0.002  0.00  0.00    +0.006 C 
ATOM     22  C   UNL     1       0.742  -0.511   1.242  0.00  0.00    +0.005 C 
ATOM     23  C   UNL     1       0.763  -2.041   1.233  0.00  0.00    +0.000 C 
ATOM     24  C   UNL     1       1.479  -2.534  -0.026  0.00  0.00    +0.002 C 
ATOM     25  C   UNL     1       0.739  -2.027  -1.265  0.00  0.00    +0.022 C 
ATOM     26  C   UNL     1       0.718  -0.497  -1.257  0.00  0.00    +0.076 C 
ENDBRANCH  16  26
ENDBRANCH  15  17
ENDBRANCH   1  15
TORSDOF 6
