REMARK  Name = ZINC10708232
REMARK  14 active torsions:
REMARK  status: ('A' for Active; 'I' for Inactive)
REMARK    1  A    between atoms: C_1  and  C_2
REMARK    2  A    between atoms: C_2  and  C_3
REMARK    3  A    between atoms: C_2  and  C_4
REMARK    4  A    between atoms: C_4  and  N_5
REMARK    5  A    between atoms: C_6  and  N_32
REMARK    6  A    between atoms: C_7  and  N_14
REMARK    7  A    between atoms: N_14  and  C_15
REMARK    8  A    between atoms: C_15  and  C_16
REMARK    9  A    between atoms: C_16  and  C_17
REMARK   10  A    between atoms: C_16  and  C_18
REMARK   11  A    between atoms: C_19  and  C_21
REMARK   12  A    between atoms: C_21  and  N_22
REMARK   13  A    between atoms: N_22  and  C_23
REMARK   14  A    between atoms: C_24  and  C_26
REMARK                            x       y       z     vdW  Elec       q    Type
REMARK                         _______ _______ _______ _____ _____    ______ ____
ROOT
ATOM      1  N   UNL     1       1.006   2.074   0.001  0.00  0.00    -0.263 N 
ATOM      2  C   UNL     1      -0.131   1.363  -0.147  0.00  0.00    +0.237 C 
ATOM      3  O   UNL     1      -0.077   0.194  -0.468  0.00  0.00    -0.274 OA
ENDROOT
BRANCH   1   6
ATOM      4  N   UNL     1       4.337   0.757   0.819  0.00  0.00    -0.280 N 
ATOM      5  C   UNL     1       3.123   1.388   0.961  0.00  0.00    +0.127 A 
ATOM      6  C   UNL     1       2.258   1.435  -0.113  0.00  0.00    +0.140 A 
ATOM      7  C   UNL     1       2.645   0.830  -1.323  0.00  0.00    +0.277 A 
ATOM      8  O   UNL     1       1.899   0.853  -2.287  0.00  0.00    -0.266 OA
ATOM      9  N   UNL     1       3.848   0.230  -1.412  0.00  0.00    -0.273 N 
ATOM     10  H   UNL     1       4.128  -0.194  -2.274  0.00  0.00    +0.173 HD
ATOM     11  C   UNL     1       4.678   0.193  -0.353  0.00  0.00    +0.331 A 
ATOM     12  O   UNL     1       5.755  -0.360  -0.459  0.00  0.00    -0.246 OA
BRANCH   5  13
ATOM     13  N   UNL     1       2.775   1.964   2.159  0.00  0.00    -0.343 N 
ATOM     14  H   UNL     1       1.884   2.329   2.282  0.00  0.00    +0.144 HD
ATOM     15  H   UNL     1       3.420   2.008   2.882  0.00  0.00    +0.144 HD
ENDBRANCH   5  13
BRANCH   4  16
ATOM     16  C   UNL     1       5.264   0.699   1.952  0.00  0.00    +0.131 C 
BRANCH  16  18
ATOM     17  C   UNL     1       6.037  -0.690   3.879  0.00  0.00    +0.009 C 
ATOM     18  C   UNL     1       4.991  -0.565   2.771  0.00  0.00    +0.003 C 
ATOM     19  C   UNL     1       3.596  -0.477   3.393  0.00  0.00    +0.009 C 
ENDBRANCH  16  18
ENDBRANCH   4  16
ENDBRANCH   1   6
BRANCH   1  20
ATOM     20  C   UNL     1       0.939   3.511   0.281  0.00  0.00    +0.117 C 
BRANCH  20  21
ATOM     21  C   UNL     1       0.952   4.288  -1.036  0.00  0.00    +0.001 C 
ATOM     22  C   UNL     1       0.711   5.773  -0.755  0.00  0.00    +0.009 C 
ATOM     23  C   UNL     1       2.309   4.113  -1.719  0.00  0.00    +0.009 C 
ENDBRANCH  20  21
ENDBRANCH   1  20
BRANCH   2  24
ATOM     24  C   UNL     1      -1.468   2.021   0.079  0.00  0.00    +0.204 C 
BRANCH  24  25
ATOM     25  N   UNL     1      -2.531   1.021  -0.039  0.00  0.00    -0.289 N 
ATOM     26  C   UNL     1      -2.973   0.278   1.144  0.00  0.00    +0.133 C 
ATOM     27  C   UNL     1      -3.104   0.784  -1.236  0.00  0.00    +0.282 C 
ATOM     28  O   UNL     1      -2.674   1.330  -2.235  0.00  0.00    -0.267 OA
BRANCH  27  29
ATOM     29  C   UNL     1      -4.245  -0.131  -1.335  0.00  0.00    +0.191 A 
ATOM     30  C   UNL     1      -4.844  -0.545  -2.490  0.00  0.00    +0.056 A 
ATOM     31  C   UNL     1      -5.883  -1.410  -2.119  0.00  0.00    +0.058 A 
ATOM     32  C   UNL     1      -5.880  -1.480  -0.767  0.00  0.00    +0.171 A 
ATOM     33  O   UNL     1      -4.891  -0.707  -0.299  0.00  0.00    -0.444 OA
ATOM     34 BR   UNL     1      -7.074  -2.500   0.286  0.00  0.00    -0.008 Br
ENDBRANCH  27  29
ENDBRANCH  24  25
ENDBRANCH   2  24
TORSDOF 9
