REMARK  Name = ZINC01011004
REMARK  3 active torsions:
REMARK  status: ('A' for Active; 'I' for Inactive)
REMARK    1  A    between atoms: C_12  and  C_14
REMARK    2  A    between atoms: N_16  and  N_17
REMARK    3  A    between atoms: C_18  and  C_19
REMARK                            x       y       z     vdW  Elec       q    Type
REMARK                         _______ _______ _______ _____ _____    ______ ____
ROOT
ATOM      1  C   UNL     1       1.446   7.795   0.029  0.00  0.00    +0.299 C 
ATOM      2  O   UNL     1       0.238   7.951   0.041  0.00  0.00    -0.265 OA
ATOM      3  N   UNL     1       1.965   6.551   0.018  0.00  0.00    -0.200 N 
ATOM      4  H   UNL     1       2.927   6.427   0.008  0.00  0.00    +0.178 HD
ENDROOT
BRANCH   1  16
ATOM      5  C   UNL     1       3.922  15.204   0.043  0.00  0.00    +0.001 A 
ATOM      6  C   UNL     1       2.604  14.758   0.053  0.00  0.00    +0.001 A 
ATOM      7  C   UNL     1       2.316  13.425   0.049  0.00  0.00    +0.009 A 
ATOM      8  C   UNL     1       3.356  12.491   0.035  0.00  0.00    -0.007 A 
ATOM      9  C   UNL     1       4.699  12.941   0.025  0.00  0.00    -0.017 A 
ATOM     10  C   UNL     1       4.960  14.320   0.029  0.00  0.00    +0.008 A 
ATOM     11  C   UNL     1       5.747  11.999   0.010  0.00  0.00    +0.012 A 
ATOM     12  C   UNL     1       5.493  10.667   0.006  0.00  0.00    +0.047 A 
ATOM     13  C   UNL     1       4.186  10.168   0.016  0.00  0.00    +0.136 A 
ATOM     14  C   UNL     1       3.100  11.053   0.031  0.00  0.00    +0.029 A 
ATOM     15  C   UNL     1       1.932  10.262   0.037  0.00  0.00    +0.063 A 
ATOM     16  C   UNL     1       2.336   8.962   0.027  0.00  0.00    +0.192 A 
ATOM     17  O   UNL     1       3.685   8.915   0.020  0.00  0.00    -0.450 OA
ENDBRANCH   1  16
BRANCH   3  18
ATOM     18  N   UNL     1       1.115   5.437   0.020  0.00  0.00    -0.187 NA
ATOM     19  C   UNL     1       1.616   4.238   0.009  0.00  0.00    +0.140 C 
BRANCH  19  20
ATOM     20  C   UNL     1       0.723   3.068   0.011  0.00  0.00    +0.020 A 
ATOM     21  C   UNL     1       1.097   1.760   0.001  0.00  0.00    +0.093 A 
ATOM     22  N   UNL     1      -0.011   0.966   0.007  0.00  0.00    -0.360 N 
ATOM     23  H   UNL     1       0.002  -0.004   0.002  0.00  0.00    +0.165 HD
ATOM     24  C   UNL     1      -1.153   1.739   0.016  0.00  0.00    +0.047 A 
ATOM     25  C   UNL     1      -0.751   3.085   0.024  0.00  0.00    +0.008 A 
ATOM     26  C   UNL     1      -1.706   4.098   0.038  0.00  0.00    +0.010 A 
ATOM     27  C   UNL     1      -3.045   3.774   0.048  0.00  0.00    +0.001 A 
ATOM     28  C   UNL     1      -3.443   2.445   0.045  0.00  0.00    +0.002 A 
ATOM     29  C   UNL     1      -2.510   1.432   0.032  0.00  0.00    +0.026 A 
ENDBRANCH  19  20
ENDBRANCH   3  18
TORSDOF 3
