REMARK  Name = ZINC39655837
REMARK  6 active torsions:
REMARK  status: ('A' for Active; 'I' for Inactive)
REMARK    1  A    between atoms: C_1  and  C_2
REMARK    2  A    between atoms: C_8  and  C_11
REMARK    3  A    between atoms: C_11  and  C_12
REMARK    4  A    between atoms: C_12  and  N_13
REMARK    5  A    between atoms: C_14  and  C_16
REMARK    6  A    between atoms: C_27  and  C_29
REMARK                            x       y       z     vdW  Elec       q    Type
REMARK                         _______ _______ _______ _____ _____    ______ ____
ROOT
ATOM      1  C   UNL     1       5.211   0.101  -7.685  0.00  0.00    +0.100 C 
ATOM      2  C   UNL     1       5.981   0.450  -6.391  0.00  0.00    +0.121 C 
ATOM      3  N   UNL     1       6.353  -0.863  -5.812  0.00  0.00    -0.296 N 
ATOM      4  C   UNL     1       6.726  -1.691  -6.984  0.00  0.00    +0.115 C 
ATOM      5  C   UNL     1       5.705  -1.303  -8.073  0.00  0.00    -0.004 C 
ATOM      6  C   UNL     1       6.380  -1.266  -9.441  0.00  0.00    -0.010 C 
ATOM      7  C   UNL     1       6.811  -2.683  -9.830  0.00  0.00    -0.082 C 
ATOM      8  N   UNL     1       5.635  -3.562  -9.865  0.00  0.00    +0.379 N 
ATOM      9  C   UNL     1       5.047  -3.665  -8.524  0.00  0.00    -0.082 C 
ATOM     10  C   UNL     1       4.542  -2.290  -8.079  0.00  0.00    -0.010 C 
ATOM     11  C   UNL     1       6.354  -1.222  -4.513  0.00  0.00    +0.247 C 
ATOM     12  O   UNL     1       5.901  -0.468  -3.674  0.00  0.00    -0.270 OA
ATOM     13  H   UNL     1       4.952  -3.182 -10.503  0.00  0.00    -0.086 HD
ATOM     14  H   UNL     1       5.912  -4.479 -10.181  0.00  0.00    -0.086 HD
ENDROOT
BRANCH  11  15
ATOM     15  C   UNL     1       6.904  -2.532  -4.109  0.00  0.00    +0.037 A 
ATOM     16  C   UNL     1       7.815  -3.196  -4.951  0.00  0.00    +0.013 A 
ATOM     17  C   UNL     1       8.335  -4.400  -4.602  0.00  0.00    +0.009 A 
ATOM     18  C   UNL     1       7.963  -5.001  -3.385  0.00  0.00    -0.018 A 
ATOM     19  C   UNL     1       8.488  -6.247  -3.002  0.00  0.00    +0.008 A 
ATOM     20  C   UNL     1       8.110  -6.804  -1.819  0.00  0.00    +0.001 A 
ATOM     21  C   UNL     1       7.207  -6.157  -0.977  0.00  0.00    +0.001 A 
ATOM     22  C   UNL     1       6.678  -4.949  -1.313  0.00  0.00    +0.008 A 
ATOM     23  C   UNL     1       7.045  -4.342  -2.528  0.00  0.00    -0.017 A 
ATOM     24  C   UNL     1       6.524  -3.095  -2.902  0.00  0.00    +0.021 A 
ENDBRANCH  11  15
BRANCH   1  26
ATOM     25  N   UNL     1       2.861   0.283  -8.435  0.00  0.00    -0.315 N 
ATOM     26  C   UNL     1       3.727   0.081  -7.423  0.00  0.00    +0.218 C 
ATOM     27  O   UNL     1       3.312  -0.118  -6.300  0.00  0.00    -0.275 OA
ATOM     28  H   UNL     1       3.192   0.442  -9.333  0.00  0.00    +0.149 HD
BRANCH  25  29
ATOM     29  C   UNL     1       1.418   0.263  -8.180  0.00  0.00    +0.109 C 
BRANCH  29  30
ATOM     30  C   UNL     1       0.666   0.518  -9.488  0.00  0.00    +0.056 C 
BRANCH  30  38
ATOM     31  C   UNL     1      -2.083   5.205  -7.675  0.00  0.00    +0.044 C 
ATOM     32  C   UNL     1      -2.377   3.770  -8.025  0.00  0.00    -0.050 A 
ATOM     33  C   UNL     1      -3.676   3.289  -7.926  0.00  0.00    +0.005 A 
ATOM     34  C   UNL     1      -3.967   1.980  -8.240  0.00  0.00    +0.026 A 
ATOM     35  C   UNL     1      -2.951   1.129  -8.663  0.00  0.00    +0.047 A 
ATOM     36  N   UNL     1      -2.919  -0.195  -9.040  0.00  0.00    -0.360 N 
ATOM     37  C   UNL     1      -1.641  -0.553  -9.372  0.00  0.00    +0.087 A 
ATOM     38  C   UNL     1      -0.818   0.497  -9.226  0.00  0.00    -0.021 A 
ATOM     39  C   UNL     1      -1.637   1.621  -8.763  0.00  0.00    +0.003 A 
ATOM     40  C   UNL     1      -1.365   2.952  -8.444  0.00  0.00    +0.013 A 
ATOM     41  H   UNL     1      -3.688  -0.786  -9.066  0.00  0.00    +0.165 HD
ENDBRANCH  30  38
ENDBRANCH  29  30
ENDBRANCH  25  29
ENDBRANCH   1  26
TORSDOF 5
