REMARK  Name = ZINC41310695
REMARK  4 active torsions:
REMARK  status: ('A' for Active; 'I' for Inactive)
REMARK    1  A    between atoms: C_1  and  C_2
REMARK    2  A    between atoms: C_2  and  C_3
REMARK    3  A    between atoms: C_2  and  C_4
REMARK    4  A    between atoms: C_11  and  C_13
REMARK                            x       y       z     vdW  Elec       q    Type
REMARK                         _______ _______ _______ _____ _____    ______ ____
ROOT
ATOM      1  C   UNL     1      -6.297  -3.521  -1.899  0.00  0.00    +0.285 C 
ATOM      2  O   UNL     1      -6.161  -4.115  -2.952  0.00  0.00    -0.266 OA
ATOM      3  N   UNL     1      -7.476  -3.565  -1.248  0.00  0.00    -0.258 N 
ATOM      4  C   UNL     1      -8.536  -4.287  -1.780  0.00  0.00    +0.165 A 
ATOM      5  N   UNL     1      -8.572  -4.988  -2.893  0.00  0.00    -0.229 NA
ATOM      6  C   UNL     1      -9.666  -5.634  -3.282  0.00  0.00    +0.054 A 
ATOM      7  C   UNL     1     -10.730  -5.511  -2.446  0.00  0.00    +0.014 A 
ATOM      8  S   UNL     1     -10.088  -4.485  -1.154  0.00  0.00    -0.057 S 
ATOM      9  C   UNL     1     -12.087  -6.109  -2.604  0.00  0.00    +0.044 C 
ATOM     10  C   UNL     1     -12.229  -6.600  -4.054  0.00  0.00    +0.006 C 
ATOM     11  C   UNL     1     -10.978  -7.399  -4.430  0.00  0.00    +0.006 C 
ATOM     12  C   UNL     1      -9.774  -6.463  -4.554  0.00  0.00    +0.056 C 
ATOM     13  H   UNL     1      -7.585  -3.092  -0.409  0.00  0.00    +0.157 HD
ENDROOT
BRANCH   1  21
ATOM     14  C   UNL     1      -1.412  -0.526   0.013  0.00  0.00    -0.044 A 
ATOM     15  C   UNL     1      -2.259  -0.200   1.063  0.00  0.00    +0.007 A 
ATOM     16  C   UNL     1      -3.555  -0.666   1.093  0.00  0.00    +0.047 A 
ATOM     17  C   UNL     1      -4.025  -1.472   0.062  0.00  0.00    +0.136 A 
ATOM     18  C   UNL     1      -3.162  -1.799  -1.000  0.00  0.00    +0.021 A 
ATOM     19  C   UNL     1      -1.853  -1.311  -1.014  0.00  0.00    +0.015 A 
ATOM     20  C   UNL     1      -3.945  -2.643  -1.901  0.00  0.00    +0.063 A 
ATOM     21  C   UNL     1      -5.175  -2.757  -1.336  0.00  0.00    +0.191 A 
ATOM     22  O   UNL     1      -5.211  -2.063  -0.179  0.00  0.00    -0.450 OA
BRANCH  14  24
ATOM     23  C   UNL     1      -0.019   1.526   0.010  0.00  0.00    +0.012 C 
ATOM     24  C   UNL     1       0.002  -0.004   0.002  0.00  0.00    +0.013 C 
ATOM     25  C   UNL     1       0.742  -0.511   1.242  0.00  0.00    +0.012 C 
ENDBRANCH  14  24
ENDBRANCH   1  21
TORSDOF 2
