REMARK  Name = ZINC65182854
REMARK  10 active torsions:
REMARK  status: ('A' for Active; 'I' for Inactive)
REMARK    1  A    between atoms: C_1  and  C_2
REMARK    2  A    between atoms: C_7  and  C_13
REMARK    3  A    between atoms: C_9  and  C_12
REMARK    4  A    between atoms: C_16  and  C_19
REMARK    5  A    between atoms: C_19  and  C_20
REMARK    6  A    between atoms: C_20  and  N_21
REMARK    7  A    between atoms: N_21  and  C_22
REMARK    8  A    between atoms: C_23  and  C_25
REMARK    9  A    between atoms: C_25  and  O_26
REMARK   10  A    between atoms: O_26  and  C_27
REMARK                            x       y       z     vdW  Elec       q    Type
REMARK                         _______ _______ _______ _____ _____    ______ ____
ROOT
ATOM      1  C   UNL     1      -1.175  -5.213   1.858  0.00  0.00    +0.318 C 
ATOM      2  N   UNL     1      -1.169  -6.523   1.189  0.00  0.00    -0.291 N 
ATOM      3  C   UNL     1      -1.143  -7.476   2.180  0.00  0.00    +0.139 C 
ATOM      4  N   UNL     1      -1.132  -6.942   3.347  0.00  0.00    -0.072 NA
ATOM      5  O   UNL     1      -1.152  -5.527   3.260  0.00  0.00    -0.367 OA
ATOM      6  H   UNL     1      -1.182  -6.684   0.232  0.00  0.00    +0.151 HD
ENDROOT
BRANCH   1  13
ATOM      7  C   UNL     1      -0.018   1.503   0.010  0.00  0.00    +0.044 C 
ATOM      8  C   UNL     1       0.002  -0.004   0.002  0.00  0.00    -0.050 A 
ATOM      9  C   UNL     1       0.005  -0.680  -1.226  0.00  0.00    +0.005 A 
ATOM     10  C   UNL     1       0.023  -2.026  -1.317  0.00  0.00    +0.026 A 
ATOM     11  C   UNL     1       0.039  -2.826  -0.141  0.00  0.00    +0.043 A 
ATOM     12  N   UNL     1       0.057  -4.126   0.030  0.00  0.00    -0.373 N 
ATOM     13  C   UNL     1       0.067  -4.408   1.470  0.00  0.00    +0.168 C 
ATOM     14  C   UNL     1       0.052  -3.060   2.156  0.00  0.00    -0.036 C 
ATOM     15  C   UNL     1       0.036  -2.137   1.168  0.00  0.00    -0.001 A 
ATOM     16  C   UNL     1       0.022  -0.669   1.180  0.00  0.00    +0.013 A 
ATOM     17  C   UNL     1       0.055  -2.799   3.641  0.00  0.00    +0.042 C 
ATOM     18  H   UNL     1       0.062  -4.790  -0.677  0.00  0.00    +0.160 HD
ENDBRANCH   1  13
BRANCH   3  19
ATOM     19  C   UNL     1      -1.129  -8.962   1.927  0.00  0.00    +0.094 C 
BRANCH  19  20
ATOM     20  C   UNL     1      -1.100  -9.706   3.264  0.00  0.00    +0.115 C 
BRANCH  20  21
ATOM     21  N   UNL     1      -1.086 -11.150   3.018  0.00  0.00    -0.301 N 
ATOM     22  C   UNL     1       0.189 -11.857   2.876  0.00  0.00    +0.132 C 
ATOM     23  C   UNL     1      -2.247 -11.829   2.923  0.00  0.00    +0.253 C 
ATOM     24  O   UNL     1      -3.303 -11.243   3.041  0.00  0.00    -0.272 OA
BRANCH  23  25
ATOM     25  C   UNL     1      -2.233 -13.314   2.670  0.00  0.00    +0.324 C 
BRANCH  25  26
ATOM     26  O   UNL     1      -3.576 -13.800   2.611  0.00  0.00    -0.483 OA
BRANCH  26  27
ATOM     27  C   UNL     1      -3.742 -15.130   2.388  0.00  0.00    +0.121 A 
ATOM     28  C   UNL     1      -2.635 -15.952   2.235  0.00  0.00    +0.048 A 
ATOM     29  C   UNL     1      -2.805 -17.304   2.008  0.00  0.00    +0.042 A 
ATOM     30  C   UNL     1      -4.079 -17.839   1.933  0.00  0.00    +0.124 A 
ATOM     31  C   UNL     1      -5.185 -17.020   2.085  0.00  0.00    +0.042 A 
ATOM     32  C   UNL     1      -5.018 -15.669   2.318  0.00  0.00    +0.048 A 
ATOM     33  F   UNL     1      -4.244 -19.162   1.710  0.00  0.00    -0.205 F 
ENDBRANCH  26  27
ENDBRANCH  25  26
ENDBRANCH  23  25
ENDBRANCH  20  21
ENDBRANCH  19  20
ENDBRANCH   3  19
TORSDOF 7
