REMARK  Name = ZINC49512845
REMARK  7 active torsions:
REMARK  status: ('A' for Active; 'I' for Inactive)
REMARK    1  A    between atoms: C_1  and  C_2
REMARK    2  A    between atoms: C_4  and  C_8
REMARK    3  A    between atoms: C_5  and  C_7
REMARK    4  A    between atoms: C_8  and  C_10
REMARK    5  A    between atoms: C_8  and  N_11
REMARK    6  A    between atoms: C_18  and  C_20
REMARK    7  A    between atoms: C_20  and  C_21
REMARK                            x       y       z     vdW  Elec       q    Type
REMARK                         _______ _______ _______ _____ _____    ______ ____
ROOT
ATOM      1  N   UNL     1      -3.141  -2.934  -0.414  0.00  0.00    -0.293 N 
ATOM      2  C   UNL     1      -4.130  -3.593  -1.049  0.00  0.00    +0.303 C 
ATOM      3  O   UNL     1      -4.108  -4.807  -1.114  0.00  0.00    -0.253 OA
ATOM      4  N   UNL     1      -5.144  -2.906  -1.613  0.00  0.00    -0.282 N 
ATOM      5  C   UNL     1      -5.349  -1.449  -1.524  0.00  0.00    +0.110 C 
ATOM      6  C   UNL     1      -6.867  -1.247  -1.756  0.00  0.00    +0.021 C 
ATOM      7  C   UNL     1      -7.165  -2.330  -2.826  0.00  0.00    +0.024 C 
ATOM      8  C   UNL     1      -6.225  -3.486  -2.423  0.00  0.00    +0.088 C 
ATOM      9  H   UNL     1      -3.159  -1.965  -0.362  0.00  0.00    +0.151 HD
ENDROOT
BRANCH   1  10
ATOM     10  C   UNL     1      -2.039  -3.680   0.199  0.00  0.00    +0.102 C 
ATOM     11  C   UNL     1      -2.445  -4.127   1.604  0.00  0.00    +0.033 C 
BRANCH  10  15
ATOM     12  C   UNL     1       0.282   0.845   0.455  0.00  0.00    +0.051 C 
ATOM     13  C   UNL     1       0.163  -0.656   0.401  0.00  0.00    -0.013 A 
ATOM     14  C   UNL     1      -0.953  -1.422   0.323  0.00  0.00    +0.016 A 
ATOM     15  C   UNL     1      -0.821  -2.797   0.284  0.00  0.00    -0.017 A 
ATOM     16  C   UNL     1       0.420  -3.340   0.325  0.00  0.00    -0.008 A 
ATOM     17  S   UNL     1       1.455  -1.888   0.415  0.00  0.00    -0.098 S 
ATOM     18  C   UNL     1       0.823  -4.792   0.297  0.00  0.00    +0.052 C 
ENDBRANCH  10  15
ENDBRANCH   1  10
BRANCH   8  19
ATOM     19  C   UNL     1      -5.642  -4.146  -3.673  0.00  0.00    +0.147 C 
BRANCH  19  20
ATOM     20  C   UNL     1      -6.737  -4.863  -4.420  0.00  0.00    +0.358 C 
ATOM     21  O   UNL     1      -7.891  -4.783  -4.035  0.00  0.00    -0.246 OA
ATOM     22  O   UNL     1      -6.469  -5.523  -5.410  0.00  0.00    -0.246 OA
ENDBRANCH  19  20
ENDBRANCH   8  19
TORSDOF 4
