REMARK  Name = ZINC20435324
REMARK  6 active torsions:
REMARK  status: ('A' for Active; 'I' for Inactive)
REMARK    1  A    between atoms: C_1  and  C_2
REMARK    2  A    between atoms: C_2  and  C_21
REMARK    3  A    between atoms: C_8  and  O_11
REMARK    4  A    between atoms: O_11  and  C_12
REMARK    5  A    between atoms: C_15  and  C_19
REMARK    6  A    between atoms: C_19  and  O_20
REMARK                            x       y       z     vdW  Elec       q    Type
REMARK                         _______ _______ _______ _____ _____    ______ ____
ROOT
ATOM      1  C   UNL     1      -0.066  -0.548   1.369  0.00  0.00    +0.056 C 
ATOM      2  C   UNL     1      -0.046   0.017  -0.052  0.00  0.00    +0.109 C 
ATOM      3  C   UNL     1       1.292  -0.313  -0.755  0.00  0.00    +0.086 C 
ATOM      4  C   UNL     1       2.119   0.921  -0.450  0.00  0.00    +0.002 A 
ATOM      5  C   UNL     1       3.473   1.170  -0.530  0.00  0.00    +0.007 A 
ATOM      6  C   UNL     1       3.971   2.411  -0.175  0.00  0.00    +0.004 A 
ATOM      7  C   UNL     1       3.109   3.399   0.261  0.00  0.00    +0.050 A 
ATOM      8  C   UNL     1       1.750   3.154   0.341  0.00  0.00    +0.170 A 
ATOM      9  C   UNL     1       1.239   1.904  -0.021  0.00  0.00    +0.167 A 
ATOM     10  O   UNL     1      -0.046   1.455  -0.028  0.00  0.00    -0.482 OA
ATOM     11  C   UNL     1      -1.230  -0.512  -0.864  0.00  0.00    +0.056 C 
ENDROOT
BRANCH   8  12
ATOM     12  O   UNL     1       0.908   4.131   0.771  0.00  0.00    -0.449 OA
BRANCH  12  13
ATOM     13  C   UNL     1       0.496   4.094   2.066  0.00  0.00    +0.164 A 
ATOM     14  C   UNL     1       1.022   3.150   2.936  0.00  0.00    +0.049 A 
ATOM     15  C   UNL     1       0.602   3.114   4.252  0.00  0.00    +0.009 A 
ATOM     16  C   UNL     1      -0.342   4.018   4.703  0.00  0.00    -0.019 A 
ATOM     17  C   UNL     1      -0.869   4.961   3.840  0.00  0.00    +0.048 A 
ATOM     18  C   UNL     1      -0.448   5.005   2.523  0.00  0.00    +0.166 A 
ATOM     19  F   UNL     1      -0.959   5.930   1.681  0.00  0.00    -0.202 F 
BRANCH  16  20
ATOM     20  C   UNL     1      -0.797   3.975   6.139  0.00  0.00    +0.191 C 
BRANCH  20  21
ATOM     21  O   UNL     1       0.042   4.819   6.930  0.00  0.00    -0.390 OA
ATOM     22  H   UNL     1      -0.138   4.917   8.011  0.00  0.00    +0.210 HD
ENDBRANCH  20  21
ENDBRANCH  16  20
ENDBRANCH  12  13
ENDBRANCH   8  12
TORSDOF 4
