REMARK  Name = ZINC03433412
REMARK  7 active torsions:
REMARK  status: ('A' for Active; 'I' for Inactive)
REMARK    1  A    between atoms: C_1  and  C_2
REMARK    2  A    between atoms: C_14  and  C_15
REMARK    3  A    between atoms: C_15  and  O_17
REMARK    4  A    between atoms: O_17  and  C_18
REMARK    5  A    between atoms: C_18  and  C_19
REMARK    6  A    between atoms: N_21  and  C_22
REMARK    7  A    between atoms: C_23  and  C_27
REMARK                            x       y       z     vdW  Elec       q    Type
REMARK                         _______ _______ _______ _____ _____    ______ ____
ROOT
ATOM      1  C   UNL     1      -0.014   1.212   0.009  0.00  0.00    +0.376 C 
ATOM      2  O   UNL     1       0.002  -0.004   0.002  0.00  0.00    -0.241 OA
ENDROOT
BRANCH   1  16
ATOM      3  C   UNL     1      -2.815  -0.134   0.015  0.00  0.00    +0.048 C 
ATOM      4  C   UNL     1      -2.523   1.345   0.021  0.00  0.00    +0.010 A 
ATOM      5  C   UNL     1      -3.476   2.394   0.032  0.00  0.00    +0.025 A 
ATOM      6  C   UNL     1      -4.886   2.417   0.038  0.00  0.00    +0.012 A 
ATOM      7  C   UNL     1      -5.559   3.591   0.049  0.00  0.00    +0.009 A 
ATOM      8  C   UNL     1      -4.857   4.816   0.052  0.00  0.00    -0.014 A 
ATOM      9  C   UNL     1      -5.544   6.040   0.062  0.00  0.00    +0.008 A 
ATOM     10  C   UNL     1      -4.843   7.208   0.066  0.00  0.00    +0.001 A 
ATOM     11  C   UNL     1      -3.451   7.209   0.059  0.00  0.00    +0.001 A 
ATOM     12  C   UNL     1      -2.752   6.039   0.049  0.00  0.00    +0.012 A 
ATOM     13  C   UNL     1      -3.442   4.817   0.045  0.00  0.00    +0.025 A 
ATOM     14  C   UNL     1      -2.747   3.588   0.035  0.00  0.00    +0.144 A 
ATOM     15  O   UNL     1      -1.440   3.270   0.033  0.00  0.00    -0.447 OA
ATOM     16  C   UNL     1      -1.295   1.928   0.019  0.00  0.00    +0.216 A 
ENDBRANCH   1  16
BRANCH   1  17
ATOM     17  O   UNL     1       1.144   1.902   0.001  0.00  0.00    -0.450 OA
BRANCH  17  18
ATOM     18  C   UNL     1       2.373   1.128  -0.015  0.00  0.00    +0.328 C 
BRANCH  18  19
ATOM     19  C   UNL     1       3.555   2.062  -0.021  0.00  0.00    +0.255 C 
ATOM     20  O   UNL     1       3.380   3.262  -0.013  0.00  0.00    -0.272 OA
ATOM     21  N   UNL     1       4.807   1.564  -0.035  0.00  0.00    -0.276 N 
ATOM     22  H   UNL     1       4.947   0.604  -0.042  0.00  0.00    +0.155 HD
BRANCH  21  23
ATOM     23  C   UNL     1       5.896   2.424  -0.041  0.00  0.00    +0.089 A 
ATOM     24  C   UNL     1       7.248   2.105  -0.050  0.00  0.00    +0.080 A 
ATOM     25  C   UNL     1       8.177   3.209  -0.058  0.00  0.00    +0.028 A 
ATOM     26  C   UNL     1       7.656   4.450  -0.046  0.00  0.00    +0.048 A 
ATOM     27  S   UNL     1       5.899   4.156  -0.031  0.00  0.00    -0.081 S 
BRANCH  24  28
ATOM     28  C   UNL     1       7.698   0.745  -0.056  0.00  0.00    +0.102 C 
ATOM     29  N   UNL     1       8.056  -0.333  -0.060  0.00  0.00    -0.191 NA
ENDBRANCH  24  28
ENDBRANCH  21  23
ENDBRANCH  18  19
ENDBRANCH  17  18
ENDBRANCH   1  17
TORSDOF 6
