REMARK  Name = ZINC12955798
REMARK  8 active torsions:
REMARK  status: ('A' for Active; 'I' for Inactive)
REMARK    1  A    between atoms: C_1  and  N_2
REMARK    2  A    between atoms: C_6  and  C_8
REMARK    3  A    between atoms: N_10  and  N_11
REMARK    4  A    between atoms: C_12  and  C_13
REMARK    5  A    between atoms: C_16  and  S_22
REMARK    6  A    between atoms: C_17  and  N_19
REMARK    7  A    between atoms: S_22  and  C_23
REMARK    8  A    between atoms: C_30  and  C_32
REMARK                            x       y       z     vdW  Elec       q    Type
REMARK                         _______ _______ _______ _____ _____    ______ ____
ROOT
ATOM      1  N   UNL     1       2.283  -2.806   0.078  0.00  0.00    -0.187 NA
ATOM      2  C   UNL     1       1.165  -2.159  -0.050  0.00  0.00    +0.138 C 
ENDROOT
BRANCH   2   3
ATOM      3  C   UNL     1       1.161  -0.685  -0.035  0.00  0.00    -0.003 A 
ATOM      4  C   UNL     1       2.360   0.017   0.117  0.00  0.00    +0.011 A 
ATOM      5  C   UNL     1       2.353   1.394   0.131  0.00  0.00    +0.018 A 
ATOM      6  C   UNL     1       1.154   2.087  -0.007  0.00  0.00    +0.043 A 
ATOM      7  C   UNL     1      -0.042   1.391  -0.159  0.00  0.00    +0.140 A 
ATOM      8  C   UNL     1      -0.042   0.014  -0.173  0.00  0.00    +0.043 A 
BRANCH   7   9
ATOM      9  N   UNL     1      -1.315   2.133  -0.311  0.00  0.00    +0.058 N 
ATOM     10  O   UNL     1      -2.361   1.524  -0.450  0.00  0.00    -0.126 OA
ATOM     11  O   UNL     1      -1.316   3.350  -0.298  0.00  0.00    -0.126 OA
ENDBRANCH   7   9
BRANCH   6  12
ATOM     12  S   UNL     1       1.149   3.848   0.012  0.00  0.00    -0.087 S 
BRANCH  12  13
ATOM     13  C   UNL     1       0.573   4.256   1.626  0.00  0.00    +0.013 A 
ATOM     14  C   UNL     1       0.361   3.253   2.564  0.00  0.00    +0.016 A 
ATOM     15  C   UNL     1      -0.086   3.576   3.830  0.00  0.00    +0.021 A 
ATOM     16  C   UNL     1      -0.333   4.897   4.161  0.00  0.00    +0.041 A 
ATOM     17  C   UNL     1      -0.128   5.898   3.228  0.00  0.00    +0.021 A 
ATOM     18  C   UNL     1       0.324   5.582   1.962  0.00  0.00    +0.016 A 
ATOM     19 CL   UNL     1      -0.901   5.299   5.752  0.00  0.00    -0.084 Cl
ENDBRANCH  12  13
ENDBRANCH   6  12
ENDBRANCH   2   3
BRANCH   1  22
ATOM     20  C   UNL     1       3.447  -4.880   0.198  0.00  0.00    +0.270 C 
ATOM     21  O   UNL     1       4.492  -4.269   0.330  0.00  0.00    -0.268 OA
ATOM     22  N   UNL     1       2.286  -4.207   0.064  0.00  0.00    -0.203 N 
ATOM     23  H   UNL     1       1.453  -4.693  -0.042  0.00  0.00    +0.178 HD
BRANCH  20  29
ATOM     24  C   UNL     1       1.726 -11.164  -0.076  0.00  0.00    +0.173 C 
ATOM     25  N   UNL     1       2.925 -10.338   0.078  0.00  0.00    -0.260 N 
ATOM     26  C   UNL     1       2.963  -8.992   0.096  0.00  0.00    +0.107 A 
ATOM     27  C   UNL     1       4.294  -8.582   0.262  0.00  0.00    +0.040 A 
ATOM     28  C   UNL     1       4.509  -7.195   0.302  0.00  0.00    +0.033 A 
ATOM     29  C   UNL     1       3.450  -6.345   0.183  0.00  0.00    +0.078 A 
ATOM     30  S   UNL     1       2.069  -7.462   0.012  0.00  0.00    -0.064 S 
ATOM     31  C   UNL     1       5.047  -9.799   0.340  0.00  0.00    +0.173 A 
ATOM     32  N   UNL     1       4.236 -10.808   0.231  0.00  0.00    -0.166 NA
BRANCH  31  33
ATOM     33  C   UNL     1       6.540  -9.893   0.519  0.00  0.00    +0.437 C 
ATOM     34  F   UNL     1       6.844  -9.936   1.884  0.00  0.00    -0.164 F 
ATOM     35  F   UNL     1       7.011 -11.056  -0.100  0.00  0.00    -0.164 F 
ATOM     36  F   UNL     1       7.151  -8.776  -0.060  0.00  0.00    -0.164 F 
ENDBRANCH  31  33
ENDBRANCH  20  29
ENDBRANCH   1  22
TORSDOF 7
