REMARK  Name = ZINC46876137
REMARK  4 active torsions:
REMARK  status: ('A' for Active; 'I' for Inactive)
REMARK    1  A    between atoms: C_1  and  C_2
REMARK    2  A    between atoms: C_4  and  C_7
REMARK    3  A    between atoms: N_15  and  C_16
REMARK    4  A    between atoms: C_16  and  C_17
REMARK                            x       y       z     vdW  Elec       q    Type
REMARK                         _______ _______ _______ _____ _____    ______ ____
ROOT
ATOM      1  C   UNL     1       0.039  -3.320  -1.631  0.00  0.00    +0.146 C 
ATOM      2  C   UNL     1       1.474  -3.877  -1.741  0.00  0.00    +0.032 C 
ATOM      3  C   UNL     1       1.484  -5.021  -0.693  0.00  0.00    +0.021 C 
ATOM      4  C   UNL     1       0.041  -5.570  -0.819  0.00  0.00    +0.110 C 
ATOM      5  N   UNL     1      -0.800  -4.378  -1.052  0.00  0.00    -0.275 N 
ATOM      6  C   UNL     1      -2.116  -4.276  -0.777  0.00  0.00    +0.303 C 
ATOM      7  O   UNL     1      -2.707  -3.239  -1.011  0.00  0.00    -0.253 OA
ATOM      8  N   UNL     1      -2.777  -5.322  -0.244  0.00  0.00    -0.296 N 
ATOM      9  H   UNL     1      -2.306  -6.149  -0.058  0.00  0.00    +0.150 HD
ENDROOT
BRANCH   1  13
ATOM     10  C   UNL     1      -0.018   1.503   0.010  0.00  0.00    +0.069 C 
ATOM     11  C   UNL     1       0.002  -0.004   0.002  0.00  0.00    +0.081 A 
ATOM     12  C   UNL     1       0.008  -0.824  -1.141  0.00  0.00    +0.072 A 
ATOM     13  C   UNL     1       0.027  -2.108  -0.735  0.00  0.00    +0.158 A 
ATOM     14  O   UNL     1       0.034  -2.119   0.606  0.00  0.00    -0.357 OA
ATOM     15  N   UNL     1       0.023  -0.775   1.052  0.00  0.00    -0.083 NA
ENDBRANCH   1  13
BRANCH   8  16
ATOM     16  C   UNL     1      -4.207  -5.211   0.053  0.00  0.00    +0.150 C 
BRANCH  16  17
ATOM     17  C   UNL     1      -4.708  -6.529   0.647  0.00  0.00    +0.195 C 
ATOM     18  C   UNL     1      -6.231  -6.465   0.915  0.00  0.00    +0.085 C 
ATOM     19  C   UNL     1      -6.357  -7.266   2.197  0.00  0.00    -0.002 A 
ATOM     20  C   UNL     1      -7.441  -7.829   2.833  0.00  0.00    +0.007 A 
ATOM     21  C   UNL     1      -7.264  -8.527   4.014  0.00  0.00    +0.000 A 
ATOM     22  C   UNL     1      -5.997  -8.657   4.551  0.00  0.00    +0.004 A 
ATOM     23  C   UNL     1      -4.910  -8.091   3.918  0.00  0.00    +0.046 A 
ATOM     24  C   UNL     1      -5.080  -7.383   2.731  0.00  0.00    +0.124 A 
ATOM     25  O   UNL     1      -4.159  -6.739   1.958  0.00  0.00    -0.487 OA
ENDBRANCH  16  17
ENDBRANCH   8  16
TORSDOF 3
