REMARK  Name = ZINC35425447
REMARK  6 active torsions:
REMARK  status: ('A' for Active; 'I' for Inactive)
REMARK    1  A    between atoms: C_1  and  C_2
REMARK    2  A    between atoms: C_2  and  C_4
REMARK    3  A    between atoms: C_2  and  O_15
REMARK    4  A    between atoms: N_6  and  C_7
REMARK    5  A    between atoms: C_10  and  C_12
REMARK    6  A    between atoms: O_15  and  C_16
REMARK                            x       y       z     vdW  Elec       q    Type
REMARK                         _______ _______ _______ _____ _____    ______ ____
ROOT
ATOM      1  C   UNL     1       0.693  -0.727   1.265  0.00  0.00    +0.258 C 
ATOM      2  O   UNL     1      -0.004  -1.180   2.148  0.00  0.00    -0.271 OA
ATOM      3  N   UNL     1       2.030  -0.670   1.424  0.00  0.00    -0.277 N 
ATOM      4  H   UNL     1       2.588  -0.308   0.718  0.00  0.00    +0.155 HD
ENDROOT
BRANCH   3   5
ATOM      5  C   UNL     1       2.609  -1.130   2.599  0.00  0.00    +0.072 A 
ATOM      6  C   UNL     1       3.945  -1.145   2.936  0.00  0.00    +0.032 A 
ATOM      7  C   UNL     1       4.309  -1.646   4.155  0.00  0.00    +0.025 A 
ATOM      8  C   UNL     1       3.269  -2.103   4.960  0.00  0.00    +0.102 A 
ATOM      9  S   UNL     1       1.841  -1.790   3.940  0.00  0.00    -0.067 S 
BRANCH   8  10
ATOM     10  C   UNL     1       3.329  -2.667   6.253  0.00  0.00    +0.393 C 
ATOM     11  O   UNL     1       4.412  -2.806   6.811  0.00  0.00    -0.240 OA
ATOM     12  O   UNL     1       2.299  -3.018   6.817  0.00  0.00    -0.240 OA
ENDBRANCH   8  10
ENDBRANCH   3   5
BRANCH   1  14
ATOM     13  C   UNL     1       0.290   1.280  -0.134  0.00  0.00    +0.062 C 
ATOM     14  C   UNL     1       0.064  -0.228  -0.010  0.00  0.00    +0.256 C 
BRANCH  14  15
ATOM     15  O   UNL     1      -1.339  -0.499   0.012  0.00  0.00    -0.480 OA
BRANCH  15  16
ATOM     16  C   UNL     1      -1.965  -0.607  -1.189  0.00  0.00    +0.122 A 
ATOM     17  C   UNL     1      -1.270  -0.349  -2.361  0.00  0.00    +0.045 A 
ATOM     18  C   UNL     1      -1.909  -0.460  -3.581  0.00  0.00    +0.004 A 
ATOM     19  C   UNL     1      -3.241  -0.827  -3.634  0.00  0.00    +0.000 A 
ATOM     20  C   UNL     1      -3.937  -1.084  -2.466  0.00  0.00    +0.004 A 
ATOM     21  C   UNL     1      -3.300  -0.981  -1.245  0.00  0.00    +0.045 A 
ENDBRANCH  15  16
ENDBRANCH  14  15
ENDBRANCH   1  14
TORSDOF 5
