REMARK  Name = ZINC08740085
REMARK  10 active torsions:
REMARK  status: ('A' for Active; 'I' for Inactive)
REMARK    1  A    between atoms: C_6  and  C_7
REMARK    2  A    between atoms: C_12  and  C_13
REMARK    3  A    between atoms: C_16  and  O_20
REMARK    4  A    between atoms: C_18  and  O_19
REMARK    5  A    between atoms: O_20  and  C_21
REMARK    6  A    between atoms: C_23  and  O_36
REMARK    7  A    between atoms: C_25  and  O_35
REMARK    8  A    between atoms: C_27  and  O_34
REMARK    9  A    between atoms: C_29  and  C_32
REMARK   10  A    between atoms: C_32  and  O_33
REMARK                            x       y       z     vdW  Elec       q    Type
REMARK                         _______ _______ _______ _____ _____    ______ ____
ROOT
ATOM      1  C   UNL     1      -2.222   0.378   2.038  0.00  0.00    +0.044 A 
ATOM      2  C   UNL     1      -1.160   1.274   2.142  0.00  0.00    +0.017 A 
ATOM      3  C   UNL     1      -1.120   2.177   3.183  0.00  0.00    +0.046 A 
ATOM      4  C   UNL     1      -2.136   2.196   4.130  0.00  0.00    +0.127 A 
ATOM      5  C   UNL     1      -3.196   1.307   4.034  0.00  0.00    +0.091 A 
ATOM      6  C   UNL     1      -3.248   0.402   2.988  0.00  0.00    +0.130 A 
ENDROOT
BRANCH   1  12
ATOM      7  C   UNL     1      -2.040  -0.304  -0.449  0.00  0.00    +0.027 A 
ATOM      8  C   UNL     1      -2.169  -1.470  -1.142  0.00  0.00    +0.114 A 
ATOM      9  N   UNL     1      -2.468  -2.445  -0.259  0.00  0.00    -0.284 N 
ATOM     10  H   UNL     1      -2.616  -3.379  -0.474  0.00  0.00    +0.188 HD
ATOM     11  N   UNL     1      -2.529  -1.880   1.020  0.00  0.00    -0.173 NA
ATOM     12  C   UNL     1      -2.267  -0.595   0.920  0.00  0.00    +0.104 A 
BRANCH   7  18
ATOM     13  C   UNL     1      -2.562   2.109  -0.795  0.00  0.00    +0.012 A 
ATOM     14  C   UNL     1      -2.258   3.345  -1.330  0.00  0.00    +0.050 A 
ATOM     15  C   UNL     1      -1.111   3.514  -2.092  0.00  0.00    +0.162 A 
ATOM     16  C   UNL     1      -0.261   2.436  -2.319  0.00  0.00    +0.163 A 
ATOM     17  C   UNL     1      -0.563   1.194  -1.787  0.00  0.00    +0.058 A 
ATOM     18  C   UNL     1      -1.715   1.026  -1.022  0.00  0.00    -0.011 A 
ATOM     19  O   UNL     1       0.872   2.586  -3.059  0.00  0.00    -0.485 OA
ATOM     20  C   UNL     1       0.951   3.752  -3.886  0.00  0.00    +0.270 C 
ATOM     21  C   UNL     1       0.511   4.963  -3.053  0.00  0.00    +0.270 C 
ATOM     22  O   UNL     1      -0.833   4.741  -2.613  0.00  0.00    -0.485 OA
ENDBRANCH   7  18
ENDBRANCH   1  12
BRANCH   6  23
ATOM     23  O   UNL     1      -4.289  -0.466   2.889  0.00  0.00    -0.506 OA
ATOM     24  H   UNL     1      -4.148  -1.303   3.352  0.00  0.00    +0.292 HD
ENDBRANCH   6  23
BRANCH   4  25
ATOM     25  O   UNL     1      -2.091   3.089   5.154  0.00  0.00    -0.461 OA
BRANCH  25  26
ATOM     26  C   UNL     1      -0.971   3.975   5.193  0.00  0.00    +0.339 C 
ATOM     27  C   UNL     1      -0.959   4.724   6.528  0.00  0.00    +0.214 C 
ATOM     28  C   UNL     1       0.208   5.716   6.538  0.00  0.00    +0.180 C 
ATOM     29  C   UNL     1       0.071   6.662   5.342  0.00  0.00    +0.177 C 
ATOM     30  C   UNL     1       0.019   5.838   4.053  0.00  0.00    +0.179 C 
ATOM     31  O   UNL     1      -1.070   4.915   4.121  0.00  0.00    -0.331 OA
BRANCH  29  32
ATOM     32  O   UNL     1      -1.131   7.424   5.471  0.00  0.00    -0.386 OA
ATOM     33  H   UNL     1      -1.168   7.968   6.270  0.00  0.00    +0.210 HD
ENDBRANCH  29  32
BRANCH  28  34
ATOM     34  O   UNL     1       0.185   6.470   7.752  0.00  0.00    -0.386 OA
ATOM     35  H   UNL     1       0.261   5.932   8.551  0.00  0.00    +0.210 HD
ENDBRANCH  28  34
BRANCH  27  36
ATOM     36  O   UNL     1      -2.190   5.433   6.689  0.00  0.00    -0.383 OA
ATOM     37  H   UNL     1      -2.973   4.866   6.687  0.00  0.00    +0.210 HD
ENDBRANCH  27  36
BRANCH  30  38
ATOM     38  C   UNL     1      -0.178   6.772   2.857  0.00  0.00    +0.190 C 
BRANCH  38  39
ATOM     39  O   UNL     1      -0.109   6.017   1.646  0.00  0.00    -0.392 OA
ATOM     40  H   UNL     1      -0.226   6.546   0.845  0.00  0.00    +0.210 HD
ENDBRANCH  38  39
ENDBRANCH  30  38
ENDBRANCH  25  26
ENDBRANCH   4  25
TORSDOF 10
