REMARK  Name = ZINC12684877
REMARK  9 active torsions:
REMARK  status: ('A' for Active; 'I' for Inactive)
REMARK    1  A    between atoms: C_1  and  C_2
REMARK    2  A    between atoms: C_4  and  C_34
REMARK    3  A    between atoms: C_5  and  N_9
REMARK    4  A    between atoms: C_6  and  C_8
REMARK    5  A    between atoms: C_10  and  C_12
REMARK    6  A    between atoms: C_12  and  N_13
REMARK    7  A    between atoms: C_14  and  C_16
REMARK    8  A    between atoms: N_25  and  C_27
REMARK    9  A    between atoms: C_27  and  C_28
REMARK                            x       y       z     vdW  Elec       q    Type
REMARK                         _______ _______ _______ _____ _____    ______ ____
ROOT
ATOM      1  N   UNL     1       0.372   1.423  -1.502  0.00  0.00    -0.301 N 
ATOM      2  C   UNL     1      -0.792   2.091  -1.618  0.00  0.00    +0.265 C 
ATOM      3  O   UNL     1      -0.986   3.094  -0.959  0.00  0.00    -0.268 OA
ATOM      4  H   UNL     1       0.527   0.622  -2.028  0.00  0.00    +0.150 HD
ENDROOT
BRANCH   2   5
ATOM      5  C   UNL     1      -1.833   1.605  -2.546  0.00  0.00    +0.154 A 
ATOM      6  C   UNL     1      -3.110   2.325  -2.676  0.00  0.00    +0.020 A 
ATOM      7  C   UNL     1      -3.399   3.481  -1.958  0.00  0.00    +0.011 A 
ATOM      8  C   UNL     1      -4.617   4.103  -2.139  0.00  0.00    +0.001 A 
ATOM      9  C   UNL     1      -5.551   3.591  -3.029  0.00  0.00    +0.001 A 
ATOM     10  C   UNL     1      -5.283   2.449  -3.754  0.00  0.00    +0.014 A 
ATOM     11  C   UNL     1      -4.059   1.807  -3.587  0.00  0.00    +0.050 A 
ATOM     12  C   UNL     1      -3.692   0.587  -4.317  0.00  0.00    +0.275 A 
ATOM     13  O   UNL     1      -4.461   0.082  -5.114  0.00  0.00    -0.266 OA
ATOM     14  N   UNL     1      -2.481   0.039  -4.085  0.00  0.00    -0.224 N 
ATOM     15  N   UNL     1      -1.632   0.525  -3.260  0.00  0.00    -0.163 NA
BRANCH  14  16
ATOM     16  C   UNL     1      -2.119  -1.178  -4.817  0.00  0.00    +0.182 C 
BRANCH  16  17
ATOM     17  C   UNL     1      -1.438  -0.803  -6.108  0.00  0.00    -0.026 A 
ATOM     18  C   UNL     1      -2.185  -0.619  -7.256  0.00  0.00    +0.005 A 
ATOM     19  C   UNL     1      -1.560  -0.271  -8.439  0.00  0.00    +0.000 A 
ATOM     20  C   UNL     1      -0.187  -0.118  -8.476  0.00  0.00    +0.000 A 
ATOM     21  C   UNL     1       0.561  -0.307  -7.329  0.00  0.00    +0.000 A 
ATOM     22  C   UNL     1      -0.064  -0.650  -6.145  0.00  0.00    +0.005 A 
ENDBRANCH  16  17
ENDBRANCH  14  16
ENDBRANCH   2   5
BRANCH   1  23
ATOM     23  C   UNL     1       1.407   1.908  -0.586  0.00  0.00    +0.200 C 
BRANCH  23  25
ATOM     24  N   UNL     1       3.684   1.244   0.116  0.00  0.00    -0.284 N 
ATOM     25  C   UNL     1       2.603   0.992  -0.648  0.00  0.00    +0.234 C 
ATOM     26  O   UNL     1       2.591   0.029  -1.385  0.00  0.00    -0.274 OA
ATOM     27  H   UNL     1       3.723   2.051   0.652  0.00  0.00    +0.155 HD
BRANCH  24  32
ATOM     28  C   UNL     1       8.015  -2.420   0.194  0.00  0.00    +0.044 C 
ATOM     29  C   UNL     1       6.865  -1.447   0.173  0.00  0.00    -0.050 A 
ATOM     30  C   UNL     1       5.577  -1.895   0.404  0.00  0.00    +0.008 A 
ATOM     31  C   UNL     1       4.521  -1.006   0.385  0.00  0.00    -0.029 A 
ATOM     32  C   UNL     1       4.753   0.340   0.135  0.00  0.00    +0.039 A 
ATOM     33  C   UNL     1       6.046   0.786  -0.102  0.00  0.00    -0.029 A 
ATOM     34  C   UNL     1       7.099  -0.107  -0.076  0.00  0.00    +0.008 A 
ATOM     35  C   UNL     1       6.301   2.245  -0.380  0.00  0.00    +0.045 C 
ATOM     36  C   UNL     1       3.118  -1.496   0.637  0.00  0.00    +0.045 C 
ENDBRANCH  24  32
ENDBRANCH  23  25
ENDBRANCH   1  23
TORSDOF 6
