REMARK  Name = ZINC14539395
REMARK  12 active torsions:
REMARK  status: ('A' for Active; 'I' for Inactive)
REMARK    1  A    between atoms: C_1  and  C_2
REMARK    2  A    between atoms: C_2  and  N_67
REMARK    3  A    between atoms: C_6  and  C_8
REMARK    4  A    between atoms: C_8  and  N_9
REMARK    5  A    between atoms: C_10  and  C_12
REMARK    6  A    between atoms: N_15  and  C_17
REMARK    7  A    between atoms: C_17  and  C_18
REMARK    8  A    between atoms: C_18  and  O_19
REMARK    9  A    between atoms: O_19  and  C_20
REMARK   10  A    between atoms: C_25  and  C_27
REMARK   11  A    between atoms: C_30  and  C_32
REMARK   12  A    between atoms: C_32  and  C_34
REMARK                            x       y       z     vdW  Elec       q    Type
REMARK                         _______ _______ _______ _____ _____    ______ ____
ROOT
ATOM      1  C   UNL     1      -4.735  -2.405   0.982  0.00  0.00    +0.152 A 
ATOM      2  C   UNL     1      -4.799  -2.760  -0.375  0.00  0.00    +0.023 A 
ATOM      3  C   UNL     1      -3.714  -2.197  -0.962  0.00  0.00    +0.046 A 
ATOM      4  N   UNL     1      -3.038  -1.546  -0.000  0.00  0.00    -0.265 N 
ATOM      5  N   UNL     1      -3.641  -1.677   1.131  0.00  0.00    -0.166 NA
ATOM      6  C   UNL     1      -3.387  -2.314  -2.428  0.00  0.00    +0.074 C 
ATOM      7  C   UNL     1      -4.174  -3.492  -3.017  0.00  0.00    +0.114 C 
ATOM      8  N   UNL     1      -5.565  -3.433  -2.545  0.00  0.00    -0.292 N 
ATOM      9  C   UNL     1      -5.822  -3.592  -1.101  0.00  0.00    +0.147 C 
ATOM     10  C   UNL     1      -6.580  -3.237  -3.410  0.00  0.00    +0.254 C 
ATOM     11  O   UNL     1      -6.345  -2.966  -4.572  0.00  0.00    -0.269 OA
ENDROOT
BRANCH  10  12
ATOM     12  C   UNL     1      -7.974  -3.353  -2.948  0.00  0.00    +0.075 A 
ATOM     13  C   UNL     1      -9.146  -3.058  -3.631  0.00  0.00    +0.021 A 
ATOM     14  C   UNL     1     -10.340  -3.249  -2.998  0.00  0.00    +0.020 A 
ATOM     15  C   UNL     1     -10.334  -3.720  -1.690  0.00  0.00    +0.055 A 
ATOM     16  S   UNL     1      -8.588  -3.900  -1.363  0.00  0.00    -0.081 S 
BRANCH  15  17
ATOM     17  C   UNL     1     -11.467  -3.995  -0.806  0.00  0.00    +0.167 C 
ATOM     18  O   UNL     1     -12.601  -3.813  -1.199  0.00  0.00    -0.292 OA
ATOM     19  C   UNL     1     -11.227  -4.506   0.591  0.00  0.00    +0.092 C 
ENDBRANCH  15  17
ENDBRANCH  10  12
BRANCH   1  21
ATOM     20  N   UNL     1      -5.503  -2.359   3.305  0.00  0.00    -0.312 N 
ATOM     21  C   UNL     1      -5.698  -2.777   2.038  0.00  0.00    +0.264 C 
ATOM     22  O   UNL     1      -6.666  -3.460   1.765  0.00  0.00    -0.268 OA
ATOM     23  H   UNL     1      -4.731  -1.815   3.523  0.00  0.00    +0.149 HD
BRANCH  20  24
ATOM     24  C   UNL     1      -6.458  -2.728   4.353  0.00  0.00    +0.089 C 
BRANCH  24  28
ATOM     25  C   UNL     1      -6.097  -2.559   8.026  0.00  0.00    -0.078 C 
ATOM     26  C   UNL     1      -4.753  -3.201   7.621  0.00  0.00    -0.020 C 
ATOM     27  C   UNL     1      -4.652  -2.991   6.096  0.00  0.00    -0.016 C 
ATOM     28  C   UNL     1      -5.943  -2.239   5.708  0.00  0.00    -0.051 C 
ATOM     29  N   UNL     1      -6.876  -2.578   6.788  0.00  0.00    +0.382 N 
ATOM     30  H   UNL     1      -7.266  -3.515   6.635  0.00  0.00    -0.081 HD
BRANCH  29  32
ATOM     31  C   UNL     1      -9.066  -2.059   7.828  0.00  0.00    -0.017 C 
ATOM     32  C   UNL     1      -7.994  -1.583   6.845  0.00  0.00    -0.082 C 
ENDBRANCH  29  32
ENDBRANCH  24  28
ENDBRANCH  20  24
ENDBRANCH   1  21
BRANCH   4  33
ATOM     33  C   UNL     1      -1.794  -0.800  -0.207  0.00  0.00    +0.171 C 
BRANCH  33  34
ATOM     34  C   UNL     1      -2.122   0.653  -0.553  0.00  0.00    +0.182 C 
BRANCH  34  35
ATOM     35  O   UNL     1      -0.908   1.380  -0.754  0.00  0.00    -0.381 OA
ATOM     36  C   UNL     1      -1.103   2.757  -1.085  0.00  0.00    +0.194 C 
ENDBRANCH  34  35
ENDBRANCH  33  34
ENDBRANCH   4  33
TORSDOF 9
