REMARK  Name = ZINC05238845
REMARK  6 active torsions:
REMARK  status: ('A' for Active; 'I' for Inactive)
REMARK    1  A    between atoms: C_1  and  C_2
REMARK    2  A    between atoms: C_7  and  O_10
REMARK    3  A    between atoms: O_10  and  C_11
REMARK    4  A    between atoms: C_11  and  C_13
REMARK    5  A    between atoms: C_13  and  S_14
REMARK    6  A    between atoms: S_14  and  C_15
REMARK                            x       y       z     vdW  Elec       q    Type
REMARK                         _______ _______ _______ _____ _____    ______ ____
ROOT
ATOM      1  C   UNL     1       6.286   0.827  -1.460  0.00  0.00    +0.171 A 
ATOM      2  N   UNL     1       7.366   0.208  -2.020  0.00  0.00    -0.301 N 
ATOM      3  H   UNL     1       7.245  -0.676  -2.471  0.00  0.00    +0.171 HD
ATOM      4  C   UNL     1       8.590   0.765  -1.978  0.00  0.00    +0.261 A 
ATOM      5  O   UNL     1       9.544   0.202  -2.488  0.00  0.00    -0.267 OA
ATOM      6  C   UNL     1       8.758   2.026  -1.321  0.00  0.00    +0.075 A 
ATOM      7  C   UNL     1       9.987   2.804  -1.152  0.00  0.00    -0.023 A 
ATOM      8  C   UNL     1       9.884   3.973  -0.488  0.00  0.00    -0.004 A 
ATOM      9  S   UNL     1       8.171   4.107  -0.053  0.00  0.00    -0.073 S 
ATOM     10  C   UNL     1       7.595   2.587  -0.767  0.00  0.00    +0.117 A 
ATOM     11  N   UNL     1       6.413   1.987  -0.848  0.00  0.00    -0.216 NA
ATOM     12  C   UNL     1      10.984   4.944  -0.186  0.00  0.00    +0.043 C 
ATOM     13  C   UNL     1      12.329   4.242  -0.421  0.00  0.00    +0.005 C 
ATOM     14  C   UNL     1      12.280   3.528  -1.775  0.00  0.00    +0.005 C 
ATOM     15  C   UNL     1      11.332   2.331  -1.696  0.00  0.00    +0.037 C 
ENDROOT
BRANCH   1  16
ATOM     16  S   UNL     1       4.702   0.060  -1.548  0.00  0.00    -0.076 S 
BRANCH  16  17
ATOM     17  C   UNL     1       3.709   1.288  -0.664  0.00  0.00    +0.197 C 
BRANCH  17  18
ATOM     18  C   UNL     1       2.274   0.831  -0.613  0.00  0.00    +0.318 C 
ATOM     19  O   UNL     1       1.955  -0.217  -1.123  0.00  0.00    -0.250 OA
BRANCH  18  20
ATOM     20  O   UNL     1       1.349   1.588  -0.002  0.00  0.00    -0.461 OA
BRANCH  20  26
ATOM     21  C   UNL     1      -2.880   1.543   2.537  0.00  0.00    +0.007 C 
ATOM     22  C   UNL     1      -2.164   1.050   1.278  0.00  0.00    -0.011 C 
ATOM     23  C   UNL     1      -2.904   1.556   0.038  0.00  0.00    +0.003 C 
ATOM     24  C   UNL     1      -2.188   1.063  -1.221  0.00  0.00    +0.004 C 
ATOM     25  C   UNL     1      -0.753   1.593  -1.232  0.00  0.00    +0.044 C 
ATOM     26  C   UNL     1      -0.013   1.086   0.008  0.00  0.00    +0.177 C 
ATOM     27  C   UNL     1      -0.729   1.579   1.267  0.00  0.00    +0.048 C 
ENDBRANCH  20  26
ENDBRANCH  18  20
ENDBRANCH  17  18
ENDBRANCH  16  17
ENDBRANCH   1  16
TORSDOF 5
