REMARK  Name = ZINC21437228
REMARK  16 active torsions:
REMARK  status: ('A' for Active; 'I' for Inactive)
REMARK    1  A    between atoms: C_1  and  C_2
REMARK    2  A    between atoms: C_2  and  C_3
REMARK    3  A    between atoms: C_3  and  C_4
REMARK    4  A    between atoms: C_4  and  N_5
REMARK    5  A    between atoms: N_5  and  C_6
REMARK    6  A    between atoms: C_7  and  N_18
REMARK    7  A    between atoms: N_8  and  C_15
REMARK    8  A    between atoms: C_15  and  C_16
REMARK    9  A    between atoms: C_16  and  C_17
REMARK   10  A    between atoms: C_19  and  C_21
REMARK   11  A    between atoms: C_21  and  S_22
REMARK   12  A    between atoms: S_22  and  C_23
REMARK   13  A    between atoms: N_27  and  C_28
REMARK   14  A    between atoms: C_33  and  C_34
REMARK   15  A    between atoms: C_34  and  C_35
REMARK   16  A    between atoms: C_34  and  C_36
REMARK                            x       y       z     vdW  Elec       q    Type
REMARK                         _______ _______ _______ _____ _____    ______ ____
ROOT
ATOM      1  N   UNL     1       0.048  -2.816   2.371  0.00  0.00    -0.264 N 
ATOM      2  C   UNL     1      -0.061  -2.179   3.556  0.00  0.00    +0.230 C 
ATOM      3  O   UNL     1      -0.075  -0.967   3.594  0.00  0.00    -0.274 OA
ENDROOT
BRANCH   1   4
ATOM      4  C   UNL     1       0.038  -2.077   1.170  0.00  0.00    +0.140 A 
ATOM      5  C   UNL     1      -1.006  -2.204   0.276  0.00  0.00    +0.127 A 
ATOM      6  N   UNL     1      -0.987  -1.470  -0.887  0.00  0.00    -0.280 N 
ATOM      7  C   UNL     1       0.039  -0.641  -1.152  0.00  0.00    +0.331 A 
ATOM      8  O   UNL     1       0.039  -0.004  -2.188  0.00  0.00    -0.246 OA
ATOM      9  N   UNL     1       1.062  -0.500  -0.291  0.00  0.00    -0.273 N 
ATOM     10  H   UNL     1       1.886   0.190  -0.524  0.00  0.00    +0.173 HD
ATOM     11  C   UNL     1       1.092  -1.196   0.862  0.00  0.00    +0.277 A 
ATOM     12  O   UNL     1       2.026  -1.064   1.635  0.00  0.00    -0.266 OA
BRANCH   5  13
ATOM     13  N   UNL     1      -2.051  -3.054   0.544  0.00  0.00    -0.343 N 
ATOM     14  H   UNL     1      -2.880  -3.151  -0.173  0.00  0.00    +0.144 HD
ATOM     15  H   UNL     1      -2.060  -3.638   1.476  0.00  0.00    +0.144 HD
ENDBRANCH   5  13
BRANCH   6  16
ATOM     16  C   UNL     1      -2.088  -1.595  -1.845  0.00  0.00    +0.128 C 
BRANCH  16  17
ATOM     17  C   UNL     1      -3.173  -0.568  -1.514  0.00  0.00    +0.018 C 
ATOM     18  C   UNL     1      -4.323  -0.700  -2.514  0.00  0.00    +0.005 C 
ENDBRANCH  16  17
ENDBRANCH   6  16
ENDBRANCH   1   4
BRANCH   1  19
ATOM     19  C   UNL     1       0.175  -4.275   2.333  0.00  0.00    +0.114 C 
BRANCH  19  20
ATOM     20  C   UNL     1       1.645  -4.663   2.503  0.00  0.00    +0.019 C 
BRANCH  20  22
ATOM     21  C   UNL     1       3.249  -6.574   2.634  0.00  0.00    +0.004 C 
ATOM     22  C   UNL     1       1.779  -6.186   2.463  0.00  0.00    -0.002 C 
ENDBRANCH  20  22
ENDBRANCH  19  20
ENDBRANCH   1  19
BRANCH   2  23
ATOM     23  C   UNL     1      -0.165  -2.974   4.832  0.00  0.00    +0.173 C 
BRANCH  23  24
ATOM     24  S   UNL     1      -0.296  -1.843   6.239  0.00  0.00    -0.078 S 
BRANCH  24  25
ATOM     25  C   UNL     1      -0.401  -3.006   7.558  0.00  0.00    +0.174 A 
ATOM     26  N   UNL     1      -0.378  -4.313   7.434  0.00  0.00    -0.230 NA
ATOM     27  C   UNL     1      -0.478  -4.878   8.649  0.00  0.00    +0.131 A 
ATOM     28  C   UNL     1      -0.566  -3.899   9.566  0.00  0.00    +0.113 A 
ATOM     29  N   UNL     1      -0.513  -2.703   8.883  0.00  0.00    -0.294 N 
BRANCH  29  30
ATOM     30  C   UNL     1      -0.567  -1.419   9.443  0.00  0.00    +0.052 A 
ATOM     31  C   UNL     1       0.452  -0.982  10.280  0.00  0.00    +0.026 A 
ATOM     32  C   UNL     1       0.399   0.286  10.826  0.00  0.00    +0.002 A 
ATOM     33  C   UNL     1      -0.673   1.115  10.549  0.00  0.00    +0.000 A 
ATOM     34  C   UNL     1      -1.691   0.680   9.721  0.00  0.00    +0.006 A 
ATOM     35  C   UNL     1      -1.641  -0.584   9.168  0.00  0.00    -0.021 A 
BRANCH  35  36
ATOM     36  C   UNL     1      -2.751  -1.057   8.265  0.00  0.00    +0.015 C 
ATOM     37  C   UNL     1      -4.074  -1.043   9.034  0.00  0.00    +0.012 C 
ATOM     38  C   UNL     1      -2.855  -0.128   7.054  0.00  0.00    +0.012 C 
ENDBRANCH  35  36
ENDBRANCH  29  30
ENDBRANCH  24  25
ENDBRANCH  23  24
ENDBRANCH   2  23
TORSDOF 12
