REMARK  Name = ZINC32924328
REMARK  8 active torsions:
REMARK  status: ('A' for Active; 'I' for Inactive)
REMARK    1  A    between atoms: C_4  and  O_29
REMARK    2  A    between atoms: C_5  and  C_7
REMARK    3  A    between atoms: C_7  and  N_8
REMARK    4  A    between atoms: C_9  and  C_11
REMARK    5  A    between atoms: N_14  and  C_17
REMARK    6  A    between atoms: C_18  and  C_27
REMARK    7  A    between atoms: C_20  and  C_22
REMARK    8  A    between atoms: O_29  and  C_30
REMARK                            x       y       z     vdW  Elec       q    Type
REMARK                         _______ _______ _______ _____ _____    ______ ____
ROOT
ATOM      1  C   UNL     1      -1.331   2.079   0.020  0.00  0.00    +0.078 C 
ATOM      2  C   UNL     1      -2.133   1.712  -1.232  0.00  0.00    +0.032 C 
ATOM      3  C   UNL     1      -3.440   2.508  -1.247  0.00  0.00    +0.109 C 
ATOM      4  N   UNL     1      -3.139   3.945  -1.240  0.00  0.00    -0.299 N 
ATOM      5  C   UNL     1      -2.411   4.330  -0.025  0.00  0.00    +0.109 C 
ATOM      6  C   UNL     1      -1.073   3.588   0.027  0.00  0.00    +0.032 C 
ENDROOT
BRANCH   4   7
ATOM      7  C   UNL     1      -4.289   4.691  -1.384  0.00  0.00    +0.228 A 
ATOM      8  C   UNL     1      -5.214   4.595  -2.413  0.00  0.00    +0.201 A 
ATOM      9  N   UNL     1      -6.186   5.511  -2.158  0.00  0.00    -0.194 NA
ATOM     10  C   UNL     1      -5.889   6.137  -1.045  0.00  0.00    +0.266 A 
ATOM     11  O   UNL     1      -4.734   5.649  -0.550  0.00  0.00    -0.417 OA
BRANCH  10  12
ATOM     12  C   UNL     1      -6.693   7.202  -0.430  0.00  0.00    +0.189 A 
ATOM     13  C   UNL     1      -7.865   7.702  -0.915  0.00  0.00    +0.055 A 
ATOM     14  C   UNL     1      -8.284   8.699  -0.014  0.00  0.00    +0.042 A 
ATOM     15  C   UNL     1      -7.360   8.760   0.966  0.00  0.00    +0.196 A 
ATOM     16  O   UNL     1      -6.404   7.851   0.716  0.00  0.00    -0.458 OA
ENDBRANCH  10  12
BRANCH   8  17
ATOM     17  C   UNL     1      -5.156   3.702  -3.531  0.00  0.00    +0.124 C 
ATOM     18  N   UNL     1      -5.110   2.994  -4.418  0.00  0.00    -0.189 NA
ENDBRANCH   8  17
ENDBRANCH   4   7
BRANCH   1  20
ATOM     19  N   UNL     1       0.002  -0.004   0.002  0.00  0.00    -0.311 N 
ATOM     20  C   UNL     1      -0.016   1.344   0.009  0.00  0.00    +0.216 C 
ATOM     21  O   UNL     1       1.026   1.964   0.003  0.00  0.00    -0.276 OA
ATOM     22  H   UNL     1      -0.943  -0.567   0.008  0.00  0.00    +0.149 HD
BRANCH  19  23
ATOM     23  C   UNL     1       1.281  -0.719  -0.014  0.00  0.00    +0.143 C 
BRANCH  23  28
ATOM     24  C   UNL     1       0.891  -4.290   1.149  0.00  0.00    +0.001 A 
ATOM     25  C   UNL     1       0.558  -4.933  -0.029  0.00  0.00    +0.004 A 
ATOM     26  C   UNL     1       0.457  -4.215  -1.204  0.00  0.00    +0.046 A 
ATOM     27  C   UNL     1       0.691  -2.847  -1.203  0.00  0.00    +0.132 A 
ATOM     28  C   UNL     1       1.025  -2.204  -0.020  0.00  0.00    +0.011 A 
ATOM     29  C   UNL     1       1.130  -2.928   1.153  0.00  0.00    +0.009 A 
BRANCH  27  30
ATOM     30  O   UNL     1       0.593  -2.138  -2.358  0.00  0.00    -0.434 OA
BRANCH  30  31
ATOM     31  C   UNL     1       0.245  -2.865  -3.538  0.00  0.00    +0.541 C 
ATOM     32  F   UNL     1       1.209  -3.849  -3.781  0.00  0.00    -0.166 F 
ATOM     33  F   UNL     1      -1.004  -3.470  -3.361  0.00  0.00    -0.166 F 
ENDBRANCH  30  31
ENDBRANCH  27  30
ENDBRANCH  23  28
ENDBRANCH  19  23
ENDBRANCH   1  20
TORSDOF 8
