REMARK  Name = ZINC09883851
REMARK  8 active torsions:
REMARK  status: ('A' for Active; 'I' for Inactive)
REMARK    1  A    between atoms: C_1  and  C_2
REMARK    2  A    between atoms: C_2  and  C_28
REMARK    3  A    between atoms: N_5  and  N_9
REMARK    4  A    between atoms: C_10  and  C_12
REMARK    5  A    between atoms: C_12  and  O_13
REMARK    6  A    between atoms: O_13  and  C_14
REMARK    7  A    between atoms: C_14  and  C_16
REMARK    8  A    between atoms: C_16  and  C_21
REMARK                            x       y       z     vdW  Elec       q    Type
REMARK                         _______ _______ _______ _____ _____    ______ ____
ROOT
ATOM      1  N   UNL     1      -3.957  -2.860  -3.247  0.00  0.00    -0.221 N 
ATOM      2  C   UNL     1      -3.079  -2.481  -2.298  0.00  0.00    +0.267 C 
ATOM      3  O   UNL     1      -3.444  -1.776  -1.381  0.00  0.00    -0.271 OA
ATOM      4  H   UNL     1      -3.664  -3.424  -3.981  0.00  0.00    +0.174 HD
ENDROOT
BRANCH   1   9
ATOM      5  C   UNL     1      -7.571   0.037  -2.996  0.00  0.00    +0.047 C 
ATOM      6  C   UNL     1      -7.276  -1.366  -3.530  0.00  0.00    +0.137 C 
ATOM      7  C   UNL     1      -5.826  -1.480  -3.956  0.00  0.00    +0.267 C 
ATOM      8  O   UNL     1      -5.264  -0.841  -4.819  0.00  0.00    -0.271 OA
ATOM      9  N   UNL     1      -5.291  -2.440  -3.175  0.00  0.00    -0.137 N 
ATOM     10  C   UNL     1      -6.194  -2.946  -2.327  0.00  0.00    +0.327 C 
ATOM     11  O   UNL     1      -5.949  -3.826  -1.526  0.00  0.00    -0.251 OA
ATOM     12  N   UNL     1      -7.402  -2.369  -2.458  0.00  0.00    -0.280 N 
ATOM     13  H   UNL     1      -8.201  -2.574  -1.947  0.00  0.00    +0.152 HD
BRANCH   6  14
ATOM     14  C   UNL     1      -8.194  -1.699  -4.677  0.00  0.00    -0.015 A 
ATOM     15  C   UNL     1      -7.798  -1.441  -5.976  0.00  0.00    +0.006 A 
ATOM     16  C   UNL     1      -8.639  -1.751  -7.029  0.00  0.00    +0.000 A 
ATOM     17  C   UNL     1      -9.879  -2.310  -6.783  0.00  0.00    +0.000 A 
ATOM     18  C   UNL     1     -10.277  -2.563  -5.483  0.00  0.00    +0.000 A 
ATOM     19  C   UNL     1      -9.434  -2.258  -4.431  0.00  0.00    +0.006 A 
ENDBRANCH   6  14
ENDBRANCH   1   9
BRANCH   2  20
ATOM     20  C   UNL     1      -1.643  -2.932  -2.375  0.00  0.00    +0.329 C 
BRANCH  20  21
ATOM     21  O   UNL     1      -0.905  -2.396  -1.245  0.00  0.00    -0.455 OA
BRANCH  21  22
ATOM     22  C   UNL     1       0.398  -2.707  -1.165  0.00  0.00    +0.318 C 
ATOM     23  O   UNL     1       0.905  -3.405  -2.011  0.00  0.00    -0.250 OA
BRANCH  22  24
ATOM     24  C   UNL     1       1.228  -2.186  -0.020  0.00  0.00    +0.093 C 
ATOM     25  C   UNL     1       0.683  -2.729   1.317  0.00  0.00    +0.023 C 
ATOM     26  C   UNL     1       1.559  -3.974   1.606  0.00  0.00    +0.001 C 
ATOM     27  C   UNL     1       2.961  -3.527   1.121  0.00  0.00    +0.001 C 
ATOM     28  C   UNL     1       2.675  -2.694  -0.145  0.00  0.00    +0.023 C 
BRANCH  24  29
ATOM     29  C   UNL     1       1.208  -0.679  -0.013  0.00  0.00    -0.031 A 
ATOM     30  C   UNL     1       0.600   0.009  -1.046  0.00  0.00    +0.006 A 
ATOM     31  C   UNL     1       0.581   1.391  -1.039  0.00  0.00    +0.020 A 
ATOM     32  C   UNL     1       1.172   2.086   0.002  0.00  0.00    +0.041 A 
ATOM     33  C   UNL     1       1.781   1.396   1.035  0.00  0.00    +0.020 A 
ATOM     34  C   UNL     1       1.798   0.014   1.028  0.00  0.00    +0.006 A 
ATOM     35 CL   UNL     1       1.149   3.821   0.011  0.00  0.00    -0.084 Cl
ENDBRANCH  24  29
ENDBRANCH  22  24
ENDBRANCH  21  22
ENDBRANCH  20  21
ENDBRANCH   2  20
TORSDOF 7
