REMARK  Name = ZINC39360114
REMARK  12 active torsions:
REMARK  status: ('A' for Active; 'I' for Inactive)
REMARK    1  A    between atoms: C_1  and  C_2
REMARK    2  A    between atoms: C_2  and  C_4
REMARK    3  A    between atoms: C_2  and  C_27
REMARK    4  A    between atoms: C_4  and  N_5
REMARK    5  A    between atoms: C_9  and  C_19
REMARK    6  A    between atoms: C_10  and  O_17
REMARK    7  A    between atoms: O_17  and  C_18
REMARK    8  A    between atoms: N_21  and  C_22
REMARK    9  A    between atoms: C_22  and  C_23
REMARK   10  A    between atoms: C_23  and  C_24
REMARK   11  A    between atoms: C_24  and  C_25
REMARK   12  A    between atoms: C_24  and  C_26
REMARK                            x       y       z     vdW  Elec       q    Type
REMARK                         _______ _______ _______ _____ _____    ______ ____
ROOT
ATOM      1  N   UNL     1      -2.156   0.255  -1.310  0.00  0.00    +0.381 N 
ATOM      2  C   UNL     1      -3.569   0.009  -1.069  0.00  0.00    -0.073 C 
ATOM      3  C   UNL     1      -4.425   0.613  -2.186  0.00  0.00    +0.036 C 
ATOM      4  C   UNL     1      -4.496  -0.385  -3.325  0.00  0.00    +0.036 A 
ATOM      5  C   UNL     1      -5.691  -1.027  -3.580  0.00  0.00    +0.098 A 
ATOM      6  C   UNL     1      -5.748  -1.990  -4.686  0.00  0.00    +0.139 A 
ATOM      7  C   UNL     1      -4.599  -2.204  -5.420  0.00  0.00    +0.116 A 
ATOM      8  C   UNL     1      -3.432  -1.506  -5.088  0.00  0.00    +0.255 A 
ATOM      9  O   UNL     1      -2.416  -1.695  -5.737  0.00  0.00    -0.268 OA
ATOM     10  N   UNL     1      -3.410  -0.629  -4.065  0.00  0.00    -0.313 N 
ATOM     11  C   UNL     1      -2.147   0.072  -3.764  0.00  0.00    +0.106 C 
ATOM     12  C   UNL     1      -1.596  -0.465  -2.442  0.00  0.00    -0.057 C 
ATOM     13  H   UNL     1      -2.029   1.243  -1.465  0.00  0.00    -0.082 HD
ENDROOT
BRANCH   5  14
ATOM     14  C   UNL     1      -6.882  -0.753  -2.759  0.00  0.00    +0.249 C 
ATOM     15  O   UNL     1      -7.193  -1.516  -1.864  0.00  0.00    -0.270 OA
ATOM     16  N   UNL     1      -7.628   0.344  -2.998  0.00  0.00    -0.311 N 
ATOM     17  H   UNL     1      -7.340   0.991  -3.661  0.00  0.00    +0.149 HD
BRANCH  16  18
ATOM     18  C   UNL     1      -8.874   0.559  -2.258  0.00  0.00    +0.105 C 
BRANCH  18  19
ATOM     19  C   UNL     1      -9.521   1.867  -2.717  0.00  0.00    +0.022 C 
BRANCH  19  20
ATOM     20  C   UNL     1     -10.822   2.092  -1.944  0.00  0.00    -0.016 C 
ATOM     21  C   UNL     1     -11.404   3.458  -2.312  0.00  0.00    +0.007 C 
ATOM     22  C   UNL     1     -11.825   0.995  -2.306  0.00  0.00    +0.007 C 
ENDBRANCH  19  20
ENDBRANCH  18  19
ENDBRANCH  16  18
ENDBRANCH   5  14
BRANCH   6  23
ATOM     23  O   UNL     1      -6.894  -2.647  -4.978  0.00  0.00    -0.494 OA
ATOM     24  C   UNL     1      -6.854  -3.565  -6.072  0.00  0.00    +0.277 C 
ENDBRANCH   6  23
BRANCH   1  25
ATOM     25  C   UNL     1      -1.407  -0.123  -0.103  0.00  0.00    -0.071 C 
BRANCH  25  27
ATOM     26  C   UNL     1       0.019   1.925  -0.211  0.00  0.00    +0.010 C 
ATOM     27  C   UNL     1       0.028   0.395  -0.211  0.00  0.00    -0.001 C 
BRANCH  27  28
ATOM     28  C   UNL     1       0.831  -0.103   0.963  0.00  0.00    -0.046 A 
ATOM     29  C   UNL     1       0.448   0.225   2.251  0.00  0.00    +0.004 A 
ATOM     30  C   UNL     1       1.185  -0.232   3.328  0.00  0.00    +0.000 A 
ATOM     31  C   UNL     1       2.304  -1.016   3.118  0.00  0.00    +0.000 A 
ATOM     32  C   UNL     1       2.686  -1.344   1.830  0.00  0.00    +0.000 A 
ATOM     33  C   UNL     1       1.947  -0.891   0.753  0.00  0.00    +0.004 A 
ENDBRANCH  27  28
ENDBRANCH  25  27
ENDBRANCH   1  25
TORSDOF 8
