REMARK  Name = ZINC22011945
REMARK  4 active torsions:
REMARK  status: ('A' for Active; 'I' for Inactive)
REMARK    1  A    between atoms: C_3  and  S_9
REMARK    2  A    between atoms: C_4  and  N_8
REMARK    3  A    between atoms: S_9  and  C_10
REMARK    4  A    between atoms: C_15  and  N_16
REMARK                            x       y       z     vdW  Elec       q    Type
REMARK                         _______ _______ _______ _____ _____    ______ ____
ROOT
ATOM      1  S   UNL     1       2.667   4.075  -0.001  0.00  0.00    -0.085 S 
ENDROOT
BRANCH   1   4
ATOM      2  C   UNL     1       0.411   7.399  -0.212  0.00  0.00    +0.021 A 
ATOM      3  C   UNL     1       0.809   6.079  -0.109  0.00  0.00    +0.018 A 
ATOM      4  C   UNL     1       2.157   5.757  -0.137  0.00  0.00    +0.033 A 
ATOM      5  C   UNL     1       3.109   6.767  -0.280  0.00  0.00    +0.040 A 
ATOM      6  C   UNL     1       2.702   8.088  -0.386  0.00  0.00    +0.043 A 
ATOM      7  C   UNL     1       1.354   8.401  -0.352  0.00  0.00    +0.043 A 
ATOM      8 CL   UNL     1       0.847  10.056  -0.486  0.00  0.00    -0.083 Cl
BRANCH   5   9
ATOM      9  N   UNL     1       4.472   6.448  -0.313  0.00  0.00    -0.357 N 
ATOM     10  H   UNL     1       5.221   7.245  -0.425  0.00  0.00    +0.142 HD
ATOM     11  H   UNL     1       4.793   5.399  -0.228  0.00  0.00    +0.142 HD
ENDBRANCH   5   9
ENDBRANCH   1   4
BRANCH   1  12
ATOM     12  C   UNL     1       1.171   3.201   0.317  0.00  0.00    +0.043 A 
ATOM     13  C   UNL     1       0.554   2.483  -0.701  0.00  0.00    +0.019 A 
ATOM     14  C   UNL     1      -0.618   1.799  -0.449  0.00  0.00    +0.021 A 
ATOM     15  C   UNL     1      -1.177   1.824   0.817  0.00  0.00    +0.043 A 
ATOM     16  C   UNL     1      -0.569   2.542   1.831  0.00  0.00    +0.053 A 
ATOM     17  C   UNL     1       0.604   3.228   1.585  0.00  0.00    +0.141 A 
ATOM     18 CL   UNL     1      -2.648   0.957   1.132  0.00  0.00    -0.083 Cl
BRANCH  17  19
ATOM     19  N   UNL     1       1.257   3.993   2.672  0.00  0.00    +0.058 N 
ATOM     20  O   UNL     1       0.760   4.017   3.783  0.00  0.00    -0.126 OA
ATOM     21  O   UNL     1       2.292   4.598   2.454  0.00  0.00    -0.126 OA
ENDBRANCH  17  19
ENDBRANCH   1  12
TORSDOF 4
