REMARK  Name = ZINC64215319
REMARK  8 active torsions:
REMARK  status: ('A' for Active; 'I' for Inactive)
REMARK    1  A    between atoms: C_1  and  C_2
REMARK    2  A    between atoms: C_9  and  C_14
REMARK    3  A    between atoms: N_16  and  C_17
REMARK    4  A    between atoms: C_17  and  C_19
REMARK    5  A    between atoms: C_17  and  C_29
REMARK    6  A    between atoms: C_19  and  C_20
REMARK    7  A    between atoms: C_29  and  O_31
REMARK    8  A    between atoms: O_31  and  C_32
REMARK                            x       y       z     vdW  Elec       q    Type
REMARK                         _______ _______ _______ _____ _____    ______ ____
ROOT
ATOM      1  C   UNL     1      -0.820  -6.372   1.671  0.00  0.00    +0.245 C 
ATOM      2  O   UNL     1      -1.906  -6.701   1.234  0.00  0.00    -0.270 OA
ATOM      3  N   UNL     1       0.004  -7.300   2.196  0.00  0.00    -0.298 N 
ATOM      4  H   UNL     1       0.870  -7.037   2.545  0.00  0.00    +0.150 HD
ENDROOT
BRANCH   1  12
ATOM      5  C   UNL     1      -0.019   1.526   0.010  0.00  0.00    +0.029 C 
ATOM      6  C   UNL     1       0.002  -0.004   0.002  0.00  0.00    +0.134 C 
ATOM      7  C   UNL     1      -1.408  -0.527   0.019  0.00  0.00    +0.230 C 
ATOM      8  O   UNL     1      -2.287   0.178  -0.430  0.00  0.00    -0.274 OA
ATOM      9  N   UNL     1      -1.745  -1.721   0.500  0.00  0.00    -0.284 N 
ATOM     10  C   UNL     1      -0.877  -2.666   1.042  0.00  0.00    +0.048 A 
ATOM     11  C   UNL     1      -1.262  -3.997   1.085  0.00  0.00    +0.037 A 
ATOM     12  C   UNL     1      -0.406  -4.957   1.629  0.00  0.00    +0.039 A 
ATOM     13  C   UNL     1       0.842  -4.580   2.133  0.00  0.00    +0.014 A 
ATOM     14  C   UNL     1       1.226  -3.258   2.090  0.00  0.00    +0.017 A 
ATOM     15  C   UNL     1       0.377  -2.304   1.547  0.00  0.00    +0.030 A 
ATOM     16  S   UNL     1       0.874  -0.610   1.478  0.00  0.00    -0.111 S 
ATOM     17  H   UNL     1      -2.685  -1.956   0.470  0.00  0.00    +0.155 HD
ENDBRANCH   1  12
BRANCH   3  18
ATOM     18  C   UNL     1      -0.407  -8.705   2.239  0.00  0.00    +0.186 C 
BRANCH  18  19
ATOM     19  C   UNL     1      -1.233  -8.950   3.475  0.00  0.00    +0.328 C 
ATOM     20  O   UNL     1      -1.455  -8.043   4.242  0.00  0.00    -0.249 OA
BRANCH  19  21
ATOM     21  O   UNL     1      -1.722 -10.175   3.724  0.00  0.00    -0.467 OA
ATOM     22  C   UNL     1      -2.496 -10.334   4.915  0.00  0.00    +0.280 C 
ENDBRANCH  19  21
ENDBRANCH  18  19
BRANCH  18  23
ATOM     23  C   UNL     1       0.834  -9.599   2.270  0.00  0.00    +0.067 C 
BRANCH  23  24
ATOM     24  C   UNL     1       1.596  -9.446   0.979  0.00  0.00    -0.039 C 
ATOM     25  C   UNL     1       2.644  -8.623   0.746  0.00  0.00    -0.001 A 
ATOM     26  C   UNL     1       3.361  -7.662   1.592  0.00  0.00    +0.010 A 
ATOM     27  C   UNL     1       4.395  -6.967   1.065  0.00  0.00    +0.001 A 
ATOM     28  C   UNL     1       4.798  -7.142  -0.265  0.00  0.00    +0.002 A 
ATOM     29  C   UNL     1       4.190  -8.007  -1.104  0.00  0.00    +0.026 A 
ATOM     30  C   UNL     1       3.091  -8.790  -0.656  0.00  0.00    +0.043 A 
ATOM     31  N   UNL     1       2.347  -9.681  -1.266  0.00  0.00    -0.380 N 
ATOM     32  C   UNL     1       1.348 -10.185  -0.317  0.00  0.00    +0.144 C 
ATOM     33  H   UNL     1       2.444  -9.963  -2.189  0.00  0.00    +0.160 HD
ENDBRANCH  23  24
ENDBRANCH  18  23
ENDBRANCH   3  18
TORSDOF 6
