REMARK  Name = ZINC38636655
REMARK  14 active torsions:
REMARK  status: ('A' for Active; 'I' for Inactive)
REMARK    1  A    between atoms: C_1  and  C_2
REMARK    2  A    between atoms: C_2  and  C_3
REMARK    3  A    between atoms: C_3  and  O_4
REMARK    4  A    between atoms: O_4  and  C_5
REMARK    5  A    between atoms: C_8  and  S_11
REMARK    6  A    between atoms: S_11  and  N_14
REMARK    7  A    between atoms: N_14  and  C_15
REMARK    8  A    between atoms: C_15  and  C_16
REMARK    9  A    between atoms: C_16  and  C_18
REMARK   10  A    between atoms: C_16  and  N_27
REMARK   11  A    between atoms: C_21  and  N_24
REMARK   12  A    between atoms: N_24  and  C_25
REMARK   13  A    between atoms: N_24  and  C_26
REMARK   14  A    between atoms: N_30  and  C_33
REMARK                            x       y       z     vdW  Elec       q    Type
REMARK                         _______ _______ _______ _____ _____    ______ ____
ROOT
ATOM      1  C   UNL     1      -6.970  -6.153  -3.725  0.00  0.00    +0.102 C 
ENDROOT
BRANCH   1   2
ATOM      2  N   UNL     1      -7.288  -4.913  -4.446  0.00  0.00    -0.298 NA
ATOM      3  C   UNL     1      -8.007  -3.969  -3.579  0.00  0.00    +0.066 C 
ATOM      4  C   UNL     1      -8.266  -2.671  -4.347  0.00  0.00    -0.064 C 
ATOM      5  N   UNL     1      -9.061  -2.963  -5.547  0.00  0.00    +0.379 N 
ATOM      6  C   UNL     1      -8.319  -3.888  -6.415  0.00  0.00    -0.064 C 
ATOM      7  C   UNL     1      -8.060  -5.196  -5.664  0.00  0.00    +0.066 C 
ATOM      8  C   UNL     1      -9.325  -1.715  -6.275  0.00  0.00    -0.096 C 
ATOM      9  H   UNL     1      -9.936  -3.386  -5.276  0.00  0.00    -0.082 HD
ENDBRANCH   1   2
BRANCH   1  10
ATOM     10  C   UNL     1      -6.119  -7.038  -4.599  0.00  0.00    -0.029 A 
ATOM     11  C   UNL     1      -5.118  -6.484  -5.376  0.00  0.00    +0.007 A 
ATOM     12  C   UNL     1      -4.337  -7.292  -6.178  0.00  0.00    +0.023 A 
ATOM     13  C   UNL     1      -4.557  -8.663  -6.204  0.00  0.00    +0.029 A 
ATOM     14  C   UNL     1      -5.564  -9.217  -5.423  0.00  0.00    +0.023 A 
ATOM     15  C   UNL     1      -6.337  -8.403  -4.618  0.00  0.00    +0.007 A 
BRANCH  13  16
ATOM     16  N   UNL     1      -3.769  -9.484  -7.014  0.00  0.00    -0.336 N 
ATOM     17  C   UNL     1      -2.709  -8.898  -7.838  0.00  0.00    +0.129 C 
ATOM     18  C   UNL     1      -4.003 -10.930  -7.041  0.00  0.00    +0.129 C 
ENDBRANCH  13  16
ENDBRANCH   1  10
BRANCH   1  19
ATOM     19  C   UNL     1      -6.205  -5.816  -2.443  0.00  0.00    +0.129 C 
BRANCH  19  20
ATOM     20  N   UNL     1      -5.939  -7.047  -1.696  0.00  0.00    -0.188 NA
ATOM     21  H   UNL     1      -6.415  -7.862  -1.917  0.00  0.00    +0.148 HD
BRANCH  20  22
ATOM     22  S   UNL     1      -4.823  -7.047  -0.472  0.00  0.00    +0.058 S 
ATOM     23  O   UNL     1      -3.654  -6.426  -0.988  0.00  0.00    -0.153 OA
ATOM     24  O   UNL     1      -4.812  -8.362   0.068  0.00  0.00    -0.153 OA
BRANCH  22  28
ATOM     25  C   UNL     1      -6.405  -4.326   2.784  0.00  0.00    +0.121 A 
ATOM     26  C   UNL     1      -6.721  -5.677   2.793  0.00  0.00    +0.047 A 
ATOM     27  C   UNL     1      -6.237  -6.505   1.799  0.00  0.00    +0.032 A 
ATOM     28  C   UNL     1      -5.439  -5.988   0.795  0.00  0.00    +0.105 A 
ATOM     29  C   UNL     1      -5.122  -4.642   0.783  0.00  0.00    +0.032 A 
ATOM     30  C   UNL     1      -5.609  -3.809   1.772  0.00  0.00    +0.047 A 
BRANCH  25  31
ATOM     31  O   UNL     1      -6.880  -3.509   3.760  0.00  0.00    -0.492 OA
BRANCH  31  32
ATOM     32  C   UNL     1      -7.694  -4.110   4.769  0.00  0.00    +0.229 C 
BRANCH  32  34
ATOM     33  C   UNL     1      -9.003  -3.685   6.855  0.00  0.00    +0.007 C 
ATOM     34  C   UNL     1      -8.132  -3.042   5.774  0.00  0.00    +0.038 C 
ENDBRANCH  32  34
ENDBRANCH  31  32
ENDBRANCH  25  31
ENDBRANCH  22  28
ENDBRANCH  20  22
ENDBRANCH  19  20
ENDBRANCH   1  19
TORSDOF 10
