REMARK  Name = ZINC12343182
REMARK  5 active torsions:
REMARK  status: ('A' for Active; 'I' for Inactive)
REMARK    1  A    between atoms: C_1  and  C_2
REMARK    2  A    between atoms: C_2  and  C_23
REMARK    3  A    between atoms: N_3  and  N_4
REMARK    4  A    between atoms: C_5  and  C_7
REMARK    5  A    between atoms: C_9  and  C_13
REMARK                            x       y       z     vdW  Elec       q    Type
REMARK                         _______ _______ _______ _____ _____    ______ ____
ROOT
ATOM      1  C   UNL     1       0.002  -0.004   0.002  0.00  0.00    +0.122 A 
ATOM      2  C   UNL     1      -0.017   1.380   0.010  0.00  0.00    +0.058 A 
ATOM      3  C   UNL     1       1.325   1.768  -0.001  0.00  0.00    +0.070 A 
ATOM      4  N   UNL     1       2.057   0.683  -0.014  0.00  0.00    -0.178 NA
ATOM      5  N   UNL     1       1.319  -0.368  -0.013  0.00  0.00    -0.272 N 
ATOM      6  H   UNL     1       1.657  -1.309  -0.021  0.00  0.00    +0.189 HD
ENDROOT
BRANCH   3   7
ATOM      7  C   UNL     1       1.839   3.185   0.001  0.00  0.00    +0.015 C 
ATOM      8  C   UNL     1       1.063   4.007   1.033  0.00  0.00    +0.016 C 
ATOM      9  C   UNL     1       1.585   5.446   1.035  0.00  0.00    -0.010 C 
ATOM     10  C   UNL     1       3.072   5.448   1.394  0.00  0.00    +0.007 C 
ATOM     11  C   UNL     1       3.848   4.626   0.363  0.00  0.00    -0.010 C 
ATOM     12  C   UNL     1       3.326   3.188   0.360  0.00  0.00    +0.016 C 
ATOM     13  C   UNL     1       3.657   5.240  -1.026  0.00  0.00    +0.007 C 
ATOM     14  C   UNL     1       2.170   5.237  -1.385  0.00  0.00    -0.010 C 
ATOM     15  C   UNL     1       1.395   6.059  -0.354  0.00  0.00    +0.007 C 
ATOM     16  C   UNL     1       1.649   3.799  -1.387  0.00  0.00    +0.016 C 
ENDBRANCH   3   7
BRANCH   1  18
ATOM     17  N   UNL     1      -0.983  -2.239  -0.001  0.00  0.00    -0.201 N 
ATOM     18  C   UNL     1      -1.162  -0.903   0.008  0.00  0.00    +0.281 C 
ATOM     19  O   UNL     1      -2.288  -0.441   0.021  0.00  0.00    -0.267 OA
ATOM     20  H   UNL     1      -0.085  -2.607  -0.011  0.00  0.00    +0.178 HD
BRANCH  17  23
ATOM     21  C   UNL     1      -0.524  -4.954  -0.019  0.00  0.00    +0.068 C 
ATOM     22  C   UNL     1      -1.918  -4.381  -0.003  0.00  0.00    +0.063 C 
ATOM     23  N   UNL     1      -2.091  -3.095   0.005  0.00  0.00    -0.184 NA
BRANCH  22  24
ATOM     24  C   UNL     1      -3.086  -5.282   0.003  0.00  0.00    -0.002 A 
ATOM     25  C   UNL     1      -2.903  -6.667  -0.012  0.00  0.00    +0.011 A 
ATOM     26  C   UNL     1      -3.998  -7.504   0.001  0.00  0.00    +0.020 A 
ATOM     27  C   UNL     1      -5.278  -6.975   0.016  0.00  0.00    +0.041 A 
ATOM     28  C   UNL     1      -5.466  -5.603   0.024  0.00  0.00    +0.020 A 
ATOM     29  C   UNL     1      -4.379  -4.755   0.018  0.00  0.00    +0.011 A 
ATOM     30 CL   UNL     1      -6.652  -8.036   0.024  0.00  0.00    -0.084 Cl
ENDBRANCH  22  24
ENDBRANCH  17  23
ENDBRANCH   1  18
TORSDOF 4
