REMARK  Name = ZINC01329595
REMARK  9 active torsions:
REMARK  status: ('A' for Active; 'I' for Inactive)
REMARK    1  A    between atoms: C_1  and  C_2
REMARK    2  A    between atoms: C_2  and  S_3
REMARK    3  A    between atoms: S_3  and  N_6
REMARK    4  A    between atoms: N_6  and  C_7
REMARK    5  A    between atoms: C_10  and  C_13
REMARK    6  A    between atoms: C_16  and  S_18
REMARK    7  A    between atoms: S_18  and  C_19
REMARK    8  A    between atoms: C_19  and  C_20
REMARK    9  A    between atoms: C_20  and  C_22
REMARK                            x       y       z     vdW  Elec       q    Type
REMARK                         _______ _______ _______ _____ _____    ______ ____
ROOT
ATOM      1  C   UNL     1      -4.906   3.779  -0.680  0.00  0.00    +0.249 A 
ATOM      2  N   UNL     1      -5.931   3.377  -1.392  0.00  0.00    -0.106 NA
ATOM      3  N   UNL     1      -6.867   4.257  -1.327  0.00  0.00    -0.101 NA
ATOM      4  C   UNL     1      -6.477   5.256  -0.571  0.00  0.00    +0.278 A 
ATOM      5  O   UNL     1      -5.232   4.975  -0.141  0.00  0.00    -0.411 OA
ENDROOT
BRANCH   1   9
ATOM      6  C   UNL     1      -1.241   1.697  -0.150  0.00  0.00    +0.048 A 
ATOM      7  C   UNL     1      -1.436   2.927   0.470  0.00  0.00    +0.025 A 
ATOM      8  C   UNL     1      -2.622   3.607   0.296  0.00  0.00    +0.015 A 
ATOM      9  C   UNL     1      -3.632   3.055  -0.496  0.00  0.00    +0.039 A 
ATOM     10  C   UNL     1      -3.434   1.818  -1.113  0.00  0.00    +0.015 A 
ATOM     11  C   UNL     1      -2.245   1.145  -0.938  0.00  0.00    +0.025 A 
BRANCH   6  12
ATOM     12  N   UNL     1      -0.037   1.013   0.025  0.00  0.00    -0.221 N 
ATOM     13  H   UNL     1      -0.043   0.065   0.229  0.00  0.00    +0.173 HD
BRANCH  12  14
ATOM     14  S   UNL     1       1.402   1.819  -0.125  0.00  0.00    +0.043 S 
ATOM     15  O   UNL     1       1.304   2.909   0.781  0.00  0.00    -0.155 OA
ATOM     16  O   UNL     1       2.397   0.819   0.050  0.00  0.00    -0.155 OA
BRANCH  14  18
ATOM     17  C   UNL     1       2.750   3.131  -2.110  0.00  0.00    +0.030 C 
ATOM     18  C   UNL     1       1.421   2.427  -1.834  0.00  0.00    +0.185 C 
ENDBRANCH  14  18
ENDBRANCH  12  14
ENDBRANCH   6  12
ENDBRANCH   1   9
BRANCH   4  19
ATOM     19  S   UNL     1      -7.413   6.698  -0.184  0.00  0.00    -0.058 S 
BRANCH  19  20
ATOM     20  C   UNL     1      -8.932   6.343  -1.102  0.00  0.00    +0.158 C 
BRANCH  20  21
ATOM     21  C   UNL     1      -9.910   7.474  -0.912  0.00  0.00    +0.173 C 
ATOM     22  O   UNL     1      -9.609   8.426  -0.225  0.00  0.00    -0.291 OA
BRANCH  21  23
ATOM     23  C   UNL     1     -11.229   7.423  -1.561  0.00  0.00    +0.018 A 
ATOM     24  C   UNL     1     -11.577   6.328  -2.360  0.00  0.00    +0.013 A 
ATOM     25  C   UNL     1     -12.817   6.284  -2.960  0.00  0.00    +0.020 A 
ATOM     26  C   UNL     1     -13.713   7.326  -2.784  0.00  0.00    +0.041 A 
ATOM     27  C   UNL     1     -13.373   8.416  -1.999  0.00  0.00    +0.020 A 
ATOM     28  C   UNL     1     -12.139   8.471  -1.387  0.00  0.00    +0.013 A 
ATOM     29 CL   UNL     1     -15.270   7.265  -3.550  0.00  0.00    -0.084 Cl
ENDBRANCH  21  23
ENDBRANCH  20  21
ENDBRANCH  19  20
ENDBRANCH   4  19
TORSDOF 8
