REMARK  Name = ZINC01883310
REMARK  9 active torsions:
REMARK  status: ('A' for Active; 'I' for Inactive)
REMARK    1  A    between atoms: C_1  and  C_2
REMARK    2  A    between atoms: C_2  and  O_3
REMARK    3  A    between atoms: O_3  and  C_4
REMARK    4  A    between atoms: C_8  and  C_11
REMARK    5  A    between atoms: C_9  and  O_10
REMARK    6  A    between atoms: N_12  and  C_13
REMARK    7  A    between atoms: C_16  and  O_29
REMARK    8  A    between atoms: C_17  and  C_19
REMARK    9  A    between atoms: C_24  and  C_28
REMARK                            x       y       z     vdW  Elec       q    Type
REMARK                         _______ _______ _______ _____ _____    ______ ____
ROOT
ATOM      1  C   UNL     1       1.016   5.550   0.022  0.00  0.00    +0.065 A 
ATOM      2  C   UNL     1       2.372   5.892   0.010  0.00  0.00    +0.031 A 
ATOM      3  C   UNL     1       3.336   4.907  -0.004  0.00  0.00    +0.048 A 
ATOM      4  C   UNL     1       2.968   3.569  -0.008  0.00  0.00    +0.129 A 
ATOM      5  C   UNL     1       1.611   3.215   0.004  0.00  0.00    +0.080 A 
ATOM      6  C   UNL     1       0.636   4.210   0.013  0.00  0.00    +0.044 A 
ENDROOT
BRANCH   5   7
ATOM      7  C   UNL     1       1.218   1.791   0.000  0.00  0.00    +0.232 A 
ATOM      8  N   UNL     1      -0.016   1.354   0.009  0.00  0.00    -0.209 NA
ATOM      9  C   UNL     1       0.002  -0.004   0.002  0.00  0.00    +0.110 A 
ATOM     10  C   UNL     1      -0.996  -0.982   0.006  0.00  0.00    +0.032 A 
ATOM     11  C   UNL     1      -0.646  -2.314  -0.005  0.00  0.00    +0.005 A 
ATOM     12  C   UNL     1       0.689  -2.689  -0.020  0.00  0.00    -0.047 A 
ATOM     13  C   UNL     1       1.685  -1.735  -0.024  0.00  0.00    +0.052 A 
ATOM     14  C   UNL     1       1.352  -0.389  -0.013  0.00  0.00    +0.156 A 
ATOM     15  O   UNL     1       2.075   0.753  -0.014  0.00  0.00    -0.435 OA
ATOM     16  C   UNL     1       1.055  -4.152  -0.032  0.00  0.00    +0.044 C 
ENDBRANCH   5   7
BRANCH   1  18
ATOM     17  C   UNL     1       0.189   7.552   0.839  0.00  0.00    +0.123 C 
ATOM     18  N   UNL     1       0.062   6.532   0.037  0.00  0.00    -0.255 NA
BRANCH  17  23
ATOM     19  C   UNL     1      -2.912   9.523   0.032  0.00  0.00    +0.163 A 
ATOM     20  C   UNL     1      -2.768  10.602   0.888  0.00  0.00    +0.064 A 
ATOM     21  C   UNL     1      -1.666  10.690   1.725  0.00  0.00    +0.022 A 
ATOM     22  C   UNL     1      -0.703   9.703   1.714  0.00  0.00    +0.028 A 
ATOM     23  C   UNL     1      -0.836   8.607   0.854  0.00  0.00    +0.039 A 
ATOM     24  C   UNL     1      -1.947   8.523   0.004  0.00  0.00    +0.167 A 
ATOM     25 BR   UNL     1      -1.484  12.170   2.888  0.00  0.00    -0.050 Br
BRANCH  24  26
ATOM     26  O   UNL     1      -2.083   7.466  -0.838  0.00  0.00    -0.503 OA
ATOM     27  H   UNL     1      -1.317   6.676  -0.858  0.00  0.00    +0.292 HD
ENDBRANCH  24  26
BRANCH  19  28
ATOM     28  O   UNL     1      -3.995   9.445  -0.787  0.00  0.00    -0.489 OA
BRANCH  28  30
ATOM     29  C   UNL     1      -6.084  10.249  -1.697  0.00  0.00    +0.048 C 
ATOM     30  C   UNL     1      -4.944  10.510  -0.711  0.00  0.00    +0.226 C 
ENDBRANCH  28  30
ENDBRANCH  19  28
ENDBRANCH  17  23
ENDBRANCH   1  18
BRANCH   4  31
ATOM     31  O   UNL     1       3.921   2.603  -0.022  0.00  0.00    -0.506 OA
ATOM     32  H   UNL     1       3.630   1.542  -0.025  0.00  0.00    +0.292 HD
ENDBRANCH   4  31
TORSDOF 7
