REMARK  Name = ZINC21097129
REMARK  7 active torsions:
REMARK  status: ('A' for Active; 'I' for Inactive)
REMARK    1  A    between atoms: C_4  and  C_7
REMARK    2  A    between atoms: C_10  and  S_13
REMARK    3  A    between atoms: S_13  and  C_14
REMARK    4  A    between atoms: C_14  and  C_15
REMARK    5  A    between atoms: N_17  and  C_18
REMARK    6  A    between atoms: C_18  and  C_19
REMARK    7  A    between atoms: C_19  and  C_20
REMARK                            x       y       z     vdW  Elec       q    Type
REMARK                         _______ _______ _______ _____ _____    ______ ____
ROOT
ATOM      1  C   UNL     1      -6.141  -4.669   0.038  0.00  0.00    +0.223 C 
ATOM      2  O   UNL     1      -5.643  -5.775   0.028  0.00  0.00    -0.275 OA
ATOM      3  N   UNL     1      -7.482  -4.534   0.052  0.00  0.00    -0.314 N 
ATOM      4  H   UNL     1      -7.934  -3.532   0.061  0.00  0.00    +0.149 HD
ENDROOT
BRANCH   1   5
ATOM      5  C   UNL     1      -5.261  -3.446   0.035  0.00  0.00    +0.173 C 
BRANCH   5   6
ATOM      6  S   UNL     1      -3.523  -3.953   0.016  0.00  0.00    -0.077 S 
BRANCH   6  10
ATOM      7  C   UNL     1      -1.266  -0.764   0.011  0.00  0.00    +0.182 A 
ATOM      8  N   UNL     1      -1.399  -2.133  -0.001  0.00  0.00    -0.201 NA
ATOM      9  H   UNL     1      -4.421  -0.966   0.046  0.00  0.00    +0.191 HD
ATOM     10  C   UNL     1      -2.743  -2.373   0.016  0.00  0.00    +0.185 A 
ATOM     11  N   UNL     1      -3.347  -1.206   0.033  0.00  0.00    -0.253 N 
ATOM     12  N   UNL     1      -2.478  -0.259   0.032  0.00  0.00    -0.152 NA
BRANCH   7  16
ATOM     13  C   UNL     1       2.377   1.419  -0.018  0.00  0.00    +0.000 A 
ATOM     14  C   UNL     1       1.170   2.095  -0.003  0.00  0.00    +0.001 A 
ATOM     15  C   UNL     1      -0.017   1.391   0.006  0.00  0.00    +0.011 A 
ATOM     16  C   UNL     1       0.002  -0.004   0.000  0.00  0.00    +0.021 A 
ATOM     17  C   UNL     1       1.224  -0.679  -0.015  0.00  0.00    +0.011 A 
ATOM     18  C   UNL     1       2.403   0.036  -0.024  0.00  0.00    +0.001 A 
ENDBRANCH   7  16
ENDBRANCH   6  10
ENDBRANCH   5   6
ENDBRANCH   1   5
BRANCH   3  19
ATOM     19  C   UNL     1      -8.338  -5.723   0.054  0.00  0.00    +0.112 C 
BRANCH  19  20
ATOM     20  C   UNL     1      -9.806  -5.295   0.071  0.00  0.00    +0.093 C 
BRANCH  20  21
ATOM     21  C   UNL     1     -10.687  -6.518   0.073  0.00  0.00    +0.110 A 
ATOM     22  N   UNL     1     -11.652  -6.782   0.995  0.00  0.00    -0.342 N 
ATOM     23  H   UNL     1     -11.835  -6.074   1.817  0.00  0.00    +0.167 HD
ATOM     24  C   UNL     1     -12.229  -7.987   0.651  0.00  0.00    +0.066 A 
ATOM     25  C   UNL     1     -13.245  -8.763   1.195  0.00  0.00    +0.028 A 
ATOM     26  C   UNL     1     -13.592  -9.953   0.592  0.00  0.00    +0.002 A 
ATOM     27  C   UNL     1     -12.934 -10.380  -0.553  0.00  0.00    +0.002 A 
ATOM     28  C   UNL     1     -11.934  -9.629  -1.102  0.00  0.00    +0.030 A 
ATOM     29  C   UNL     1     -11.564  -8.420  -0.508  0.00  0.00    +0.089 A 
ATOM     30  N   UNL     1     -10.638  -7.473  -0.808  0.00  0.00    -0.232 NA
ENDBRANCH  20  21
ENDBRANCH  19  20
ENDBRANCH   3  19
TORSDOF 7
