REMARK  Name = ZINC07172719
REMARK  8 active torsions:
REMARK  status: ('A' for Active; 'I' for Inactive)
REMARK    1  A    between atoms: C_1  and  C_2
REMARK    2  A    between atoms: C_2  and  C_3
REMARK    3  A    between atoms: C_3  and  N_4
REMARK    4  A    between atoms: C_5  and  C_7
REMARK    5  A    between atoms: C_7  and  C_9
REMARK    6  A    between atoms: C_7  and  S_10
REMARK    7  A    between atoms: S_10  and  C_11
REMARK    8  A    between atoms: N_24  and  C_25
REMARK                            x       y       z     vdW  Elec       q    Type
REMARK                         _______ _______ _______ _____ _____    ______ ____
ROOT
ATOM      1  C   UNL     1      -6.937   0.436   0.630  0.00  0.00    +0.174 A 
ATOM      2  N   UNL     1      -6.135   0.756   1.637  0.00  0.00    -0.216 NA
ATOM      3  C   UNL     1      -4.848   0.920   1.361  0.00  0.00    +0.117 A 
ATOM      4  C   UNL     1      -4.292   0.773   0.070  0.00  0.00    +0.076 A 
ATOM      5  C   UNL     1      -2.859   0.992  -0.039  0.00  0.00    -0.023 A 
ATOM      6  C   UNL     1      -2.206   1.312   1.102  0.00  0.00    -0.004 A 
ATOM      7  S   UNL     1      -3.456   1.338   2.362  0.00  0.00    -0.073 S 
ATOM      8  C   UNL     1      -0.738   1.584   1.266  0.00  0.00    +0.043 C 
ATOM      9  C   UNL     1      -0.013   1.086   0.008  0.00  0.00    +0.005 C 
ATOM     10  C   UNL     1      -0.760   1.597  -1.227  0.00  0.00    +0.005 C 
ATOM     11  C   UNL     1      -2.101   0.874  -1.359  0.00  0.00    +0.037 C 
ATOM     12  C   UNL     1      -5.188   0.425  -0.993  0.00  0.00    +0.263 A 
ATOM     13  O   UNL     1      -4.804   0.277  -2.141  0.00  0.00    -0.267 OA
ATOM     14  N   UNL     1      -6.487   0.273  -0.645  0.00  0.00    -0.284 N 
ENDROOT
BRANCH  14  15
ATOM     15  C   UNL     1      -7.453  -0.083  -1.687  0.00  0.00    +0.093 C 
ATOM     16  C   UNL     1      -7.037  -1.405  -2.364  0.00  0.00    +0.025 C 
ATOM     17  C   UNL     1      -7.408  -1.201  -3.855  0.00  0.00    +0.002 C 
ATOM     18  C   UNL     1      -7.049   0.286  -4.096  0.00  0.00    +0.002 C 
ATOM     19  C   UNL     1      -7.461   0.992  -2.788  0.00  0.00    +0.025 C 
ENDBRANCH  14  15
BRANCH   1  20
ATOM     20  S   UNL     1      -8.654   0.210   0.956  0.00  0.00    -0.075 S 
BRANCH  20  21
ATOM     21  C   UNL     1      -8.682   0.537   2.736  0.00  0.00    +0.137 C 
ATOM     22  C   UNL     1      -7.877  -0.540   3.465  0.00  0.00    +0.029 C 
BRANCH  21  24
ATOM     23  N   UNL     1     -10.444   1.202   4.339  0.00  0.00    -0.314 N 
ATOM     24  C   UNL     1     -10.106   0.519   3.228  0.00  0.00    +0.226 C 
ATOM     25  O   UNL     1     -10.948  -0.110   2.623  0.00  0.00    -0.275 OA
ATOM     26  H   UNL     1      -9.771   1.705   4.823  0.00  0.00    +0.149 HD
BRANCH  23  27
ATOM     27  C   UNL     1     -11.829   1.184   4.817  0.00  0.00    +0.104 C 
BRANCH  27  29
ATOM     28  C   UNL     1     -13.387   2.014   6.585  0.00  0.00    +0.005 C 
ATOM     29  C   UNL     1     -11.941   2.032   6.086  0.00  0.00    +0.015 C 
ENDBRANCH  27  29
ENDBRANCH  23  27
ENDBRANCH  21  24
ENDBRANCH  20  21
ENDBRANCH   1  20
TORSDOF 6
