REMARK  Name = ZINC13356018
REMARK  6 active torsions:
REMARK  status: ('A' for Active; 'I' for Inactive)
REMARK    1  A    between atoms: C_3  and  C_25
REMARK    2  A    between atoms: C_4  and  N_8
REMARK    3  A    between atoms: C_9  and  C_11
REMARK    4  A    between atoms: C_11  and  S_12
REMARK    5  A    between atoms: S_12  and  C_13
REMARK    6  A    between atoms: N_18  and  C_19
REMARK                            x       y       z     vdW  Elec       q    Type
REMARK                         _______ _______ _______ _____ _____    ______ ____
ROOT
ATOM      1  C   UNL     1       1.426  -4.896   7.245  0.00  0.00    +0.172 C 
ENDROOT
BRANCH   1   3
ATOM      2  N   UNL     1       1.644  -5.568   9.616  0.00  0.00    -0.284 N 
ATOM      3  C   UNL     1       1.526  -5.941   8.326  0.00  0.00    +0.227 C 
ATOM      4  O   UNL     1       1.501  -7.118   8.036  0.00  0.00    -0.275 OA
ATOM      5  H   UNL     1       1.730  -4.629   9.843  0.00  0.00    +0.155 HD
BRANCH   2   9
ATOM      6  C   UNL     1       1.643  -8.451  12.631  0.00  0.00    +0.021 A 
ATOM      7  C   UNL     1       1.049  -7.230  12.863  0.00  0.00    +0.018 A 
ATOM      8  C   UNL     1       1.042  -6.256  11.861  0.00  0.00    +0.084 A 
ATOM      9  C   UNL     1       1.644  -6.530  10.622  0.00  0.00    +0.049 A 
ATOM     10  C   UNL     1       2.233  -7.767  10.404  0.00  0.00    +0.044 A 
ATOM     11  C   UNL     1       2.237  -8.719  11.406  0.00  0.00    +0.043 A 
ATOM     12 CL   UNL     1       2.982 -10.262  11.128  0.00  0.00    -0.083 Cl
BRANCH   8  13
ATOM     13  C   UNL     1       0.409  -4.948  12.103  0.00  0.00    +0.388 C 
ATOM     14  O   UNL     1       0.319  -4.140  11.200  0.00  0.00    -0.241 OA
ATOM     15  O   UNL     1      -0.071  -4.648  13.326  0.00  0.00    -0.241 OA
ENDBRANCH   8  13
ENDBRANCH   2   9
ENDBRANCH   1   3
BRANCH   1  16
ATOM     16  S   UNL     1       1.278  -5.708   5.630  0.00  0.00    -0.088 S 
BRANCH  16  17
ATOM     17  C   UNL     1       1.172  -4.371   4.488  0.00  0.00    +0.160 A 
ATOM     18  N   UNL     1       1.192  -3.072   4.718  0.00  0.00    -0.133 NA
ATOM     19  N   UNL     1       1.099  -2.190   3.667  0.00  0.00    -0.125 NA
ATOM     20  C   UNL     1       0.982  -2.646   2.435  0.00  0.00    +0.183 A 
ATOM     21  S   UNL     1       1.008  -4.411   2.710  0.00  0.00    -0.025 S 
ATOM     22  N   UNL     1       0.872  -1.942   1.242  0.00  0.00    -0.319 N 
ATOM     23  H   UNL     1       0.796  -2.421   0.401  0.00  0.00    +0.148 HD
BRANCH  22  24
ATOM     24  C   UNL     1       0.872  -0.477   1.252  0.00  0.00    +0.072 C 
ATOM     25  C   UNL     1       0.146   0.042   0.010  0.00  0.00    +0.022 C 
ATOM     26  C   UNL     1       0.145   1.572   0.021  0.00  0.00    +0.002 C 
ATOM     27  C   UNL     1       1.587   2.082   0.020  0.00  0.00    +0.000 C 
ATOM     28  C   UNL     1       2.314   1.563   1.262  0.00  0.00    +0.002 C 
ATOM     29  C   UNL     1       2.314   0.033   1.251  0.00  0.00    +0.022 C 
ENDBRANCH  22  24
ENDBRANCH  16  17
ENDBRANCH   1  16
TORSDOF 6
