REMARK  Name = ZINC05007656
REMARK  4 active torsions:
REMARK  status: ('A' for Active; 'I' for Inactive)
REMARK    1  A    between atoms: C_1  and  O_2
REMARK    2  A    between atoms: O_2  and  C_3
REMARK    3  A    between atoms: C_3  and  C_5
REMARK    4  A    between atoms: C_8  and  N_11
REMARK                            x       y       z     vdW  Elec       q    Type
REMARK                         _______ _______ _______ _____ _____    ______ ____
ROOT
ATOM      1  N   UNL     1       3.247   5.663   0.061  0.00  0.00    -0.184 N 
ATOM      2  C   UNL     1       2.913   4.359   0.100  0.00  0.00    +0.273 C 
ATOM      3  O   UNL     1       3.676   3.418   0.191  0.00  0.00    -0.268 OA
ATOM      4  C   UNL     1       1.436   4.293   0.011  0.00  0.00    +0.114 C 
ATOM      5  C   UNL     1       0.642   3.161   0.013  0.00  0.00    +0.063 C 
ATOM      6  C   UNL     1      -0.827   3.096   0.095  0.00  0.00    +0.009 A 
ATOM      7  C   UNL     1      -1.821   4.071   0.189  0.00  0.00    +0.010 A 
ATOM      8  C   UNL     1      -3.146   3.691   0.251  0.00  0.00    +0.001 A 
ATOM      9  C   UNL     1      -3.486   2.348   0.218  0.00  0.00    +0.002 A 
ATOM     10  C   UNL     1      -2.510   1.375   0.124  0.00  0.00    +0.024 A 
ATOM     11  C   UNL     1      -1.170   1.734   0.055  0.00  0.00    +0.042 A 
ATOM     12  N   UNL     1      -0.013   0.967  -0.035  0.00  0.00    -0.281 N 
ATOM     13  C   UNL     1       1.086   1.740  -0.068  0.00  0.00    +0.250 C 
ATOM     14  O   UNL     1       2.234   1.352  -0.148  0.00  0.00    -0.270 OA
ATOM     15  C   UNL     1       0.996   5.704  -0.086  0.00  0.00    +0.266 C 
ATOM     16  O   UNL     1      -0.149   6.101  -0.182  0.00  0.00    -0.268 OA
ATOM     17  N   UNL     1       2.109   6.462  -0.047  0.00  0.00    -0.223 N 
ATOM     18  H   UNL     1      -0.001  -0.002  -0.073  0.00  0.00    +0.155 HD
ATOM     19  H   UNL     1       2.117   7.431  -0.090  0.00  0.00    +0.174 HD
ENDROOT
BRANCH   1  23
ATOM     20  C   UNL     1       7.146   7.113   0.237  0.00  0.00    +0.059 A 
ATOM     21  C   UNL     1       6.072   8.002   0.129  0.00  0.00    +0.017 A 
ATOM     22  C   UNL     1       4.785   7.519   0.071  0.00  0.00    +0.026 A 
ATOM     23  C   UNL     1       4.551   6.148   0.119  0.00  0.00    +0.056 A 
ATOM     24  C   UNL     1       5.617   5.260   0.232  0.00  0.00    +0.026 A 
ATOM     25  C   UNL     1       6.908   5.736   0.285  0.00  0.00    +0.017 A 
BRANCH  20  26
ATOM     26  C   UNL     1       8.527   7.626   0.298  0.00  0.00    +0.339 C 
ATOM     27  O   UNL     1       8.733   8.823   0.255  0.00  0.00    -0.245 OA
BRANCH  26  29
ATOM     28  C   UNL     1      10.893   7.344   0.458  0.00  0.00    +0.280 C 
ATOM     29  O   UNL     1       9.561   6.768   0.402  0.00  0.00    -0.464 OA
ENDBRANCH  26  29
ENDBRANCH  20  26
ENDBRANCH   1  23
TORSDOF 3
