REMARK  Name = ZINC06923595
REMARK  4 active torsions:
REMARK  status: ('A' for Active; 'I' for Inactive)
REMARK    1  A    between atoms: C_1  and  C_2
REMARK    2  A    between atoms: C_5  and  C_8
REMARK    3  A    between atoms: N_15  and  C_22
REMARK    4  A    between atoms: C_18  and  O_21
REMARK                            x       y       z     vdW  Elec       q    Type
REMARK                         _______ _______ _______ _____ _____    ______ ____
ROOT
ATOM      1  C   UNL     1       0.059  -4.275  -0.021  0.00  0.00    +0.116 C 
ATOM      2  C   UNL     1      -1.179  -4.778   0.657  0.00  0.00    +0.079 A 
ATOM      3  C   UNL     1      -2.370  -4.017   0.718  0.00  0.00    +0.271 A 
ATOM      4  O   UNL     1      -2.527  -2.903   0.248  0.00  0.00    -0.266 OA
ATOM      5  N   UNL     1      -3.296  -4.727   1.379  0.00  0.00    -0.261 N 
ATOM      6  H   UNL     1      -4.205  -4.444   1.565  0.00  0.00    +0.190 HD
ATOM      7  N   UNL     1      -2.724  -5.943   1.753  0.00  0.00    -0.263 N 
ATOM      8  C   UNL     1      -1.406  -5.967   1.303  0.00  0.00    +0.161 A 
ATOM      9  N   UNL     1      -0.620  -7.014   1.530  0.00  0.00    -0.197 NA
ATOM     10  C   UNL     1       0.571  -7.336   1.292  0.00  0.00    +0.199 C 
ATOM     11  C   UNL     1       1.615  -6.621   0.528  0.00  0.00    +0.165 C 
ATOM     12  S   UNL     1       1.567  -4.839   0.776  0.00  0.00    -0.138 S 
ENDROOT
BRANCH   1  17
ATOM     13  C   UNL     1      -0.018   1.503   0.010  0.00  0.00    +0.044 C 
ATOM     14  C   UNL     1       0.002  -0.004   0.002  0.00  0.00    -0.050 A 
ATOM     15  C   UNL     1       0.006  -0.689  -1.199  0.00  0.00    +0.003 A 
ATOM     16  C   UNL     1       0.025  -2.071  -1.206  0.00  0.00    +0.005 A 
ATOM     17  C   UNL     1       0.040  -2.768  -0.013  0.00  0.00    -0.030 A 
ATOM     18  C   UNL     1       0.037  -2.084   1.188  0.00  0.00    +0.005 A 
ATOM     19  C   UNL     1       0.023  -0.702   1.195  0.00  0.00    +0.003 A 
ENDBRANCH   1  17
BRANCH   7  20
ATOM     20  C   UNL     1      -3.397  -7.015   2.492  0.00  0.00    +0.107 C 
ATOM     21  C   UNL     1      -4.609  -7.500   1.696  0.00  0.00    +0.027 C 
ATOM     22  C   UNL     1      -5.311  -8.619   2.468  0.00  0.00    +0.002 C 
ATOM     23  C   UNL     1      -5.772  -8.089   3.828  0.00  0.00    +0.000 C 
ATOM     24  C   UNL     1      -4.559  -7.604   4.623  0.00  0.00    +0.002 C 
ATOM     25  C   UNL     1      -3.857  -6.485   3.851  0.00  0.00    +0.027 C 
ENDBRANCH   7  20
BRANCH  10  26
ATOM     26  O   UNL     1       0.955  -8.514   1.813  0.00  0.00    -0.495 OA
ATOM     27  H   UNL     1       0.262  -8.969   2.310  0.00  0.00    +0.293 HD
ENDBRANCH  10  26
TORSDOF 3
