REMARK  Name = ZINC27642765
REMARK  4 active torsions:
REMARK  status: ('A' for Active; 'I' for Inactive)
REMARK    1  A    between atoms: C_3  and  C_6
REMARK    2  A    between atoms: N_11  and  C_14
REMARK    3  A    between atoms: C_17  and  O_20
REMARK    4  A    between atoms: O_20  and  C_21
REMARK                            x       y       z     vdW  Elec       q    Type
REMARK                         _______ _______ _______ _____ _____    ______ ____
ROOT
ATOM      1  C   UNL     1      -0.018   1.468   0.010  0.00  0.00    +0.148 C 
ATOM      2  C   UNL     1       1.324   2.173   0.001  0.00  0.00    +0.058 C 
ATOM      3  C   UNL     1       2.434   1.407  -0.014  0.00  0.00    +0.040 C 
ATOM      4  C   UNL     1       3.608   2.360  -0.020  0.00  0.00    +0.165 C 
ATOM      5  N   UNL     1       3.006   3.701  -0.007  0.00  0.00    -0.262 N 
ATOM      6  C   UNL     1       1.671   3.539   0.005  0.00  0.00    +0.251 C 
ATOM      7  O   UNL     1       0.867   4.453   0.019  0.00  0.00    -0.270 OA
ATOM      8  N   UNL     1       2.353   0.043  -0.021  0.00  0.00    -0.271 N 
ATOM      9  C   UNL     1       1.196  -0.630  -0.013  0.00  0.00    +0.304 C 
ATOM     10  O   UNL     1       1.222  -1.845  -0.019  0.00  0.00    -0.252 OA
ATOM     11  N   UNL     1       0.002  -0.004   0.002  0.00  0.00    -0.288 N 
ATOM     12  H   UNL     1       3.272  -0.562  -0.033  0.00  0.00    +0.156 HD
ATOM     13  H   UNL     1      -0.943  -0.567   0.008  0.00  0.00    +0.151 HD
ENDROOT
BRANCH   5  14
ATOM     14  C   UNL     1       3.695   4.921  -0.007  0.00  0.00    +0.037 A 
ATOM     15  C   UNL     1       5.083   4.935  -0.015  0.00  0.00    +0.027 A 
ATOM     16  C   UNL     1       5.761   6.138  -0.022  0.00  0.00    +0.048 A 
ATOM     17  C   UNL     1       5.056   7.332  -0.008  0.00  0.00    +0.130 A 
ATOM     18  C   UNL     1       3.669   7.319   0.006  0.00  0.00    +0.048 A 
ATOM     19  C   UNL     1       2.989   6.117   0.007  0.00  0.00    +0.027 A 
BRANCH  17  20
ATOM     20  O   UNL     1       5.725   8.516  -0.008  0.00  0.00    -0.406 OA
BRANCH  20  21
ATOM     21  C   UNL     1       7.152   8.455  -0.024  0.00  0.00    +0.575 C 
ATOM     22  F   UNL     1       7.578   7.782  -1.174  0.00  0.00    -0.133 F 
ATOM     23  F   UNL     1       7.675   9.753  -0.022  0.00  0.00    -0.133 F 
ATOM     24  F   UNL     1       7.602   7.770   1.110  0.00  0.00    -0.133 F 
ENDBRANCH  20  21
ENDBRANCH  17  20
ENDBRANCH   5  14
BRANCH   1  27
ATOM     25  C   UNL     1      -2.277   3.192  -2.527  0.00  0.00    +0.008 A 
ATOM     26  C   UNL     1      -1.680   2.949  -1.304  0.00  0.00    +0.013 A 
ATOM     27  C   UNL     1      -0.793   1.929  -1.197  0.00  0.00    +0.015 A 
ATOM     28  S   UNL     1      -0.774   1.280  -2.860  0.00  0.00    -0.099 S 
ATOM     29  C   UNL     1      -1.957   2.405  -3.583  0.00  0.00    +0.045 A 
ENDBRANCH   1  27
TORSDOF 4
