REMARK  Name = ZINC05343437
REMARK  9 active torsions:
REMARK  status: ('A' for Active; 'I' for Inactive)
REMARK    1  A    between atoms: C_1  and  C_2
REMARK    2  A    between atoms: C_4  and  C_31
REMARK    3  A    between atoms: C_5  and  O_30
REMARK    4  A    between atoms: C_6  and  C_8
REMARK    5  A    between atoms: N_16  and  C_26
REMARK    6  A    between atoms: C_17  and  C_19
REMARK    7  A    between atoms: C_26  and  C_27
REMARK    8  A    between atoms: C_27  and  C_28
REMARK    9  A    between atoms: C_28  and  O_29
REMARK                            x       y       z     vdW  Elec       q    Type
REMARK                         _______ _______ _______ _____ _____    ______ ____
ROOT
ATOM      1  C   UNL     1      -0.031  -2.990   2.559  0.00  0.00    +0.075 A 
ATOM      2  C   UNL     1       1.068  -3.637   3.027  0.00  0.00    +0.035 A 
ATOM      3  C   UNL     1       0.694  -4.185   4.275  0.00  0.00    +0.153 A 
ATOM      4  N   UNL     1      -0.564  -3.849   4.480  0.00  0.00    -0.168 NA
ATOM      5  N   UNL     1      -1.009  -3.148   3.499  0.00  0.00    -0.276 N 
ATOM      6  H   UNL     1      -1.907  -2.786   3.434  0.00  0.00    +0.189 HD
ATOM      7  C   UNL     1       1.860  -4.900   4.824  0.00  0.00    +0.268 C 
ATOM      8  O   UNL     1       1.876  -5.487   5.888  0.00  0.00    -0.268 OA
ATOM      9  N   UNL     1       2.904  -4.811   3.981  0.00  0.00    -0.285 N 
ATOM     10  C   UNL     1       2.503  -4.028   2.807  0.00  0.00    +0.141 C 
ENDROOT
BRANCH   1  16
ATOM     11  C   UNL     1      -2.014  -2.525  -1.996  0.00  0.00    +0.044 C 
ATOM     12  C   UNL     1      -1.095  -2.024  -0.912  0.00  0.00    -0.049 A 
ATOM     13  C   UNL     1      -0.356  -0.871  -1.113  0.00  0.00    +0.010 A 
ATOM     14  C   UNL     1       0.490  -0.403  -0.125  0.00  0.00    -0.008 A 
ATOM     15  C   UNL     1       0.602  -1.087   1.075  0.00  0.00    +0.129 A 
ATOM     16  C   UNL     1      -0.144  -2.252   1.282  0.00  0.00    +0.042 A 
ATOM     17  C   UNL     1      -0.998  -2.712   0.280  0.00  0.00    +0.017 A 
ATOM     18  C   UNL     1       1.292   0.853  -0.354  0.00  0.00    +0.047 C 
BRANCH  15  19
ATOM     19  O   UNL     1       1.433  -0.627   2.046  0.00  0.00    -0.506 OA
ATOM     20  H   UNL     1       1.037   0.044   2.617  0.00  0.00    +0.292 HD
ENDBRANCH  15  19
ENDBRANCH   1  16
BRANCH  10  21
ATOM     21  C   UNL     1       2.626  -4.865   1.560  0.00  0.00    -0.022 A 
ATOM     22  C   UNL     1       2.128  -6.155   1.542  0.00  0.00    +0.007 A 
ATOM     23  C   UNL     1       2.240  -6.923   0.398  0.00  0.00    +0.020 A 
ATOM     24  C   UNL     1       2.850  -6.402  -0.728  0.00  0.00    +0.041 A 
ATOM     25  C   UNL     1       3.349  -5.111  -0.710  0.00  0.00    +0.020 A 
ATOM     26  C   UNL     1       3.231  -4.342   0.432  0.00  0.00    +0.007 A 
ATOM     27 CL   UNL     1       2.992  -7.367  -2.165  0.00  0.00    -0.084 Cl
ENDBRANCH  10  21
BRANCH   9  28
ATOM     28  C   UNL     1       4.227  -5.401   4.200  0.00  0.00    +0.111 C 
BRANCH  28  29
ATOM     29  C   UNL     1       4.258  -6.815   3.617  0.00  0.00    +0.047 C 
BRANCH  29  30
ATOM     30  C   UNL     1       5.640  -7.431   3.846  0.00  0.00    +0.157 C 
BRANCH  30  31
ATOM     31  O   UNL     1       5.669  -8.751   3.301  0.00  0.00    -0.395 OA
ATOM     32  H   UNL     1       6.517  -9.203   3.410  0.00  0.00    +0.209 HD
ENDBRANCH  30  31
ENDBRANCH  29  30
ENDBRANCH  28  29
ENDBRANCH   9  28
TORSDOF 7
