REMARK  Name = ZINC16951681
REMARK  6 active torsions:
REMARK  status: ('A' for Active; 'I' for Inactive)
REMARK    1  A    between atoms: C_1  and  C_2
REMARK    2  A    between atoms: C_9  and  O_11
REMARK    3  A    between atoms: C_16  and  C_29
REMARK    4  A    between atoms: C_26  and  C_27
REMARK    5  A    between atoms: C_26  and  N_62
REMARK    6  A    between atoms: C_27  and  O_28
REMARK                            x       y       z     vdW  Elec       q    Type
REMARK                         _______ _______ _______ _____ _____    ______ ____
ROOT
ATOM      1  C   UNL     1       2.141   6.426  -0.339  0.00  0.00    +0.010 C 
ATOM      2  C   UNL     1       0.925   6.810   0.499  0.00  0.00    +0.018 C 
ATOM      3  C   UNL     1      -0.307   6.965  -0.394  0.00  0.00    -0.005 C 
ATOM      4  C   UNL     1      -1.447   7.540   0.459  0.00  0.00    +0.004 C 
ATOM      5  C   UNL     1      -1.554   6.739   1.764  0.00  0.00    +0.010 C 
ATOM      6  C   UNL     1      -0.835   5.378   1.556  0.00  0.00    +0.000 C 
ATOM      7  C   UNL     1       0.652   5.697   1.523  0.00  0.00    +0.124 C 
ATOM      8  C   UNL     1      -1.195   4.490   2.733  0.00  0.00    +0.010 C 
ATOM      9  C   UNL     1      -0.818   3.032   2.554  0.00  0.00    +0.005 C 
ATOM     10  C   UNL     1      -0.463   2.651   1.132  0.00  0.00    -0.002 C 
ATOM     11  C   UNL     1      -0.578   1.127   0.955  0.00  0.00    -0.044 C 
ATOM     12  C   UNL     1      -0.058   0.750  -0.434  0.00  0.00    +0.005 C 
ATOM     13  C   UNL     1      -0.847   1.465  -1.524  0.00  0.00    +0.001 C 
ATOM     14  C   UNL     1      -0.848   2.973  -1.301  0.00  0.00    +0.006 C 
ATOM     15  C   UNL     1      -1.352   3.333   0.101  0.00  0.00    -0.037 C 
ATOM     16  C   UNL     1      -1.375   4.841   0.244  0.00  0.00    +0.003 C 
ATOM     17  C   UNL     1      -0.727   5.585  -0.923  0.00  0.00    +0.008 C 
ATOM     18  C   UNL     1      -2.792   2.825   0.256  0.00  0.00    -0.071 C 
ATOM     19  C   UNL     1      -2.029   0.685   1.110  0.00  0.00    -0.072 C 
ATOM     20  C   UNL     1       0.287   0.425   2.008  0.00  0.00    +0.009 C 
ATOM     21  N   UNL     1      -2.865   1.355   0.097  0.00  0.00    +0.382 N 
ATOM     22  H   UNL     1      -2.520   1.105  -0.838  0.00  0.00    -0.082 HD
ENDROOT
BRANCH   7  23
ATOM     23  O   UNL     1       1.483   4.591   1.220  0.00  0.00    -0.391 OA
ATOM     24  H   UNL     1       2.427   4.801   1.201  0.00  0.00    +0.210 HD
ENDBRANCH   7  23
BRANCH  21  25
ATOM     25  C   UNL     1      -4.260   0.906   0.230  0.00  0.00    -0.051 C 
BRANCH  25  26
ATOM     26  C   UNL     1      -5.063   1.426  -0.964  0.00  0.00    +0.137 C 
BRANCH  26  27
ATOM     27  O   UNL     1      -4.544   0.863  -2.170  0.00  0.00    -0.397 OA
ATOM     28  H   UNL     1      -5.006   1.149  -2.969  0.00  0.00    +0.209 HD
ENDBRANCH  26  27
ENDBRANCH  25  26
ENDBRANCH  21  25
TORSDOF 4
