REMARK  Name = ZINC63985557
REMARK  10 active torsions:
REMARK  status: ('A' for Active; 'I' for Inactive)
REMARK    1  A    between atoms: C_1  and  C_2
REMARK    2  A    between atoms: C_2  and  C_4
REMARK    3  A    between atoms: C_2  and  N_10
REMARK    4  A    between atoms: C_11  and  C_13
REMARK    5  A    between atoms: N_16  and  C_18
REMARK    6  A    between atoms: C_18  and  C_19
REMARK    7  A    between atoms: C_19  and  O_20
REMARK    8  A    between atoms: C_25  and  C_27
REMARK    9  A    between atoms: C_27  and  C_28
REMARK   10  A    between atoms: C_28  and  C_29
REMARK                            x       y       z     vdW  Elec       q    Type
REMARK                         _______ _______ _______ _____ _____    ______ ____
ROOT
ATOM      1  C   UNL     1      -3.437  -1.154  -1.134  0.00  0.00    +0.152 A 
ATOM      2  C   UNL     1      -4.266  -1.352  -2.249  0.00  0.00    +0.023 A 
ATOM      3  C   UNL     1      -5.438  -1.833  -1.765  0.00  0.00    +0.046 A 
ATOM      4  N   UNL     1      -5.310  -1.912  -0.429  0.00  0.00    -0.265 N 
ATOM      5  N   UNL     1      -4.136  -1.520  -0.073  0.00  0.00    -0.166 NA
ATOM      6  C   UNL     1      -6.623  -2.198  -2.621  0.00  0.00    +0.074 C 
ATOM      7  C   UNL     1      -6.465  -1.532  -3.994  0.00  0.00    +0.114 C 
ATOM      8  N   UNL     1      -5.088  -1.723  -4.471  0.00  0.00    -0.297 N 
ATOM      9  C   UNL     1      -3.989  -1.102  -3.708  0.00  0.00    +0.147 C 
ATOM     10  C   UNL     1      -4.835  -2.448  -5.579  0.00  0.00    +0.216 C 
ATOM     11  O   UNL     1      -3.693  -2.596  -5.960  0.00  0.00    -0.276 OA
ENDROOT
BRANCH   1  13
ATOM     12  N   UNL     1      -1.372  -0.511   0.012  0.00  0.00    -0.303 N 
ATOM     13  C   UNL     1      -2.051  -0.643  -1.145  0.00  0.00    +0.265 C 
ATOM     14  O   UNL     1      -1.522  -0.341  -2.197  0.00  0.00    -0.268 OA
ATOM     15  H   UNL     1      -1.794  -0.752   0.852  0.00  0.00    +0.150 HD
BRANCH  12  17
ATOM     16  C   UNL     1      -0.019   1.526   0.010  0.00  0.00    +0.033 C 
ATOM     17  C   UNL     1       0.002  -0.004   0.002  0.00  0.00    +0.100 C 
BRANCH  17  18
ATOM     18  C   UNL     1       0.731  -0.503   1.223  0.00  0.00    -0.027 A 
ATOM     19  C   UNL     1       0.081  -0.558   2.442  0.00  0.00    +0.005 A 
ATOM     20  C   UNL     1       0.749  -1.016   3.562  0.00  0.00    +0.000 A 
ATOM     21  C   UNL     1       2.068  -1.420   3.463  0.00  0.00    +0.000 A 
ATOM     22  C   UNL     1       2.718  -1.365   2.244  0.00  0.00    +0.000 A 
ATOM     23  C   UNL     1       2.048  -0.911   1.123  0.00  0.00    +0.005 A 
ENDBRANCH  17  18
ENDBRANCH  12  17
ENDBRANCH   1  13
BRANCH   4  24
ATOM     24  C   UNL     1      -6.352  -2.381   0.487  0.00  0.00    +0.171 C 
BRANCH  24  25
ATOM     25  C   UNL     1      -6.220  -3.893   0.679  0.00  0.00    +0.179 C 
BRANCH  25  26
ATOM     26  O   UNL     1      -7.237  -4.351   1.573  0.00  0.00    -0.393 OA
ATOM     27  H   UNL     1      -7.213  -5.303   1.741  0.00  0.00    +0.209 HD
ENDBRANCH  25  26
ENDBRANCH  24  25
ENDBRANCH   4  24
BRANCH  10  28
ATOM     28  C   UNL     1      -5.972  -3.074  -6.345  0.00  0.00    +0.100 C 
BRANCH  28  29
ATOM     29  C   UNL     1      -5.417  -3.836  -7.550  0.00  0.00    +0.042 C 
BRANCH  29  30
ATOM     30  C   UNL     1      -6.553  -4.462  -8.316  0.00  0.00    -0.041 C 
ATOM     31  C   UNL     1      -7.187  -3.950  -9.395  0.00  0.00    -0.001 A 
ATOM     32  C   UNL     1      -7.015  -2.703 -10.150  0.00  0.00    +0.010 A 
ATOM     33  C   UNL     1      -7.819  -2.461 -11.210  0.00  0.00    +0.001 A 
ATOM     34  C   UNL     1      -8.811  -3.369 -11.604  0.00  0.00    +0.002 A 
ATOM     35  C   UNL     1      -9.030  -4.535 -10.961  0.00  0.00    +0.026 A 
ATOM     36  C   UNL     1      -8.241  -4.892  -9.832  0.00  0.00    +0.043 A 
ATOM     37  N   UNL     1      -8.259  -5.947  -9.054  0.00  0.00    -0.380 N 
ATOM     38  C   UNL     1      -7.212  -5.795  -8.037  0.00  0.00    +0.144 C 
ATOM     39  H   UNL     1      -8.861  -6.703  -9.138  0.00  0.00    +0.160 HD
ENDBRANCH  29  30
ENDBRANCH  28  29
ENDBRANCH  10  28
TORSDOF 9
