REMARK  Name = ZINC09611435
REMARK  9 active torsions:
REMARK  status: ('A' for Active; 'I' for Inactive)
REMARK    1  A    between atoms: C_1  and  C_2
REMARK    2  A    between atoms: C_7  and  N_12
REMARK    3  A    between atoms: C_9  and  C_11
REMARK    4  A    between atoms: C_13  and  C_15
REMARK    5  A    between atoms: C_15  and  C_17
REMARK    6  A    between atoms: C_15  and  N_24
REMARK    7  A    between atoms: C_17  and  C_18
REMARK    8  A    between atoms: N_24  and  S_25
REMARK    9  A    between atoms: S_25  and  C_28
REMARK                            x       y       z     vdW  Elec       q    Type
REMARK                         _______ _______ _______ _____ _____    ______ ____
ROOT
ATOM      1  C   UNL     1       5.693   1.238  -2.060  0.00  0.00    +0.166 C 
ENDROOT
BRANCH   1   3
ATOM      2  N   UNL     1       3.260   1.226  -1.613  0.00  0.00    -0.311 N 
ATOM      3  C   UNL     1       4.331   0.598  -2.138  0.00  0.00    +0.232 C 
ATOM      4  O   UNL     1       4.198  -0.483  -2.672  0.00  0.00    -0.274 OA
ATOM      5  H   UNL     1       3.366   2.090  -1.186  0.00  0.00    +0.149 HD
BRANCH   2  11
ATOM      6  C   UNL     1      -1.204   1.016   0.502  0.00  0.00    +0.008 C 
ATOM      7  C   UNL     1      -0.325   0.485  -0.633  0.00  0.00    -0.009 C 
ATOM      8  C   UNL     1      -0.971   0.821  -1.978  0.00  0.00    +0.003 C 
ATOM      9  C   UNL     1      -0.093   0.290  -3.113  0.00  0.00    +0.002 C 
ATOM     10  C   UNL     1       1.290   0.940  -3.034  0.00  0.00    +0.022 C 
ATOM     11  C   UNL     1       1.936   0.604  -1.688  0.00  0.00    +0.076 C 
ATOM     12  C   UNL     1       1.058   1.135  -0.554  0.00  0.00    +0.009 C 
ATOM     13  C   UNL     1       1.703   0.799   0.792  0.00  0.00    +0.009 C 
ENDBRANCH   2  11
ENDBRANCH   1   3
BRANCH   1  14
ATOM     14  N   UNL     1       6.681   0.363  -2.697  0.00  0.00    -0.178 NA
ATOM     15  H   UNL     1       7.084  -0.360  -2.193  0.00  0.00    +0.149 HD
BRANCH  14  16
ATOM     16  S   UNL     1       7.108   0.609  -4.278  0.00  0.00    +0.059 S 
ATOM     17  O   UNL     1       8.084  -0.374  -4.593  0.00  0.00    -0.153 OA
ATOM     18  O   UNL     1       5.897   0.742  -5.010  0.00  0.00    -0.153 OA
BRANCH  16  19
ATOM     19  C   UNL     1       7.920   2.171  -4.361  0.00  0.00    +0.106 A 
ATOM     20  C   UNL     1       7.176   3.329  -4.499  0.00  0.00    +0.030 A 
ATOM     21  C   UNL     1       7.809   4.555  -4.560  0.00  0.00    +0.025 A 
ATOM     22  C   UNL     1       9.194   4.623  -4.493  0.00  0.00    +0.037 A 
ATOM     23  C   UNL     1       9.938   3.458  -4.360  0.00  0.00    -0.024 A 
ATOM     24  C   UNL     1       9.299   2.235  -4.295  0.00  0.00    +0.034 A 
ATOM     25  C   UNL     1      11.441   3.532  -4.287  0.00  0.00    +0.046 C 
ATOM     26  C   UNL     1      11.939   4.683  -5.161  0.00  0.00    +0.101 C 
ATOM     27  C   UNL     1      11.150   5.930  -4.865  0.00  0.00    +0.218 C 
ATOM     28  O   UNL     1      11.700   7.010  -4.903  0.00  0.00    -0.275 OA
ATOM     29  N   UNL     1       9.842   5.860  -4.559  0.00  0.00    -0.285 N 
ATOM     30  H   UNL     1       9.344   6.674  -4.383  0.00  0.00    +0.155 HD
ENDBRANCH  16  19
ENDBRANCH  14  16
ENDBRANCH   1  14
BRANCH   1  31
ATOM     31  C   UNL     1       6.072   1.454  -0.594  0.00  0.00    +0.065 C 
BRANCH  31  32
ATOM     32  C   UNL     1       7.369   2.218  -0.518  0.00  0.00    -0.045 A 
ATOM     33  C   UNL     1       8.574   1.541  -0.558  0.00  0.00    +0.004 A 
ATOM     34  C   UNL     1       9.763   2.242  -0.492  0.00  0.00    +0.000 A 
ATOM     35  C   UNL     1       9.748   3.620  -0.378  0.00  0.00    +0.000 A 
ATOM     36  C   UNL     1       8.543   4.296  -0.332  0.00  0.00    +0.000 A 
ATOM     37  C   UNL     1       7.354   3.595  -0.402  0.00  0.00    +0.004 A 
ENDBRANCH  31  32
ENDBRANCH   1  31
TORSDOF 7
