REMARK  Name = ZINC38964448
REMARK  14 active torsions:
REMARK  status: ('A' for Active; 'I' for Inactive)
REMARK    1  A    between atoms: C_1  and  C_2
REMARK    2  A    between atoms: C_5  and  N_9
REMARK    3  A    between atoms: C_7  and  C_8
REMARK    4  A    between atoms: N_9  and  C_10
REMARK    5  A    between atoms: C_10  and  C_11
REMARK    6  A    between atoms: C_16  and  O_23
REMARK    7  A    between atoms: O_23  and  C_24
REMARK    8  A    between atoms: C_25  and  C_27
REMARK    9  A    between atoms: C_29  and  O_37
REMARK   10  A    between atoms: C_30  and  O_35
REMARK   11  A    between atoms: C_31  and  O_33
REMARK   12  A    between atoms: O_33  and  C_34
REMARK   13  A    between atoms: O_35  and  C_36
REMARK   14  A    between atoms: O_37  and  C_38
REMARK                            x       y       z     vdW  Elec       q    Type
REMARK                         _______ _______ _______ _____ _____    ______ ____
ROOT
ATOM      1  N   UNL     1       3.252  -5.534   0.533  0.00  0.00    -0.266 N 
ATOM      2  C   UNL     1       2.343  -5.851   1.475  0.00  0.00    +0.251 C 
ATOM      3  O   UNL     1       2.694  -6.018   2.627  0.00  0.00    -0.270 OA
ENDROOT
BRANCH   1   8
ATOM      4  C   UNL     1       8.577  -4.283   2.036  0.00  0.00    +0.044 C 
ATOM      5  C   UNL     1       7.162  -4.615   1.637  0.00  0.00    -0.047 A 
ATOM      6  C   UNL     1       6.828  -4.712   0.298  0.00  0.00    +0.005 A 
ATOM      7  C   UNL     1       5.532  -5.016  -0.071  0.00  0.00    +0.024 A 
ATOM      8  C   UNL     1       4.565  -5.226   0.903  0.00  0.00    +0.037 A 
ATOM      9  C   UNL     1       4.904  -5.129   2.247  0.00  0.00    +0.027 A 
ATOM     10  C   UNL     1       6.203  -4.829   2.609  0.00  0.00    -0.046 A 
ATOM     11  C   UNL     1       6.573  -4.729   4.067  0.00  0.00    +0.044 C 
ENDBRANCH   1   8
BRANCH   2  12
ATOM     12  C   UNL     1       0.920  -5.995   1.109  0.00  0.00    +0.044 A 
ATOM     13  C   UNL     1       0.565  -6.644  -0.076  0.00  0.00    +0.062 A 
ATOM     14  C   UNL     1      -0.768  -6.778  -0.417  0.00  0.00    +0.166 A 
ATOM     15  C   UNL     1      -1.756  -6.267   0.420  0.00  0.00    +0.204 A 
ATOM     16  C   UNL     1      -1.405  -5.620   1.602  0.00  0.00    +0.166 A 
ATOM     17  C   UNL     1      -0.074  -5.489   1.950  0.00  0.00    +0.062 A 
BRANCH  16  18
ATOM     18  O   UNL     1      -2.373  -5.122   2.417  0.00  0.00    -0.491 OA
ATOM     19  C   UNL     1      -1.941  -4.470   3.614  0.00  0.00    +0.277 C 
ENDBRANCH  16  18
BRANCH  15  20
ATOM     20  O   UNL     1      -3.066  -6.400   0.083  0.00  0.00    -0.488 OA
ATOM     21  C   UNL     1      -3.739  -7.574   0.543  0.00  0.00    +0.277 C 
ENDBRANCH  15  20
BRANCH  14  22
ATOM     22  O   UNL     1      -1.114  -7.409  -1.571  0.00  0.00    -0.491 OA
ATOM     23  C   UNL     1      -0.371  -7.071  -2.743  0.00  0.00    +0.277 C 
ENDBRANCH  14  22
ENDBRANCH   2  12
BRANCH   1  24
ATOM     24  C   UNL     1       2.866  -5.511  -0.880  0.00  0.00    +0.131 C 
BRANCH  24  25
ATOM     25  C   UNL     1       3.618  -6.611  -1.632  0.00  0.00    +0.116 C 
ATOM     26  C   UNL     1       3.328  -6.444  -3.111  0.00  0.00    -0.003 C 
ATOM     27  C   UNL     1       2.765  -7.502  -3.761  0.00  0.00    -0.004 A 
ATOM     28  C   UNL     1       2.453  -7.425  -5.188  0.00  0.00    +0.055 A 
ATOM     29  C   UNL     1       1.889  -8.506  -5.796  0.00  0.00    +0.121 A 
ATOM     30  C   UNL     1       1.608  -9.677  -5.082  0.00  0.00    +0.047 A 
ATOM     31  C   UNL     1       1.875  -9.807  -3.757  0.00  0.00    +0.027 A 
ATOM     32  C   UNL     1       2.457  -8.747  -3.036  0.00  0.00    +0.041 A 
ATOM     33  N   UNL     1       2.714  -8.889  -1.736  0.00  0.00    -0.284 N 
ATOM     34  C   UNL     1       3.257  -7.936  -0.999  0.00  0.00    +0.226 C 
ATOM     35  O   UNL     1       3.467  -8.124   0.184  0.00  0.00    -0.275 OA
ATOM     36  H   UNL     1       2.490  -9.732  -1.310  0.00  0.00    +0.155 HD
BRANCH  29  37
ATOM     37  O   UNL     1       1.595  -8.447  -7.122  0.00  0.00    -0.495 OA
ATOM     38  C   UNL     1       1.005  -9.609  -7.708  0.00  0.00    +0.277 C 
ENDBRANCH  29  37
ENDBRANCH  24  25
ENDBRANCH   1  24
TORSDOF 8
