REMARK  Name = ZINC17148927
REMARK  8 active torsions:
REMARK  status: ('A' for Active; 'I' for Inactive)
REMARK    1  A    between atoms: C_4  and  O_33
REMARK    2  A    between atoms: C_5  and  C_7
REMARK    3  A    between atoms: N_8  and  C_9
REMARK    4  A    between atoms: C_12  and  S_15
REMARK    5  A    between atoms: S_15  and  C_18
REMARK    6  A    between atoms: C_21  and  N_24
REMARK    7  A    between atoms: C_25  and  C_26
REMARK    8  A    between atoms: C_31  and  O_32
REMARK                            x       y       z     vdW  Elec       q    Type
REMARK                         _______ _______ _______ _____ _____    ______ ____
ROOT
ATOM      1  S   UNL     1       1.185   7.321  -1.228  0.00  0.00    +0.025 S 
ATOM      2  O   UNL     1       1.660   6.007  -1.490  0.00  0.00    -0.164 OA
ATOM      3  O   UNL     1       1.322   8.381  -2.165  0.00  0.00    -0.164 OA
ENDROOT
BRANCH   1   7
ATOM      4  C   UNL     1      -3.242   6.943  -0.337  0.00  0.00    +0.064 A 
ATOM      5  C   UNL     1      -2.391   5.852  -0.142  0.00  0.00    +0.029 A 
ATOM      6  C   UNL     1      -1.046   5.973  -0.421  0.00  0.00    +0.029 A 
ATOM      7  C   UNL     1      -0.536   7.174  -0.881  0.00  0.00    +0.094 A 
ATOM      8  C   UNL     1      -1.372   8.260  -1.071  0.00  0.00    +0.029 A 
ATOM      9  C   UNL     1      -2.720   8.152  -0.802  0.00  0.00    +0.029 A 
BRANCH   4  11
ATOM     10  C   UNL     1      -5.239   5.781  -0.476  0.00  0.00    +0.123 C 
ATOM     11  N   UNL     1      -4.579   6.829  -0.068  0.00  0.00    -0.255 NA
BRANCH  10  16
ATOM     12  C   UNL     1      -8.733   4.427  -0.348  0.00  0.00    +0.001 A 
ATOM     13  C   UNL     1      -9.385   5.426   0.357  0.00  0.00    +0.004 A 
ATOM     14  C   UNL     1      -8.694   6.540   0.794  0.00  0.00    +0.046 A 
ATOM     15  C   UNL     1      -7.340   6.666   0.527  0.00  0.00    +0.125 A 
ATOM     16  C   UNL     1      -6.675   5.658  -0.187  0.00  0.00    +0.034 A 
ATOM     17  C   UNL     1      -7.388   4.538  -0.628  0.00  0.00    +0.013 A 
BRANCH  15  18
ATOM     18  O   UNL     1      -6.660   7.760   0.956  0.00  0.00    -0.506 OA
ATOM     19  H   UNL     1      -6.651   8.490   0.322  0.00  0.00    +0.292 HD
ENDBRANCH  15  18
ENDBRANCH  10  16
ENDBRANCH   4  11
ENDBRANCH   1   7
BRANCH   1  20
ATOM     20  C   UNL     1       1.972   7.855   0.255  0.00  0.00    +0.094 A 
ATOM     21  C   UNL     1       2.121   9.207   0.507  0.00  0.00    +0.029 A 
ATOM     22  C   UNL     1       2.732   9.632   1.669  0.00  0.00    +0.029 A 
ATOM     23  C   UNL     1       3.209   8.694   2.586  0.00  0.00    +0.064 A 
ATOM     24  C   UNL     1       3.060   7.331   2.323  0.00  0.00    +0.029 A 
ATOM     25  C   UNL     1       2.442   6.920   1.160  0.00  0.00    +0.029 A 
BRANCH  23  26
ATOM     26  N   UNL     1       3.820   9.109   3.739  0.00  0.00    -0.255 NA
ATOM     27  C   UNL     1       4.872   9.876   3.679  0.00  0.00    +0.123 C 
BRANCH  27  28
ATOM     28  C   UNL     1       5.520  10.137   2.384  0.00  0.00    +0.034 A 
ATOM     29  C   UNL     1       5.453   9.186   1.361  0.00  0.00    +0.013 A 
ATOM     30  C   UNL     1       6.058   9.439   0.149  0.00  0.00    +0.001 A 
ATOM     31  C   UNL     1       6.741  10.626  -0.058  0.00  0.00    +0.004 A 
ATOM     32  C   UNL     1       6.819  11.572   0.946  0.00  0.00    +0.046 A 
ATOM     33  C   UNL     1       6.213  11.338   2.171  0.00  0.00    +0.125 A 
BRANCH  33  34
ATOM     34  O   UNL     1       6.288  12.266   3.157  0.00  0.00    -0.506 OA
ATOM     35  H   UNL     1       7.047  12.153   3.747  0.00  0.00    +0.292 HD
ENDBRANCH  33  34
ENDBRANCH  27  28
ENDBRANCH  23  26
ENDBRANCH   1  20
TORSDOF 8
