REMARK  Name = ZINC45970098
REMARK  6 active torsions:
REMARK  status: ('A' for Active; 'I' for Inactive)
REMARK    1  A    between atoms: C_6  and  C_7
REMARK    2  A    between atoms: C_10  and  S_12
REMARK    3  A    between atoms: S_12  and  C_13
REMARK    4  A    between atoms: C_13  and  C_14
REMARK    5  A    between atoms: N_16  and  N_17
REMARK    6  A    between atoms: N_17  and  C_18
REMARK                            x       y       z     vdW  Elec       q    Type
REMARK                         _______ _______ _______ _____ _____    ______ ____
ROOT
ATOM      1  C   UNL     1      -5.248  -3.599   0.036  0.00  0.00    +0.176 C 
ENDROOT
BRANCH   1   2
ATOM      2  C   UNL     1      -6.020  -4.893   0.041  0.00  0.00    +0.239 C 
ATOM      3  O   UNL     1      -5.429  -5.952   0.036  0.00  0.00    -0.273 OA
ATOM      4  N   UNL     1      -7.368  -4.873   0.050  0.00  0.00    -0.236 N 
ATOM      5  H   UNL     1      -7.840  -4.026   0.053  0.00  0.00    +0.173 HD
BRANCH   4   6
ATOM      6  N   UNL     1      -8.086  -6.076   0.054  0.00  0.00    -0.264 N 
ATOM      7  H   UNL     1      -7.613  -6.923   0.050  0.00  0.00    +0.170 HD
BRANCH   6   8
ATOM      8  C   UNL     1      -9.484  -6.056   0.063  0.00  0.00    +0.045 A 
ATOM      9  C   UNL     1     -10.162  -4.844   0.063  0.00  0.00    +0.027 A 
ATOM     10  C   UNL     1     -11.543  -4.826   0.072  0.00  0.00    +0.040 A 
ATOM     11  C   UNL     1     -12.251  -6.016   0.082  0.00  0.00    +0.124 A 
ATOM     12  C   UNL     1     -11.577  -7.225   0.083  0.00  0.00    +0.040 A 
ATOM     13  C   UNL     1     -10.196  -7.248   0.068  0.00  0.00    +0.027 A 
ATOM     14  F   UNL     1     -13.602  -5.996   0.091  0.00  0.00    -0.205 F 
ENDBRANCH   6   8
ENDBRANCH   4   6
ENDBRANCH   1   2
BRANCH   1  15
ATOM     15  S   UNL     1      -3.469  -3.956   0.024  0.00  0.00    -0.056 S 
BRANCH  15  19
ATOM     16  C   UNL     1      -1.265  -0.763   0.011  0.00  0.00    +0.249 A 
ATOM     17  N   UNL     1      -2.474  -0.255   0.019  0.00  0.00    -0.106 NA
ATOM     18  N   UNL     1      -3.338  -1.208   0.025  0.00  0.00    -0.101 NA
ATOM     19  C   UNL     1      -2.715  -2.364   0.020  0.00  0.00    +0.278 A 
ATOM     20  O   UNL     1      -1.392  -2.109   0.005  0.00  0.00    -0.411 OA
BRANCH  16  26
ATOM     21  C   UNL     1      -0.017   1.392   0.010  0.00  0.00    +0.014 A 
ATOM     22  C   UNL     1       1.170   2.095   0.002  0.00  0.00    +0.021 A 
ATOM     23  C   UNL     1       2.378   1.419  -0.013  0.00  0.00    +0.041 A 
ATOM     24  C   UNL     1       2.404   0.034  -0.021  0.00  0.00    +0.021 A 
ATOM     25  C   UNL     1       1.224  -0.680  -0.014  0.00  0.00    +0.014 A 
ATOM     26  C   UNL     1       0.002  -0.004   0.002  0.00  0.00    +0.039 A 
ATOM     27 CL   UNL     1       3.868   2.311  -0.022  0.00  0.00    -0.084 Cl
ENDBRANCH  16  26
ENDBRANCH  15  19
ENDBRANCH   1  15
TORSDOF 6
