REMARK  Name = ZINC22718736
REMARK  13 active torsions:
REMARK  status: ('A' for Active; 'I' for Inactive)
REMARK    1  A    between atoms: C_1  and  C_2
REMARK    2  A    between atoms: C_2  and  C_4
REMARK    3  A    between atoms: C_2  and  N_31
REMARK    4  A    between atoms: C_7  and  S_16
REMARK    5  A    between atoms: N_8  and  C_9
REMARK    6  A    between atoms: S_16  and  C_17
REMARK    7  A    between atoms: C_17  and  C_19
REMARK    8  A    between atoms: C_17  and  C_20
REMARK    9  A    between atoms: N_22  and  C_23
REMARK   10  A    between atoms: C_28  and  S_29
REMARK   11  A    between atoms: S_29  and  C_30
REMARK   12  A    between atoms: N_31  and  C_32
REMARK   13  A    between atoms: N_31  and  C_33
REMARK                            x       y       z     vdW  Elec       q    Type
REMARK                         _______ _______ _______ _____ _____    ______ ____
ROOT
ATOM      1  C   UNL     1      -1.494   3.500   2.483  0.00  0.00    +0.125 A 
ATOM      2  N   UNL     1      -2.605   3.014   2.959  0.00  0.00    -0.135 NA
ATOM      3  N   UNL     1      -2.923   3.620   4.047  0.00  0.00    -0.122 NA
ATOM      4  C   UNL     1      -2.025   4.535   4.328  0.00  0.00    +0.197 A 
ATOM      5  N   UNL     1      -1.080   4.485   3.340  0.00  0.00    -0.275 N 
ENDROOT
BRANCH   5   6
ATOM      6  C   UNL     1       0.072   5.278   3.227  0.00  0.00    +0.050 A 
ATOM      7  C   UNL     1       1.329   4.696   3.320  0.00  0.00    +0.028 A 
ATOM      8  C   UNL     1       2.461   5.479   3.204  0.00  0.00    +0.022 A 
ATOM      9  C   UNL     1       2.343   6.843   3.006  0.00  0.00    +0.041 A 
ATOM     10  C   UNL     1       1.091   7.426   2.918  0.00  0.00    +0.022 A 
ATOM     11  C   UNL     1      -0.044   6.647   3.028  0.00  0.00    +0.028 A 
ATOM     12 CL   UNL     1       3.768   7.825   2.866  0.00  0.00    -0.084 Cl
ENDBRANCH   5   6
BRANCH   1  14
ATOM     13  C   UNL     1      -1.545   3.590   0.005  0.00  0.00    -0.005 C 
ATOM     14  C   UNL     1      -0.791   3.057   1.225  0.00  0.00    -0.003 C 
BRANCH  14  15
ATOM     15  N   UNL     1      -0.754   1.589   1.176  0.00  0.00    +0.382 N 
ATOM     16  C   UNL     1      -0.075   1.120  -0.039  0.00  0.00    -0.096 C 
ATOM     17  C   UNL     1      -0.119   1.038   2.380  0.00  0.00    -0.096 C 
ATOM     18  H   UNL     1      -1.792   1.226   1.145  0.00  0.00    -0.082 HD
ENDBRANCH  14  15
ENDBRANCH   1  14
BRANCH   4  19
ATOM     19  S   UNL     1      -2.031   5.618   5.718  0.00  0.00    -0.073 S 
BRANCH  19  20
ATOM     20  C   UNL     1      -3.555   5.076   6.531  0.00  0.00    +0.137 C 
ATOM     21  C   UNL     1      -4.752   5.390   5.632  0.00  0.00    +0.029 C 
BRANCH  20  22
ATOM     22  C   UNL     1      -3.709   5.801   7.843  0.00  0.00    +0.230 C 
ATOM     23  O   UNL     1      -3.179   6.880   8.006  0.00  0.00    -0.274 OA
ATOM     24  N   UNL     1      -4.434   5.250   8.836  0.00  0.00    -0.284 N 
ATOM     25  H   UNL     1      -4.975   4.307   8.665  0.00  0.00    +0.155 HD
BRANCH  24  26
ATOM     26  C   UNL     1      -4.500   5.877  10.088  0.00  0.00    +0.047 A 
ATOM     27  C   UNL     1      -4.494   7.261  10.172  0.00  0.00    +0.024 A 
ATOM     28  C   UNL     1      -4.565   7.878  11.408  0.00  0.00    +0.002 A 
ATOM     29  C   UNL     1      -4.631   7.120  12.562  0.00  0.00    +0.001 A 
ATOM     30  C   UNL     1      -4.632   5.740  12.488  0.00  0.00    +0.016 A 
ATOM     31  C   UNL     1      -4.566   5.112  11.252  0.00  0.00    +0.029 A 
BRANCH  31  32
ATOM     32  S   UNL     1      -4.567   3.352  11.154  0.00  0.00    -0.127 S 
ATOM     33  C   UNL     1      -4.663   2.816  12.884  0.00  0.00    +0.090 C 
ENDBRANCH  31  32
ENDBRANCH  24  26
ENDBRANCH  20  22
ENDBRANCH  19  20
ENDBRANCH   4  19
TORSDOF 8
