REMARK  Name = ZINC03428850
REMARK  10 active torsions:
REMARK  status: ('A' for Active; 'I' for Inactive)
REMARK    1  A    between atoms: C_1  and  C_2
REMARK    2  A    between atoms: C_2  and  O_3
REMARK    3  A    between atoms: O_3  and  C_4
REMARK    4  A    between atoms: C_4  and  C_6
REMARK    5  A    between atoms: C_7  and  C_26
REMARK    6  A    between atoms: C_10  and  N_11
REMARK    7  A    between atoms: C_12  and  C_14
REMARK    8  A    between atoms: C_14  and  N_15
REMARK    9  A    between atoms: C_29  and  C_33
REMARK   10  A    between atoms: C_31  and  C_32
REMARK                            x       y       z     vdW  Elec       q    Type
REMARK                         _______ _______ _______ _____ _____    ______ ____
ROOT
ATOM      1  C   UNL     1      -3.838  -2.818  -3.863  0.00  0.00    +0.095 A 
ATOM      2  C   UNL     1      -4.278  -2.890  -5.243  0.00  0.00    +0.005 A 
ATOM      3  C   UNL     1      -3.462  -2.334  -6.174  0.00  0.00    +0.056 A 
ATOM      4  S   UNL     1      -2.105  -1.706  -5.206  0.00  0.00    -0.080 S 
ATOM      5  C   UNL     1      -2.624  -2.187  -3.626  0.00  0.00    +0.086 A 
ENDROOT
BRANCH   2   6
ATOM      6  C   UNL     1      -5.556  -3.540  -5.619  0.00  0.00    -0.014 A 
ATOM      7  C   UNL     1      -5.657  -4.931  -5.630  0.00  0.00    +0.009 A 
ATOM      8  C   UNL     1      -6.850  -5.530  -5.980  0.00  0.00    +0.004 A 
ATOM      9  C   UNL     1      -7.944  -4.754  -6.320  0.00  0.00    -0.050 A 
ATOM     10  C   UNL     1      -7.849  -3.374  -6.311  0.00  0.00    +0.007 A 
ATOM     11  C   UNL     1      -6.663  -2.763  -5.957  0.00  0.00    -0.042 A 
ATOM     12  C   UNL     1      -6.564  -1.260  -5.942  0.00  0.00    +0.044 C 
ATOM     13  C   UNL     1      -9.243  -5.415  -6.702  0.00  0.00    +0.044 C 
ENDBRANCH   2   6
BRANCH   5  14
ATOM     14  N   UNL     1      -1.984  -1.984  -2.414  0.00  0.00    -0.278 N 
ATOM     15  C   UNL     1      -0.798  -1.344  -2.377  0.00  0.00    +0.236 C 
ATOM     16  O   UNL     1      -0.292  -0.946  -3.404  0.00  0.00    -0.274 OA
ATOM     17  H   UNL     1      -2.389  -2.303  -1.592  0.00  0.00    +0.155 HD
BRANCH  15  18
ATOM     18  C   UNL     1      -0.102  -1.124  -1.058  0.00  0.00    +0.214 C 
BRANCH  18  19
ATOM     19  N   UNL     1       1.158  -0.412  -1.285  0.00  0.00    -0.215 N 
ATOM     20  C   UNL     1       1.281   0.933  -1.285  0.00  0.00    +0.247 C 
ATOM     21  O   UNL     1       0.404   1.751  -1.109  0.00  0.00    -0.273 OA
ATOM     22  C   UNL     1       2.740   1.199  -1.556  0.00  0.00    +0.113 C 
ATOM     23  C   UNL     1       3.382   1.979  -0.402  0.00  0.00    +0.035 C 
ATOM     24  C   UNL     1       4.412   2.904  -1.101  0.00  0.00    +0.003 C 
ATOM     25  C   UNL     1       3.681   3.307  -2.408  0.00  0.00    +0.003 C 
ATOM     26  C   UNL     1       2.926   2.027  -2.830  0.00  0.00    +0.035 C 
ATOM     27  N   UNL     1       3.336  -0.132  -1.692  0.00  0.00    -0.285 N 
ATOM     28  C   UNL     1       2.332  -1.014  -1.517  0.00  0.00    +0.310 C 
ATOM     29  O   UNL     1       2.475  -2.220  -1.566  0.00  0.00    -0.252 OA
ATOM     30  H   UNL     1       4.267  -0.337  -1.872  0.00  0.00    +0.151 HD
ENDBRANCH  18  19
ENDBRANCH  15  18
ENDBRANCH   5  14
BRANCH   1  31
ATOM     31  C   UNL     1      -4.634  -3.383  -2.773  0.00  0.00    +0.342 C 
ATOM     32  O   UNL     1      -5.482  -2.705  -2.225  0.00  0.00    -0.245 OA
BRANCH  31  33
ATOM     33  O   UNL     1      -4.428  -4.656  -2.376  0.00  0.00    -0.461 OA
BRANCH  33  35
ATOM     34  C   UNL     1      -4.878  -6.601  -0.982  0.00  0.00    +0.048 C 
ATOM     35  C   UNL     1      -5.254  -5.150  -1.290  0.00  0.00    +0.229 C 
ENDBRANCH  33  35
ENDBRANCH  31  33
ENDBRANCH   1  31
TORSDOF 7
