REMARK  Name = ZINC24884606
REMARK  12 active torsions:
REMARK  status: ('A' for Active; 'I' for Inactive)
REMARK    1  A    between atoms: C_1  and  C_2
REMARK    2  A    between atoms: C_2  and  N_3
REMARK    3  A    between atoms: N_3  and  C_4
REMARK    4  A    between atoms: N_3  and  C_6
REMARK    5  A    between atoms: C_4  and  C_5
REMARK    6  A    between atoms: C_6  and  C_8
REMARK    7  A    between atoms: C_6  and  C_32
REMARK    8  A    between atoms: C_8  and  N_9
REMARK    9  A    between atoms: C_10  and  C_12
REMARK   10  A    between atoms: C_12  and  S_13
REMARK   11  A    between atoms: S_13  and  C_14
REMARK   12  A    between atoms: C_27  and  C_31
REMARK                            x       y       z     vdW  Elec       q    Type
REMARK                         _______ _______ _______ _____ _____    ______ ____
ROOT
ATOM      1  S   UNL     1      -4.152  -4.124  -1.660  0.00  0.00    -0.078 S 
ENDROOT
BRANCH   1   2
ATOM      2  C   UNL     1      -2.535  -3.715  -2.228  0.00  0.00    +0.178 A 
ATOM      3  N   UNL     1      -2.193  -2.452  -2.282  0.00  0.00    -0.223 NA
ATOM      4  C   UNL     1      -0.967  -2.069  -2.709  0.00  0.00    +0.079 A 
ATOM      5  C   UNL     1      -0.600  -0.721  -2.768  0.00  0.00    +0.028 A 
ATOM      6  C   UNL     1       0.648  -0.379  -3.206  0.00  0.00    +0.002 A 
ATOM      7  C   UNL     1       1.561  -1.351  -3.593  0.00  0.00    +0.001 A 
ATOM      8  C   UNL     1       1.231  -2.677  -3.548  0.00  0.00    +0.015 A 
ATOM      9  C   UNL     1      -0.036  -3.055  -3.106  0.00  0.00    +0.065 A 
ATOM     10  C   UNL     1      -0.445  -4.464  -3.036  0.00  0.00    +0.268 A 
ATOM     11  O   UNL     1       0.313  -5.358  -3.364  0.00  0.00    -0.267 OA
ATOM     12  N   UNL     1      -1.695  -4.732  -2.593  0.00  0.00    -0.239 N 
ATOM     13  C   UNL     1      -2.132  -6.056  -2.509  0.00  0.00    +0.142 A 
ATOM     14  C   UNL     1      -2.006  -6.747  -1.309  0.00  0.00    +0.050 A 
ATOM     15  C   UNL     1      -2.448  -8.056  -1.237  0.00  0.00    -0.046 A 
ATOM     16  C   UNL     1      -2.992  -8.635  -2.375  0.00  0.00    +0.023 A 
ATOM     17  C   UNL     1      -3.081  -7.891  -3.535  0.00  0.00    +0.113 A 
ATOM     18  N   UNL     1      -2.656  -6.643  -3.572  0.00  0.00    -0.237 NA
ATOM     19  C   UNL     1      -2.336  -8.838   0.046  0.00  0.00    +0.044 C 
ENDBRANCH   1   2
BRANCH   1  20
ATOM     20  C   UNL     1      -4.798  -2.466  -1.330  0.00  0.00    +0.173 C 
BRANCH  20  22
ATOM     21  N   UNL     1      -6.899  -1.454  -0.504  0.00  0.00    -0.316 N 
ATOM     22  C   UNL     1      -6.212  -2.570  -0.819  0.00  0.00    +0.223 C 
ATOM     23  O   UNL     1      -6.732  -3.658  -0.690  0.00  0.00    -0.275 OA
ATOM     24  H   UNL     1      -6.428  -0.467  -0.621  0.00  0.00    +0.149 HD
BRANCH  21  25
ATOM     25  C   UNL     1      -8.273  -1.555  -0.007  0.00  0.00    +0.096 C 
BRANCH  25  26
ATOM     26  C   UNL     1      -8.819  -0.153   0.272  0.00  0.00    +0.016 C 
BRANCH  26  27
ATOM     27  C   UNL     1     -10.280  -0.246   0.632  0.00  0.00    +0.093 A 
ATOM     28  C   UNL     1     -10.818   0.074   1.823  0.00  0.00    +0.043 A 
ATOM     29  C   UNL     1     -12.208  -0.163   1.721  0.00  0.00    +0.041 A 
ATOM     30  C   UNL     1     -12.436  -0.613   0.474  0.00  0.00    +0.195 A 
ATOM     31  O   UNL     1     -11.265  -0.655  -0.183  0.00  0.00    -0.469 OA
ENDBRANCH  26  27
BRANCH  26  32
ATOM     32  N   UNL     1      -8.663   0.681  -0.927  0.00  0.00    +0.387 N 
ATOM     33  H   UNL     1      -7.588   0.758  -1.147  0.00  0.00    -0.081 HD
BRANCH  32  35
ATOM     34  C   UNL     1      -8.309  -0.814  -2.835  0.00  0.00    -0.017 C 
ATOM     35  C   UNL     1      -9.317   0.062  -2.088  0.00  0.00    -0.081 C 
ENDBRANCH  32  35
BRANCH  32  36
ATOM     36  C   UNL     1      -9.175   2.038  -0.695  0.00  0.00    -0.081 C 
ATOM     37  C   UNL     1      -8.645   2.976  -1.782  0.00  0.00    -0.017 C 
ENDBRANCH  32  36
ENDBRANCH  26  32
ENDBRANCH  25  26
ENDBRANCH  21  25
ENDBRANCH  20  22
ENDBRANCH   1  20
TORSDOF 9
