REMARK  Name = ZINC09934501
REMARK  4 active torsions:
REMARK  status: ('A' for Active; 'I' for Inactive)
REMARK    1  A    between atoms: C_4  and  C_7
REMARK    2  A    between atoms: C_7  and  O_9
REMARK    3  A    between atoms: O_9  and  C_10
REMARK    4  A    between atoms: C_14  and  C_16
REMARK                            x       y       z     vdW  Elec       q    Type
REMARK                         _______ _______ _______ _____ _____    ______ ____
ROOT
ATOM      1  C   UNL     1       5.997  -6.337  -0.321  0.00  0.00    +0.093 C 
ATOM      2  C   UNL     1       6.703  -6.929   0.872  0.00  0.00    +0.069 A 
ATOM      3  C   UNL     1       6.062  -6.887   2.132  0.00  0.00    +0.280 A 
ATOM      4  O   UNL     1       4.954  -6.382   2.239  0.00  0.00    -0.265 OA
ATOM      5  N   UNL     1       6.673  -7.403   3.208  0.00  0.00    -0.177 NA
ATOM      6  C   UNL     1       7.865  -7.951   3.111  0.00  0.00    +0.195 A 
ATOM      7  N   UNL     1       8.514  -8.012   1.917  0.00  0.00    -0.316 N 
ATOM      8  C   UNL     1       7.932  -7.501   0.783  0.00  0.00    +0.112 A 
ATOM      9  N   UNL     1       8.618  -7.594  -0.413  0.00  0.00    -0.300 N 
ATOM     10  C   UNL     1       7.929  -7.366  -1.582  0.00  0.00    +0.048 C 
ATOM     11  C   UNL     1       6.689  -6.778  -1.585  0.00  0.00    +0.034 C 
ATOM     12  C   UNL     1       6.217  -6.673  -2.911  0.00  0.00    +0.193 C 
ATOM     13  O   UNL     1       5.151  -6.202  -3.260  0.00  0.00    -0.287 OA
ATOM     14  C   UNL     1       7.254  -7.240  -3.800  0.00  0.00    +0.031 A 
ATOM     15  C   UNL     1       8.317  -7.668  -2.964  0.00  0.00    +0.007 A 
ATOM     16  C   UNL     1       9.455  -8.250  -3.501  0.00  0.00    +0.010 A 
ATOM     17  C   UNL     1       9.499  -8.392  -4.891  0.00  0.00    +0.001 A 
ATOM     18  C   UNL     1       8.467  -7.976  -5.697  0.00  0.00    +0.001 A 
ATOM     19  C   UNL     1       7.312  -7.388  -5.172  0.00  0.00    +0.012 A 
ATOM     20  N   UNL     1       8.462  -8.468   4.229  0.00  0.00    -0.329 N 
ATOM     21  H   UNL     1       9.562  -7.815  -0.427  0.00  0.00    +0.154 HD
ATOM     22  H   UNL     1       8.006  -8.428   5.085  0.00  0.00    +0.145 HD
ATOM     23  H   UNL     1       9.341  -8.873   4.167  0.00  0.00    +0.145 HD
ATOM     24  H   UNL     1       9.393  -8.419   1.867  0.00  0.00    +0.170 HD
ENDROOT
BRANCH   1  29
ATOM     25  C   UNL     1       4.878  -2.735  -0.095  0.00  0.00    +0.132 A 
ATOM     26  C   UNL     1       6.096  -2.071  -0.061  0.00  0.00    +0.046 A 
ATOM     27  C   UNL     1       7.274  -2.790  -0.111  0.00  0.00    +0.004 A 
ATOM     28  C   UNL     1       7.241  -4.170  -0.195  0.00  0.00    +0.005 A 
ATOM     29  C   UNL     1       6.029  -4.834  -0.229  0.00  0.00    -0.032 A 
ATOM     30  C   UNL     1       4.847  -4.120  -0.174  0.00  0.00    +0.051 A 
BRANCH  25  31
ATOM     31  O   UNL     1       3.716  -2.031  -0.046  0.00  0.00    -0.422 OA
BRANCH  31  32
ATOM     32  C   UNL     1       3.307  -1.407  -1.167  0.00  0.00    +0.344 C 
ATOM     33  O   UNL     1       4.013  -1.409  -2.156  0.00  0.00    -0.245 OA
BRANCH  32  37
ATOM     34  C   UNL     1      -0.453   0.566  -1.248  0.00  0.00    +0.000 A 
ATOM     35  C   UNL     1       0.349   0.566  -2.375  0.00  0.00    +0.001 A 
ATOM     36  C   UNL     1       1.572  -0.073  -2.356  0.00  0.00    +0.015 A 
ATOM     37  C   UNL     1       1.999  -0.720  -1.195  0.00  0.00    +0.059 A 
ATOM     38  C   UNL     1       1.185  -0.716  -0.061  0.00  0.00    +0.015 A 
ATOM     39  C   UNL     1      -0.035  -0.074  -0.094  0.00  0.00    +0.001 A 
ENDBRANCH  32  37
ENDBRANCH  31  32
ENDBRANCH  25  31
ENDBRANCH   1  29
TORSDOF 4
