REMARK  Name = ZINC58734388
REMARK  9 active torsions:
REMARK  status: ('A' for Active; 'I' for Inactive)
REMARK    1  A    between atoms: C_1  and  C_2
REMARK    2  A    between atoms: C_5  and  O_9
REMARK    3  A    between atoms: C_7  and  C_8
REMARK    4  A    between atoms: O_9  and  C_10
REMARK    5  A    between atoms: C_10  and  C_11
REMARK    6  A    between atoms: C_11  and  C_12
REMARK    7  A    between atoms: C_12  and  N_13
REMARK    8  A    between atoms: C_16  and  C_20
REMARK    9  A    between atoms: C_16  and  C_21
REMARK                            x       y       z     vdW  Elec       q    Type
REMARK                         _______ _______ _______ _____ _____    ______ ____
ROOT
ATOM      1  N   UNL     1       0.101  -8.429  -2.288  0.00  0.00    -0.224 N 
ATOM      2  C   UNL     1       1.226  -9.165  -2.194  0.00  0.00    +0.254 C 
ATOM      3  O   UNL     1       2.369  -8.764  -2.243  0.00  0.00    -0.272 OA
ATOM      4  C   UNL     1       0.764 -10.597  -2.012  0.00  0.00    +0.168 C 
ATOM      5  N   UNL     1      -0.705 -10.492  -2.027  0.00  0.00    -0.279 N 
ATOM      6  C   UNL     1      -0.996  -9.189  -2.188  0.00  0.00    +0.310 C 
ATOM      7  O   UNL     1      -2.128  -8.751  -2.240  0.00  0.00    -0.252 OA
ATOM      8  C   UNL     1       1.251 -11.154  -0.672  0.00  0.00    +0.050 C 
ATOM      9  H   UNL     1      -1.339 -11.221  -1.935  0.00  0.00    +0.152 HD
ENDROOT
BRANCH   4  10
ATOM     10  C   UNL     1       1.246 -11.458  -3.152  0.00  0.00    +0.138 A 
ATOM     11  C   UNL     1       0.605 -12.537  -3.622  0.00  0.00    +0.056 A 
ATOM     12  C   UNL     1       1.429 -13.055  -4.721  0.00  0.00    +0.020 A 
ATOM     13  C   UNL     1       1.318 -14.133  -5.598  0.00  0.00    +0.011 A 
ATOM     14  C   UNL     1       2.290 -14.346  -6.536  0.00  0.00    +0.001 A 
ATOM     15  C   UNL     1       3.384 -13.497  -6.620  0.00  0.00    +0.004 A 
ATOM     16  C   UNL     1       3.511 -12.427  -5.761  0.00  0.00    +0.047 A 
ATOM     17  C   UNL     1       2.535 -12.192  -4.800  0.00  0.00    +0.135 A 
ATOM     18  O   UNL     1       2.378 -11.251  -3.847  0.00  0.00    -0.457 OA
ENDBRANCH   4  10
BRANCH   1  19
ATOM     19  C   UNL     1       0.081  -6.976  -2.472  0.00  0.00    +0.121 C 
BRANCH  19  20
ATOM     20  C   UNL     1       0.079  -6.289  -1.105  0.00  0.00    +0.060 C 
BRANCH  20  21
ATOM     21  C   UNL     1       0.058  -4.771  -1.298  0.00  0.00    +0.230 C 
BRANCH  21  22
ATOM     22  O   UNL     1       0.057  -4.129  -0.021  0.00  0.00    -0.492 OA
BRANCH  22  27
ATOM     23  C   UNL     1      -0.018   1.503   0.010  0.00  0.00    +0.044 C 
ATOM     24  C   UNL     1       0.002  -0.004   0.002  0.00  0.00    -0.047 A 
ATOM     25  C   UNL     1       0.006  -0.688  -1.200  0.00  0.00    +0.007 A 
ATOM     26  C   UNL     1       0.024  -2.069  -1.210  0.00  0.00    +0.046 A 
ATOM     27  C   UNL     1       0.039  -2.770  -0.013  0.00  0.00    +0.121 A 
ATOM     28  C   UNL     1       0.036  -2.082   1.191  0.00  0.00    +0.049 A 
ATOM     29  C   UNL     1       0.023  -0.701   1.196  0.00  0.00    -0.044 A 
ATOM     30  C   UNL     1       0.025   0.048   2.504  0.00  0.00    +0.044 C 
ENDBRANCH  22  27
ENDBRANCH  21  22
ENDBRANCH  20  21
ENDBRANCH  19  20
ENDBRANCH   1  19
TORSDOF 6
