REMARK  Name = ZINC42165233
REMARK  5 active torsions:
REMARK  status: ('A' for Active; 'I' for Inactive)
REMARK    1  A    between atoms: C_4  and  C_7
REMARK    2  A    between atoms: C_7  and  C_8
REMARK    3  A    between atoms: C_8  and  N_9
REMARK    4  A    between atoms: C_16  and  C_18
REMARK    5  A    between atoms: C_18  and  C_19
REMARK                            x       y       z     vdW  Elec       q    Type
REMARK                         _______ _______ _______ _____ _____    ______ ____
ROOT
ATOM      1  N   UNL     1       3.641  -2.365  -3.940  0.00  0.00    -0.299 N 
ATOM      2  C   UNL     1       3.871  -3.690  -4.021  0.00  0.00    +0.302 C 
ATOM      3  O   UNL     1       3.475  -4.431  -3.142  0.00  0.00    -0.253 OA
ATOM      4  N   UNL     1       4.540  -4.194  -5.077  0.00  0.00    -0.282 N 
ATOM      5  C   UNL     1       4.989  -3.429  -6.255  0.00  0.00    +0.110 C 
ATOM      6  C   UNL     1       6.178  -4.241  -6.826  0.00  0.00    +0.021 C 
ATOM      7  C   UNL     1       5.705  -5.699  -6.584  0.00  0.00    +0.024 C 
ATOM      8  C   UNL     1       4.950  -5.597  -5.242  0.00  0.00    +0.088 C 
ATOM      9  H   UNL     1       3.957  -1.774  -4.641  0.00  0.00    +0.150 HD
ENDROOT
BRANCH   1  10
ATOM     10  C   UNL     1       2.914  -1.817  -2.792  0.00  0.00    +0.106 C 
BRANCH  10  11
ATOM     11  C   UNL     1       2.790  -0.299  -2.944  0.00  0.00    +0.022 C 
BRANCH  11  15
ATOM     12  C   UNL     1      -0.182   1.846  -0.643  0.00  0.00    +0.000 C 
ATOM     13  C   UNL     1       1.255   2.372  -0.635  0.00  0.00    +0.000 C 
ATOM     14  C   UNL     1       2.014   1.800  -1.834  0.00  0.00    +0.003 C 
ATOM     15  C   UNL     1       2.030   0.273  -1.745  0.00  0.00    -0.010 C 
ATOM     16  C   UNL     1       0.594  -0.254  -1.754  0.00  0.00    +0.003 C 
ATOM     17  C   UNL     1      -0.166   0.319  -0.555  0.00  0.00    +0.000 C 
ENDBRANCH  11  15
ENDBRANCH  10  11
ENDBRANCH   1  10
BRANCH   8  18
ATOM     18  C   UNL     1       3.715  -6.499  -5.273  0.00  0.00    +0.147 C 
BRANCH  18  19
ATOM     19  C   UNL     1       4.147  -7.942  -5.301  0.00  0.00    +0.358 C 
ATOM     20  O   UNL     1       5.328  -8.227  -5.196  0.00  0.00    -0.246 OA
ATOM     21  O   UNL     1       3.317  -8.825  -5.429  0.00  0.00    -0.246 OA
ENDBRANCH  18  19
ENDBRANCH   8  18
TORSDOF 5
