REMARK  Name = ZINC61712616
REMARK  2 active torsions:
REMARK  status: ('A' for Active; 'I' for Inactive)
REMARK    1  A    between atoms: C_9  and  C_12
REMARK    2  A    between atoms: C_17  and  O_20
REMARK                            x       y       z     vdW  Elec       q    Type
REMARK                         _______ _______ _______ _____ _____    ______ ____
ROOT
ATOM      1  C   UNL     1      -0.017   1.377   0.010  0.00  0.00    +0.000 A 
ATOM      2  C   UNL     1       1.170   2.088   0.002  0.00  0.00    +0.002 A 
ATOM      3  C   UNL     1       2.375   1.416  -0.015  0.00  0.00    +0.023 A 
ATOM      4  C   UNL     1       2.396   0.025  -0.024  0.00  0.00    +0.031 A 
ATOM      5  C   UNL     1       1.207  -0.687  -0.013  0.00  0.00    -0.026 A 
ATOM      6  C   UNL     1       0.002  -0.004   0.002  0.00  0.00    +0.005 A 
ATOM      7  C   UNL     1       1.192  -2.192  -0.011  0.00  0.00    +0.039 C 
ATOM      8  C   UNL     1       2.521  -2.742  -0.528  0.00  0.00    +0.036 C 
ATOM      9  C   UNL     1       3.667  -2.076   0.246  0.00  0.00    +0.157 C 
ATOM     10  N   UNL     1       3.629  -0.637  -0.046  0.00  0.00    -0.333 N 
ATOM     11  H   UNL     1       4.444  -0.153  -0.251  0.00  0.00    +0.147 HD
ENDROOT
BRANCH   9  12
ATOM     12  C   UNL     1       4.986  -2.654  -0.199  0.00  0.00    +0.236 C 
ATOM     13  O   UNL     1       5.676  -2.049  -0.993  0.00  0.00    -0.274 OA
ATOM     14  N   UNL     1       5.399  -3.841   0.285  0.00  0.00    -0.297 N 
ATOM     15  C   UNL     1       4.663  -4.679   1.243  0.00  0.00    +0.110 C 
ATOM     16  C   UNL     1       5.506  -5.949   1.484  0.00  0.00    +0.052 C 
ATOM     17  C   UNL     1       6.400  -6.018   0.217  0.00  0.00    +0.133 C 
ATOM     18  C   UNL     1       6.662  -4.519  -0.063  0.00  0.00    +0.139 C 
BRANCH  17  19
ATOM     19  O   UNL     1       7.620  -6.712   0.488  0.00  0.00    -0.390 OA
ATOM     20  H   UNL     1       7.497  -7.631   0.761  0.00  0.00    +0.210 HD
ENDBRANCH  17  19
ENDBRANCH   9  12
TORSDOF 2
