REMARK  Name = ZINC18764557
REMARK  12 active torsions:
REMARK  status: ('A' for Active; 'I' for Inactive)
REMARK    1  A    between atoms: C_1  and  C_2
REMARK    2  A    between atoms: C_6  and  C_33
REMARK    3  A    between atoms: C_7  and  O_8
REMARK    4  A    between atoms: O_8  and  C_9
REMARK    5  A    between atoms: C_9  and  C_10
REMARK    6  A    between atoms: C_13  and  S_16
REMARK    7  A    between atoms: N_14  and  N_15
REMARK    8  A    between atoms: S_16  and  C_17
REMARK    9  A    between atoms: C_17  and  C_18
REMARK   10  A    between atoms: N_20  and  C_21
REMARK   11  A    between atoms: C_24  and  N_28
REMARK   12  A    between atoms: C_26  and  C_27
REMARK                            x       y       z     vdW  Elec       q    Type
REMARK                         _______ _______ _______ _____ _____    ______ ____
ROOT
ATOM      1  C   UNL     1       0.566   3.854  -0.019  0.00  0.00    +0.189 A 
ATOM      2  N   UNL     1      -0.734   3.759  -0.021  0.00  0.00    -0.128 NA
ATOM      3  N   UNL     1      -1.085   2.523  -0.017  0.00  0.00    -0.121 NA
ATOM      4  C   UNL     1      -0.020   1.756  -0.004  0.00  0.00    +0.209 A 
ATOM      5  N   UNL     1       1.067   2.582  -0.009  0.00  0.00    -0.225 N 
ENDROOT
BRANCH   5   6
ATOM      6  N   UNL     1       2.383   2.214  -0.004  0.00  0.00    -0.295 N 
ATOM      7  H   UNL     1       2.732   2.110  -0.945  0.00  0.00    +0.163 HD
ATOM      8  H   UNL     1       2.941   2.873   0.518  0.00  0.00    +0.163 HD
ENDBRANCH   5   6
BRANCH   1   9
ATOM      9  C   UNL     1       1.367   5.130  -0.027  0.00  0.00    +0.306 C 
BRANCH   9  10
ATOM     10  O   UNL     1       1.623   5.524  -1.377  0.00  0.00    -0.484 OA
BRANCH  10  17
ATOM     11  C   UNL     1       0.187   7.948  -1.580  0.00  0.00    +0.047 C 
ATOM     12  C   UNL     1       1.690   7.884  -1.669  0.00  0.00    -0.009 A 
ATOM     13  C   UNL     1       2.421   9.041  -1.852  0.00  0.00    +0.007 A 
ATOM     14  C   UNL     1       3.800   8.983  -1.938  0.00  0.00    +0.001 A 
ATOM     15  C   UNL     1       4.450   7.767  -1.838  0.00  0.00    +0.007 A 
ATOM     16  C   UNL     1       3.724   6.607  -1.650  0.00  0.00    -0.009 A 
ATOM     17  C   UNL     1       2.341   6.663  -1.562  0.00  0.00    +0.127 A 
ATOM     18  C   UNL     1       4.433   5.282  -1.540  0.00  0.00    +0.047 C 
ENDBRANCH  10  17
ENDBRANCH   9  10
ENDBRANCH   1   9
BRANCH   4  19
ATOM     19  S   UNL     1       0.003  -0.006   0.009  0.00  0.00    -0.075 S 
BRANCH  19  20
ATOM     20  C   UNL     1      -1.775  -0.343   0.009  0.00  0.00    +0.173 C 
BRANCH  20  21
ATOM     21  C   UNL     1      -2.003  -1.833   0.019  0.00  0.00    +0.227 C 
ATOM     22  O   UNL     1      -1.057  -2.592   0.026  0.00  0.00    -0.275 OA
ATOM     23  N   UNL     1      -3.259  -2.322   0.021  0.00  0.00    -0.285 N 
ATOM     24  H   UNL     1      -4.015  -1.719   0.099  0.00  0.00    +0.155 HD
BRANCH  23  25
ATOM     25  C   UNL     1      -3.474  -3.703  -0.090  0.00  0.00    +0.036 A 
ATOM     26  C   UNL     1      -2.519  -4.507  -0.699  0.00  0.00    +0.025 A 
ATOM     27  C   UNL     1      -2.730  -5.867  -0.808  0.00  0.00    +0.025 A 
ATOM     28  C   UNL     1      -3.897  -6.431  -0.309  0.00  0.00    +0.030 A 
ATOM     29  C   UNL     1      -4.852  -5.626   0.299  0.00  0.00    +0.028 A 
ATOM     30  C   UNL     1      -4.638  -4.267   0.413  0.00  0.00    -0.028 A 
ATOM     31  C   UNL     1      -5.671  -3.395   1.079  0.00  0.00    +0.046 C 
BRANCH  28  32
ATOM     32  N   UNL     1      -4.111  -7.809  -0.419  0.00  0.00    -0.330 N 
ATOM     33  C   UNL     1      -3.949  -8.262  -1.824  0.00  0.00    +0.105 C 
ATOM     34  C   UNL     1      -3.692  -9.783  -1.678  0.00  0.00    +0.020 C 
ATOM     35  C   UNL     1      -2.822  -9.867  -0.403  0.00  0.00    +0.020 C 
ATOM     36  C   UNL     1      -3.111  -8.564   0.367  0.00  0.00    +0.105 C 
ENDBRANCH  28  32
ENDBRANCH  23  25
ENDBRANCH  20  21
ENDBRANCH  19  20
ENDBRANCH   4  19
TORSDOF 9
