REMARK  Name = ZINC06686511
REMARK  9 active torsions:
REMARK  status: ('A' for Active; 'I' for Inactive)
REMARK    1  A    between atoms: C_1  and  C_2
REMARK    2  A    between atoms: C_2  and  C_3
REMARK    3  A    between atoms: C_3  and  C_4
REMARK    4  A    between atoms: C_4  and  N_5
REMARK    5  A    between atoms: C_14  and  C_16
REMARK    6  A    between atoms: N_18  and  N_19
REMARK    7  A    between atoms: C_20  and  C_21
REMARK    8  A    between atoms: C_24  and  C_28
REMARK    9  A    between atoms: C_26  and  C_27
REMARK                            x       y       z     vdW  Elec       q    Type
REMARK                         _______ _______ _______ _____ _____    ______ ____
ROOT
ATOM      1  N   UNL     1       1.276  -4.014  -2.293  0.00  0.00    -0.228 N 
ATOM      2  C   UNL     1       2.600  -4.264  -2.247  0.00  0.00    +0.275 A 
ATOM      3  O   UNL     1       3.193  -4.286  -1.184  0.00  0.00    -0.266 OA
ATOM      4  C   UNL     1       3.311  -4.509  -3.509  0.00  0.00    +0.050 A 
ATOM      5  C   UNL     1       4.676  -4.775  -3.569  0.00  0.00    +0.014 A 
ATOM      6  C   UNL     1       5.268  -4.993  -4.795  0.00  0.00    +0.001 A 
ATOM      7  C   UNL     1       4.519  -4.950  -5.963  0.00  0.00    +0.001 A 
ATOM      8  C   UNL     1       3.166  -4.689  -5.925  0.00  0.00    +0.011 A 
ATOM      9  C   UNL     1       2.548  -4.465  -4.699  0.00  0.00    +0.020 A 
ATOM     10  C   UNL     1       1.110  -4.179  -4.571  0.00  0.00    +0.155 A 
ATOM     11  N   UNL     1       0.600  -3.984  -3.379  0.00  0.00    -0.163 NA
ENDROOT
BRANCH  10  12
ATOM     12  C   UNL     1       0.251  -4.118  -5.770  0.00  0.00    +0.284 C 
ATOM     13  O   UNL     1       0.731  -4.304  -6.872  0.00  0.00    -0.267 OA
ATOM     14  N   UNL     1      -1.064  -3.855  -5.643  0.00  0.00    -0.202 N 
ATOM     15  H   UNL     1      -1.447  -3.706  -4.765  0.00  0.00    +0.178 HD
BRANCH  14  16
ATOM     16  N   UNL     1      -1.880  -3.797  -6.781  0.00  0.00    -0.187 NA
ATOM     17  C   UNL     1      -3.147  -3.544  -6.660  0.00  0.00    +0.138 C 
BRANCH  17  18
ATOM     18  C   UNL     1      -4.005  -3.482  -7.857  0.00  0.00    -0.003 A 
ATOM     19  C   UNL     1      -5.387  -3.325  -7.724  0.00  0.00    +0.010 A 
ATOM     20  C   UNL     1      -6.183  -3.268  -8.848  0.00  0.00    +0.004 A 
ATOM     21  C   UNL     1      -5.616  -3.367 -10.107  0.00  0.00    -0.050 A 
ATOM     22  C   UNL     1      -4.249  -3.523 -10.247  0.00  0.00    +0.007 A 
ATOM     23  C   UNL     1      -3.439  -3.575  -9.131  0.00  0.00    -0.042 A 
ATOM     24  C   UNL     1      -1.949  -3.740  -9.286  0.00  0.00    +0.044 C 
ATOM     25  C   UNL     1      -6.493  -3.305 -11.331  0.00  0.00    +0.044 C 
ENDBRANCH  17  18
ENDBRANCH  14  16
ENDBRANCH  10  12
BRANCH   1  26
ATOM     26  C   UNL     1       0.572  -3.771  -1.032  0.00  0.00    +0.147 C 
BRANCH  26  27
ATOM     27  C   UNL     1       0.591  -2.274  -0.717  0.00  0.00    +0.023 C 
BRANCH  27  29
ATOM     28  C   UNL     1      -0.125  -0.523   0.915  0.00  0.00    +0.004 C 
ATOM     29  C   UNL     1      -0.144  -2.020   0.600  0.00  0.00    -0.002 C 
ENDBRANCH  27  29
ENDBRANCH  26  27
ENDBRANCH   1  26
TORSDOF 6
