REMARK  Name = ZINC20532154
REMARK  14 active torsions:
REMARK  status: ('A' for Active; 'I' for Inactive)
REMARK    1  A    between atoms: C_1  and  C_2
REMARK    2  A    between atoms: C_2  and  C_3
REMARK    3  A    between atoms: C_2  and  C_4
REMARK    4  A    between atoms: C_4  and  C_5
REMARK    5  A    between atoms: C_5  and  C_6
REMARK    6  A    between atoms: C_6  and  C_8
REMARK    7  A    between atoms: C_6  and  N_23
REMARK    8  A    between atoms: C_12  and  N_13
REMARK    9  A    between atoms: N_19  and  C_22
REMARK   10  A    between atoms: N_26  and  C_27
REMARK   11  A    between atoms: C_30  and  O_35
REMARK   12  A    between atoms: C_31  and  O_33
REMARK   13  A    between atoms: O_33  and  C_34
REMARK   14  A    between atoms: O_35  and  C_36
REMARK                            x       y       z     vdW  Elec       q    Type
REMARK                         _______ _______ _______ _____ _____    ______ ____
ROOT
ATOM      1  C   UNL     1       0.914   0.752   5.102  0.00  0.00    +0.108 C 
ENDROOT
BRANCH   1   2
ATOM      2  C   UNL     1       1.010   1.219   3.672  0.00  0.00    +0.007 A 
ATOM      3  C   UNL     1       0.092   2.140   3.175  0.00  0.00    -0.034 A 
ATOM      4  C   UNL     1       0.241   2.511   1.873  0.00  0.00    -0.021 A 
ATOM      5  S   UNL     1       1.654   1.592   1.329  0.00  0.00    -0.077 S 
ATOM      6  C   UNL     1       1.993   0.741   2.863  0.00  0.00    +0.090 A 
ATOM      7  C   UNL     1      -0.610   3.474   1.112  0.00  0.00    -0.036 C 
ATOM      8  N   UNL     1      -1.849   3.700   1.881  0.00  0.00    +0.381 N 
ATOM      9  C   UNL     1      -1.540   4.000   3.285  0.00  0.00    -0.074 C 
ATOM     10  C   UNL     1      -1.045   2.739   3.999  0.00  0.00    +0.018 C 
ATOM     11  C   UNL     1      -2.654   4.772   1.278  0.00  0.00    -0.096 C 
ATOM     12  H   UNL     1      -2.448   2.778   1.853  0.00  0.00    -0.082 HD
BRANCH   6  13
ATOM     13  N   UNL     1       3.007  -0.179   3.156  0.00  0.00    -0.317 N 
ATOM     14  C   UNL     1       4.345   0.027   2.978  0.00  0.00    +0.092 A 
ATOM     15  C   UNL     1       4.999  -1.083   3.376  0.00  0.00    +0.019 A 
ATOM     16  C   UNL     1       4.031  -2.012   3.808  0.00  0.00    +0.019 A 
ATOM     17  C   UNL     1       2.821  -1.433   3.662  0.00  0.00    +0.092 A 
ENDBRANCH   6  13
ENDBRANCH   1   2
BRANCH   1  18
ATOM     18  N   UNL     1      -0.457   0.319   5.383  0.00  0.00    -0.292 N 
ATOM     19  C   UNL     1      -0.681  -0.882   5.951  0.00  0.00    +0.304 C 
ATOM     20  O   UNL     1       0.255  -1.607   6.230  0.00  0.00    -0.252 OA
ATOM     21  N   UNL     1      -1.942  -1.281   6.210  0.00  0.00    -0.269 N 
ATOM     22  H   UNL     1      -1.304   0.975   5.131  0.00  0.00    +0.151 HD
ATOM     23  H   UNL     1      -2.792  -0.660   5.889  0.00  0.00    +0.156 HD
BRANCH  21  24
ATOM     24  C   UNL     1      -2.171  -2.486   6.888  0.00  0.00    +0.038 A 
ATOM     25  C   UNL     1      -1.328  -3.569   6.681  0.00  0.00    +0.027 A 
ATOM     26  C   UNL     1      -1.549  -4.756   7.354  0.00  0.00    +0.051 A 
ATOM     27  C   UNL     1      -2.619  -4.872   8.226  0.00  0.00    +0.162 A 
ATOM     28  C   UNL     1      -3.469  -3.789   8.430  0.00  0.00    +0.163 A 
ATOM     29  C   UNL     1      -3.244  -2.598   7.761  0.00  0.00    +0.072 A 
BRANCH  28  30
ATOM     30  O   UNL     1      -4.520  -3.901   9.287  0.00  0.00    -0.491 OA
ATOM     31  C   UNL     1      -5.351  -2.749   9.448  0.00  0.00    +0.277 C 
ENDBRANCH  28  30
BRANCH  27  32
ATOM     32  O   UNL     1      -2.838  -6.043   8.883  0.00  0.00    -0.491 OA
ATOM     33  C   UNL     1      -1.926  -7.112   8.625  0.00  0.00    +0.277 C 
ENDBRANCH  27  32
ENDBRANCH  21  24
ENDBRANCH   1  18
BRANCH   1  34
ATOM     34  C   UNL     1       1.288   1.902   6.040  0.00  0.00    +0.027 C 
BRANCH  34  35
ATOM     35  C   UNL     1       1.312   1.396   7.483  0.00  0.00    +0.005 C 
BRANCH  35  37
ATOM     36  C   UNL     1       1.588   2.072   9.872  0.00  0.00    +0.007 C 
ATOM     37  C   UNL     1       1.686   2.545   8.421  0.00  0.00    -0.017 C 
ATOM     38  C   UNL     1       3.118   2.998   8.127  0.00  0.00    +0.007 C 
ENDBRANCH  35  37
ENDBRANCH  34  35
ENDBRANCH   1  34
TORSDOF 9
