REMARK  Name = ZINC01129339
REMARK  7 active torsions:
REMARK  status: ('A' for Active; 'I' for Inactive)
REMARK    1  A    between atoms: C_1  and  C_2
REMARK    2  A    between atoms: C_8  and  C_33
REMARK    3  A    between atoms: C_9  and  C_11
REMARK    4  A    between atoms: N_13  and  C_14
REMARK    5  A    between atoms: C_15  and  C_23
REMARK    6  A    between atoms: N_25  and  C_26
REMARK    7  A    between atoms: C_26  and  C_27
REMARK                            x       y       z     vdW  Elec       q    Type
REMARK                         _______ _______ _______ _____ _____    ______ ____
ROOT
ATOM      1  C   UNL     1       7.949   2.212  -0.063  0.00  0.00    +0.085 A 
ATOM      2  C   UNL     1       8.736   3.356  -0.070  0.00  0.00    +0.069 A 
ATOM      3  C   UNL     1      10.178   3.178  -0.080  0.00  0.00    -0.023 A 
ATOM      4  C   UNL     1      10.599   1.895  -0.092  0.00  0.00    -0.004 A 
ATOM      5  S   UNL     1       9.114   0.931  -0.082  0.00  0.00    -0.077 S 
ATOM      6  C   UNL     1      12.016   1.409  -0.109  0.00  0.00    +0.043 C 
ATOM      7  C   UNL     1      12.926   2.587  -0.490  0.00  0.00    +0.005 C 
ATOM      8  C   UNL     1      12.540   3.802   0.358  0.00  0.00    +0.005 C 
ATOM      9  C   UNL     1      11.174   4.331  -0.083  0.00  0.00    +0.037 C 
ENDROOT
BRANCH   1  12
ATOM     10  C   UNL     1       5.973   0.909  -0.050  0.00  0.00    +0.284 C 
ATOM     11  O   UNL     1       6.651  -0.101  -0.062  0.00  0.00    -0.266 OA
ATOM     12  N   UNL     1       6.567   2.119  -0.050  0.00  0.00    -0.273 N 
ATOM     13  H   UNL     1       6.026   2.924  -0.040  0.00  0.00    +0.156 HD
BRANCH  10  22
ATOM     14  C   UNL     1      -1.296  -0.770   0.010  0.00  0.00    +0.044 C 
ATOM     15  C   UNL     1       0.002  -0.004   0.002  0.00  0.00    -0.050 A 
ATOM     16  C   UNL     1      -0.017   1.384   0.010  0.00  0.00    +0.007 A 
ATOM     17  C   UNL     1       1.158   2.105   0.002  0.00  0.00    +0.047 A 
ATOM     18  C   UNL     1       2.378   1.439  -0.013  0.00  0.00    +0.136 A 
ATOM     19  C   UNL     1       2.391   0.032  -0.020  0.00  0.00    +0.024 A 
ATOM     20  C   UNL     1       1.189  -0.680  -0.013  0.00  0.00    +0.015 A 
ATOM     21  C   UNL     1       3.803  -0.352  -0.035  0.00  0.00    +0.008 A 
ATOM     22  C   UNL     1       4.508   0.810  -0.036  0.00  0.00    +0.194 A 
ATOM     23  O   UNL     1       3.658   1.858  -0.023  0.00  0.00    -0.450 OA
ATOM     24  C   UNL     1       4.362  -1.751  -0.047  0.00  0.00    +0.048 C 
ENDBRANCH  10  22
ENDBRANCH   1  12
BRANCH   2  25
ATOM     25  C   UNL     1       8.134   4.693  -0.064  0.00  0.00    +0.247 C 
ATOM     26  O   UNL     1       7.896   5.248   0.993  0.00  0.00    -0.270 OA
ATOM     27  N   UNL     1       7.846   5.308  -1.228  0.00  0.00    -0.307 N 
ATOM     28  H   UNL     1       8.037   4.865  -2.070  0.00  0.00    +0.149 HD
BRANCH  27  29
ATOM     29  C   UNL     1       7.245   6.644  -1.222  0.00  0.00    +0.141 C 
BRANCH  29  30
ATOM     30  C   UNL     1       7.025   7.102  -2.640  0.00  0.00    -0.012 A 
ATOM     31  C   UNL     1       8.011   7.811  -3.310  0.00  0.00    +0.008 A 
ATOM     32  C   UNL     1       7.766   8.209  -4.616  0.00  0.00    +0.020 A 
ATOM     33  C   UNL     1       6.552   7.896  -5.199  0.00  0.00    +0.111 A 
ATOM     34  N   UNL     1       5.636   7.224  -4.529  0.00  0.00    -0.263 NA
ATOM     35  C   UNL     1       5.836   6.826  -3.288  0.00  0.00    +0.115 A 
ENDBRANCH  29  30
ENDBRANCH  27  29
ENDBRANCH   2  25
TORSDOF 5
