REMARK  Name = ZINC36304423
REMARK  17 active torsions:
REMARK  status: ('A' for Active; 'I' for Inactive)
REMARK    1  A    between atoms: C_1  and  C_2
REMARK    2  A    between atoms: C_2  and  O_3
REMARK    3  A    between atoms: O_3  and  C_4
REMARK    4  A    between atoms: C_4  and  C_5
REMARK    5  A    between atoms: C_5  and  C_7
REMARK    6  A    between atoms: C_5  and  O_37
REMARK    7  A    between atoms: C_7  and  N_8
REMARK    8  A    between atoms: N_8  and  C_9
REMARK    9  A    between atoms: N_8  and  C_15
REMARK   10  A    between atoms: C_9  and  C_10
REMARK   11  A    between atoms: C_15  and  C_16
REMARK   12  A    between atoms: C_17  and  C_36
REMARK   13  A    between atoms: N_19  and  C_30
REMARK   14  A    between atoms: C_20  and  O_21
REMARK   15  A    between atoms: O_21  and  C_22
REMARK   16  A    between atoms: C_27  and  O_28
REMARK   17  A    between atoms: O_28  and  C_29
REMARK                            x       y       z     vdW  Elec       q    Type
REMARK                         _______ _______ _______ _____ _____    ______ ____
ROOT
ATOM      1  C   UNL     1      -6.322  -5.886   0.683  0.00  0.00    +0.021 A 
ATOM      2  C   UNL     1      -6.794  -5.622   1.972  0.00  0.00    +0.065 A 
ATOM      3  N   UNL     1      -8.102  -5.603   1.938  0.00  0.00    -0.168 NA
ATOM      4  N   UNL     1      -8.514  -5.854   0.623  0.00  0.00    -0.200 N 
ATOM      5  C   UNL     1      -7.398  -6.021  -0.137  0.00  0.00    +0.225 A 
ATOM      6  C   UNL     1      -5.941  -5.398   3.194  0.00  0.00    +0.068 C 
ENDROOT
BRANCH   4   7
ATOM      7  C   UNL     1      -9.839  -5.917   0.171  0.00  0.00    +0.069 A 
ATOM      8  C   UNL     1     -10.177  -5.386  -1.067  0.00  0.00    +0.028 A 
ATOM      9  C   UNL     1     -11.483  -5.449  -1.510  0.00  0.00    +0.002 A 
ATOM     10  C   UNL     1     -12.454  -6.041  -0.723  0.00  0.00    +0.000 A 
ATOM     11  C   UNL     1     -12.120  -6.571   0.510  0.00  0.00    +0.002 A 
ATOM     12  C   UNL     1     -10.814  -6.516   0.956  0.00  0.00    +0.028 A 
ENDBRANCH   4   7
BRANCH   1  13
ATOM     13  C   UNL     1      -4.875  -5.996   0.273  0.00  0.00    -0.035 C 
BRANCH  13  14
ATOM     14  N   UNL     1      -4.421  -4.708  -0.269  0.00  0.00    +0.389 N 
ATOM     15  H   UNL     1      -5.039  -4.419  -1.012  0.00  0.00    -0.081 HD
BRANCH  14  16
ATOM     16  C   UNL     1      -4.431  -3.698   0.797  0.00  0.00    -0.044 C 
BRANCH  16  17
ATOM     17  C   UNL     1      -4.146  -2.320   0.196  0.00  0.00    +0.124 C 
BRANCH  17  18
ATOM     18  O   UNL     1      -2.797  -2.274  -0.273  0.00  0.00    -0.391 OA
ATOM     19  H   UNL     1      -2.136  -2.427   0.416  0.00  0.00    +0.210 HD
ENDBRANCH  17  18
BRANCH  17  20
ATOM     20  C   UNL     1      -4.351  -1.245   1.266  0.00  0.00    +0.189 C 
BRANCH  20  21
ATOM     21  O   UNL     1      -4.200   0.048   0.676  0.00  0.00    -0.378 OA
BRANCH  21  23
ATOM     22  C   UNL     1      -4.189   2.458   0.859  0.00  0.00    +0.034 C 
ATOM     23  C   UNL     1      -4.373   1.129   1.595  0.00  0.00    +0.156 C 
ENDBRANCH  21  23
ENDBRANCH  20  21
ENDBRANCH  17  20
ENDBRANCH  16  17
ENDBRANCH  14  16
BRANCH  14  24
ATOM     24  C   UNL     1      -3.057  -4.853  -0.794  0.00  0.00    -0.003 C 
BRANCH  24  25
ATOM     25  C   UNL     1      -3.062  -5.827  -1.944  0.00  0.00    +0.089 A 
ATOM     26  C   UNL     1      -3.175  -5.507  -3.245  0.00  0.00    +0.042 A 
ATOM     27  C   UNL     1      -3.133  -6.720  -3.970  0.00  0.00    +0.041 A 
ATOM     28  C   UNL     1      -2.996  -7.708  -3.068  0.00  0.00    +0.195 A 
ATOM     29  O   UNL     1      -2.948  -7.161  -1.843  0.00  0.00    -0.470 OA
ENDBRANCH  24  25
ENDBRANCH  14  24
ENDBRANCH  13  14
ENDBRANCH   1  13
BRANCH   5  30
ATOM     30  O   UNL     1      -7.365  -6.277  -1.469  0.00  0.00    -0.434 OA
BRANCH  30  31
ATOM     31  C   UNL     1      -7.468  -7.572  -1.873  0.00  0.00    +0.172 A 
ATOM     32  C   UNL     1      -7.709  -8.572  -0.944  0.00  0.00    +0.050 A 
ATOM     33  C   UNL     1      -7.813  -9.887  -1.355  0.00  0.00    +0.004 A 
ATOM     34  C   UNL     1      -7.679 -10.208  -2.693  0.00  0.00    +0.004 A 
ATOM     35  C   UNL     1      -7.439  -9.216  -3.625  0.00  0.00    +0.049 A 
ATOM     36  C   UNL     1      -7.338  -7.895  -3.220  0.00  0.00    +0.162 A 
BRANCH  36  37
ATOM     37  O   UNL     1      -7.108  -6.917  -4.136  0.00  0.00    -0.491 OA
ATOM     38  C   UNL     1      -6.986  -7.322  -5.501  0.00  0.00    +0.277 C 
ENDBRANCH  36  37
ENDBRANCH  30  31
ENDBRANCH   5  30
TORSDOF 14
