REMARK  Name = ZINC00306519
REMARK  4 active torsions:
REMARK  status: ('A' for Active; 'I' for Inactive)
REMARK    1  A    between atoms: C_1  and  O_2
REMARK    2  A    between atoms: O_2  and  C_3
REMARK    3  A    between atoms: C_7  and  C_10
REMARK    4  A    between atoms: C_8  and  O_9
REMARK                            x       y       z     vdW  Elec       q    Type
REMARK                         _______ _______ _______ _____ _____    ______ ____
ROOT
ATOM      1  C   UNL     1       3.686  -0.694  -0.037  0.00  0.00    +0.032 C 
ATOM      2  C   UNL     1       3.705  -2.048   0.058  0.00  0.00    +0.080 C 
ATOM      3  C   UNL     1       2.581  -3.013   0.086  0.00  0.00    +0.276 C 
ATOM      4  O   UNL     1       1.418  -2.648   0.019  0.00  0.00    -0.267 OA
ATOM      5  N   UNL     1       2.905  -4.283   0.186  0.00  0.00    -0.154 NA
ATOM      6  C   UNL     1       4.162  -4.691   0.259  0.00  0.00    +0.154 C 
ATOM      7  S   UNL     1       5.093  -3.169   0.178  0.00  0.00    -0.052 S 
ATOM      8  N   UNL     1       4.635  -5.973   0.365  0.00  0.00    -0.311 N 
ATOM      9  C   UNL     1       6.079  -6.234   0.429  0.00  0.00    +0.107 C 
ATOM     10  C   UNL     1       6.367  -7.086   1.675  0.00  0.00    +0.019 C 
ATOM     11  C   UNL     1       5.500  -8.347   1.635  0.00  0.00    +0.003 C 
ATOM     12  C   UNL     1       4.022  -7.953   1.652  0.00  0.00    +0.019 C 
ATOM     13  C   UNL     1       3.708  -7.111   0.411  0.00  0.00    +0.107 C 
ENDROOT
BRANCH   1  18
ATOM     14  C   UNL     1       0.953   1.788  -0.746  0.00  0.00    +0.162 A 
ATOM     15  C   UNL     1      -0.004   1.394   0.177  0.00  0.00    +0.049 A 
ATOM     16  C   UNL     1       0.239   0.327   1.026  0.00  0.00    +0.004 A 
ATOM     17  C   UNL     1       1.435  -0.355   0.962  0.00  0.00    +0.012 A 
ATOM     18  C   UNL     1       2.411   0.029   0.035  0.00  0.00    +0.021 A 
ATOM     19  C   UNL     1       2.164   1.111  -0.824  0.00  0.00    +0.166 A 
BRANCH  14  21
ATOM     20  C   UNL     1      -0.561   3.486  -1.441  0.00  0.00    +0.277 C 
ATOM     21  O   UNL     1       0.705   2.837  -1.576  0.00  0.00    -0.491 OA
ENDBRANCH  14  21
BRANCH  19  22
ATOM     22  O   UNL     1       3.103   1.494  -1.727  0.00  0.00    -0.503 OA
ATOM     23  H   UNL     1       3.028   1.052  -2.584  0.00  0.00    +0.292 HD
ENDBRANCH  19  22
ENDBRANCH   1  18
TORSDOF 3
