REMARK  Name = ZINC16735302
REMARK  15 active torsions:
REMARK  status: ('A' for Active; 'I' for Inactive)
REMARK    1  A    between atoms: C_1  and  C_2
REMARK    2  A    between atoms: C_2  and  O_3
REMARK    3  A    between atoms: O_3  and  C_4
REMARK    4  A    between atoms: C_4  and  C_6
REMARK    5  A    between atoms: C_7  and  C_36
REMARK    6  A    between atoms: C_8  and  C_31
REMARK    7  A    between atoms: C_10  and  N_11
REMARK    8  A    between atoms: N_11  and  C_12
REMARK    9  A    between atoms: C_12  and  C_14
REMARK   10  A    between atoms: C_12  and  N_23
REMARK   11  A    between atoms: C_14  and  C_16
REMARK   12  A    between atoms: C_24  and  C_26
REMARK   13  A    between atoms: C_31  and  O_33
REMARK   14  A    between atoms: O_33  and  C_34
REMARK   15  A    between atoms: C_34  and  C_35
REMARK                            x       y       z     vdW  Elec       q    Type
REMARK                         _______ _______ _______ _____ _____    ______ ____
ROOT
ATOM      1  C   UNL     1       2.741  -3.823  -0.325  0.00  0.00    +0.232 C 
ENDROOT
BRANCH   1   2
ATOM      2  N   UNL     1       3.143  -3.989   1.074  0.00  0.00    -0.284 N 
ATOM      3  C   UNL     1       3.921  -3.062   1.666  0.00  0.00    +0.281 C 
ATOM      4  O   UNL     1       4.290  -2.086   1.039  0.00  0.00    -0.267 OA
ATOM      5  H   UNL     1       2.849  -4.767   1.574  0.00  0.00    +0.151 HD
BRANCH   3   6
ATOM      6  C   UNL     1       4.323  -3.228   3.067  0.00  0.00    +0.189 A 
ATOM      7  C   UNL     1       5.105  -2.368   3.785  0.00  0.00    +0.054 A 
ATOM      8  C   UNL     1       5.232  -2.917   5.070  0.00  0.00    +0.042 A 
ATOM      9  C   UNL     1       4.531  -4.072   5.081  0.00  0.00    +0.196 A 
ATOM     10  O   UNL     1       3.981  -4.254   3.874  0.00  0.00    -0.458 OA
ENDBRANCH   3   6
ENDBRANCH   1   2
BRANCH   1  11
ATOM     11  N   UNL     1       1.337  -3.412  -0.384  0.00  0.00    -0.314 N 
ATOM     12  H   UNL     1       0.634  -4.059  -0.214  0.00  0.00    +0.149 HD
BRANCH  11  17
ATOM     13  C   UNL     1      -0.256  -1.525  -0.784  0.00  0.00    +0.091 A 
ATOM     14  C   UNL     1      -0.321  -0.175  -1.091  0.00  0.00    -0.014 A 
ATOM     15  C   UNL     1       0.859   0.491  -1.285  0.00  0.00    +0.102 A 
ATOM     16  S   UNL     1       2.078  -0.783  -1.020  0.00  0.00    -0.066 S 
ATOM     17  C   UNL     1       1.014  -2.109  -0.681  0.00  0.00    +0.082 A 
ATOM     18  C   UNL     1      -1.646   0.533  -1.214  0.00  0.00    +0.046 C 
BRANCH  13  19
ATOM     19  C   UNL     1      -1.473  -2.314  -0.567  0.00  0.00    +0.342 C 
ATOM     20  O   UNL     1      -1.950  -2.401   0.548  0.00  0.00    -0.245 OA
BRANCH  19  21
ATOM     21  O   UNL     1      -2.062  -2.943  -1.604  0.00  0.00    -0.461 OA
BRANCH  21  23
ATOM     22  C   UNL     1      -3.786  -4.342  -2.605  0.00  0.00    +0.048 C 
ATOM     23  C   UNL     1      -3.264  -3.705  -1.315  0.00  0.00    +0.229 C 
ENDBRANCH  21  23
ENDBRANCH  19  21
ENDBRANCH  13  19
BRANCH  15  24
ATOM     24  C   UNL     1       1.068   1.898  -1.620  0.00  0.00    +0.346 C 
ATOM     25  O   UNL     1       0.113   2.636  -1.772  0.00  0.00    -0.244 OA
BRANCH  24  26
ATOM     26  O   UNL     1       2.321   2.378  -1.766  0.00  0.00    -0.461 OA
BRANCH  26  27
ATOM     27  C   UNL     1       2.451   3.763  -2.093  0.00  0.00    +0.229 C 
ATOM     28  C   UNL     1       3.933   4.120  -2.217  0.00  0.00    +0.048 C 
ENDBRANCH  26  27
ENDBRANCH  24  26
ENDBRANCH  15  24
ENDBRANCH  11  17
ENDBRANCH   1  11
BRANCH   1  29
ATOM     29  C   UNL     1       2.913  -5.130  -1.055  0.00  0.00    +0.201 C 
ATOM     30  O   UNL     1       2.024  -5.550  -1.765  0.00  0.00    -0.288 OA
BRANCH  29  31
ATOM     31  C   UNL     1       4.160  -5.897  -0.908  0.00  0.00    +0.021 A 
ATOM     32  C   UNL     1       5.240  -5.353  -0.205  0.00  0.00    +0.013 A 
ATOM     33  C   UNL     1       6.403  -6.079  -0.066  0.00  0.00    +0.021 A 
ATOM     34  C   UNL     1       6.508  -7.340  -0.630  0.00  0.00    +0.041 A 
ATOM     35  C   UNL     1       5.444  -7.883  -1.333  0.00  0.00    +0.021 A 
ATOM     36  C   UNL     1       4.273  -7.171  -1.475  0.00  0.00    +0.013 A 
ATOM     37 CL   UNL     1       7.979  -8.245  -0.456  0.00  0.00    -0.084 Cl
ENDBRANCH  29  31
ENDBRANCH   1  29
TORSDOF 12
