REMARK  Name = ZINC39726577
REMARK  9 active torsions:
REMARK  status: ('A' for Active; 'I' for Inactive)
REMARK    1  A    between atoms: C_1  and  C_2
REMARK    2  A    between atoms: C_2  and  C_4
REMARK    3  A    between atoms: C_2  and  N_33
REMARK    4  A    between atoms: C_8  and  S_17
REMARK    5  A    between atoms: N_9  and  C_10
REMARK    6  A    between atoms: S_17  and  C_18
REMARK    7  A    between atoms: C_18  and  C_19
REMARK    8  A    between atoms: N_33  and  C_34
REMARK    9  A    between atoms: N_33  and  C_35
REMARK                            x       y       z     vdW  Elec       q    Type
REMARK                         _______ _______ _______ _____ _____    ______ ____
ROOT
ATOM      1  C   UNL     1       0.710  -0.477  -1.244  0.00  0.00    +0.168 C 
ATOM      2  N   UNL     1       2.074   0.075  -1.325  0.00  0.00    -0.248 N 
ATOM      3  N   UNL     1       2.126   0.813  -2.514  0.00  0.00    -0.162 NA
ATOM      4  C   UNL     1       0.999   0.777  -3.142  0.00  0.00    +0.180 C 
ATOM      5  N   UNL     1       0.052   0.017  -2.465  0.00  0.00    -0.260 N 
ATOM      6  H   UNL     1       2.791  -0.047  -0.684  0.00  0.00    +0.170 HD
ENDROOT
BRANCH   5   7
ATOM      7  C   UNL     1      -1.266  -0.232  -2.863  0.00  0.00    +0.038 A 
ATOM      8  C   UNL     1      -2.182   0.810  -2.923  0.00  0.00    +0.026 A 
ATOM      9  C   UNL     1      -3.483   0.563  -3.316  0.00  0.00    +0.040 A 
ATOM     10  C   UNL     1      -3.873  -0.723  -3.651  0.00  0.00    +0.124 A 
ATOM     11  C   UNL     1      -2.962  -1.763  -3.592  0.00  0.00    +0.040 A 
ATOM     12  C   UNL     1      -1.658  -1.519  -3.205  0.00  0.00    +0.026 A 
ATOM     13  F   UNL     1      -5.146  -0.962  -4.035  0.00  0.00    -0.205 F 
ENDBRANCH   5   7
BRANCH   1  15
ATOM     14  C   UNL     1      -0.019   1.577  -0.021  0.00  0.00    -0.010 C 
ATOM     15  C   UNL     1      -0.007   0.047   0.002  0.00  0.00    -0.032 C 
BRANCH  15  16
ATOM     16  N   UNL     1       0.696  -0.420   1.204  0.00  0.00    +0.380 N 
ATOM     17  C   UNL     1       0.006   0.083   2.400  0.00  0.00    -0.096 C 
ATOM     18  C   UNL     1       0.706  -1.889   1.226  0.00  0.00    -0.096 C 
ATOM     19  H   UNL     1       1.644  -0.077   1.194  0.00  0.00    -0.082 HD
ENDBRANCH  15  16
ENDBRANCH   1  15
BRANCH   4  20
ATOM     20  S   UNL     1       0.697   1.593  -4.675  0.00  0.00    -0.081 S 
BRANCH  20  21
ATOM     21  C   UNL     1       2.273   2.406  -5.057  0.00  0.00    +0.150 C 
BRANCH  21  22
ATOM     22  C   UNL     1       2.150   3.150  -6.362  0.00  0.00    +0.134 C 
ATOM     23  N   UNL     1       1.001   3.114  -6.993  0.00  0.00    -0.160 NA
ATOM     24  C   UNL     1       0.796   3.736  -8.159  0.00  0.00    +0.271 C 
ATOM     25  O   UNL     1      -0.288   3.688  -8.714  0.00  0.00    -0.268 OA
ATOM     26  C   UNL     1       1.937   4.493  -8.761  0.00  0.00    +0.071 C 
ATOM     27  C   UNL     1       2.005   5.087  -9.966  0.00  0.00    -0.042 C 
ATOM     28  C   UNL     1       1.303   5.112 -11.321  0.00  0.00    +0.033 C 
ATOM     29  C   UNL     1       2.422   5.275 -12.372  0.00  0.00    +0.006 C 
ATOM     30  C   UNL     1       3.736   5.451 -11.569  0.00  0.00    +0.019 C 
ATOM     31  C   UNL     1       3.228   5.972 -10.212  0.00  0.00    +0.079 C 
ATOM     32  S   UNL     1       4.332   5.464  -8.846  0.00  0.00    -0.097 S 
ATOM     33  C   UNL     1       3.170   4.471  -7.942  0.00  0.00    +0.111 C 
ATOM     34  N   UNL     1       3.206   3.810  -6.810  0.00  0.00    -0.227 NA
ENDBRANCH  21  22
ENDBRANCH  20  21
ENDBRANCH   4  20
TORSDOF 6
