REMARK  Name = ZINC38666009
REMARK  10 active torsions:
REMARK  status: ('A' for Active; 'I' for Inactive)
REMARK    1  A    between atoms: C_1  and  N_2
REMARK    2  A    between atoms: N_2  and  C_3
REMARK    3  A    between atoms: N_2  and  C_4
REMARK    4  A    between atoms: C_7  and  C_10
REMARK    5  A    between atoms: C_10  and  C_12
REMARK    6  A    between atoms: C_10  and  N_28
REMARK    7  A    between atoms: C_12  and  N_13
REMARK    8  A    between atoms: C_14  and  C_16
REMARK    9  A    between atoms: N_18  and  C_19
REMARK   10  A    between atoms: N_31  and  C_34
REMARK                            x       y       z     vdW  Elec       q    Type
REMARK                         _______ _______ _______ _____ _____    ______ ____
ROOT
ATOM      1  C   UNL     1      -0.109  -3.008  -4.907  0.00  0.00    +0.104 C 
ENDROOT
BRANCH   1   5
ATOM      2  C   UNL     1       0.113  -0.736  -1.294  0.00  0.00    +0.029 A 
ATOM      3  C   UNL     1       0.325  -2.108  -1.267  0.00  0.00    +0.023 A 
ATOM      4  C   UNL     1       0.252  -2.840  -2.437  0.00  0.00    +0.007 A 
ATOM      5  C   UNL     1      -0.031  -2.207  -3.633  0.00  0.00    -0.029 A 
ATOM      6  C   UNL     1      -0.243  -0.841  -3.663  0.00  0.00    +0.007 A 
ATOM      7  C   UNL     1      -0.177  -0.104  -2.497  0.00  0.00    +0.023 A 
BRANCH   2   9
ATOM      8  C   UNL     1      -0.044   1.453  -0.142  0.00  0.00    +0.129 C 
ATOM      9  N   UNL     1       0.186   0.007  -0.113  0.00  0.00    -0.336 N 
ATOM     10  C   UNL     1       0.492  -0.661   1.154  0.00  0.00    +0.129 C 
ENDBRANCH   2   9
ENDBRANCH   1   5
BRANCH   1  11
ATOM     11  N   UNL     1       0.717  -2.368  -5.940  0.00  0.00    -0.291 NA
ATOM     12  C   UNL     1       1.891  -1.716  -5.345  0.00  0.00    +0.104 C 
ATOM     13  C   UNL     1       2.816  -1.219  -6.462  0.00  0.00    +0.120 C 
ATOM     14  N   UNL     1       2.032  -0.375  -7.376  0.00  0.00    -0.327 N 
ATOM     15  C   UNL     1       0.769  -0.909  -7.906  0.00  0.00    +0.120 C 
ATOM     16  C   UNL     1      -0.075  -1.418  -6.732  0.00  0.00    +0.104 C 
BRANCH  14  17
ATOM     17  C   UNL     1       2.476   0.901  -7.731  0.00  0.00    +0.030 A 
ATOM     18  C   UNL     1       3.733   1.337  -7.330  0.00  0.00    +0.023 A 
ATOM     19  C   UNL     1       4.169   2.599  -7.684  0.00  0.00    +0.002 A 
ATOM     20  C   UNL     1       3.356   3.429  -8.434  0.00  0.00    +0.000 A 
ATOM     21  C   UNL     1       2.104   2.997  -8.835  0.00  0.00    +0.002 A 
ATOM     22  C   UNL     1       1.664   1.734  -8.490  0.00  0.00    +0.023 A 
ENDBRANCH  14  17
ENDBRANCH   1  11
BRANCH   1  23
ATOM     23  C   UNL     1      -1.562  -3.071  -5.382  0.00  0.00    +0.128 C 
BRANCH  23  24
ATOM     24  N   UNL     1      -1.621  -3.735  -6.687  0.00  0.00    -0.306 N 
ATOM     25  C   UNL     1      -2.814  -3.991  -7.259  0.00  0.00    +0.299 C 
ATOM     26  O   UNL     1      -3.839  -3.673  -6.693  0.00  0.00    -0.265 OA
ATOM     27  H   UNL     1      -0.801  -3.989  -7.139  0.00  0.00    +0.149 HD
BRANCH  25  28
ATOM     28  C   UNL     1      -2.874  -4.668  -8.589  0.00  0.00    +0.303 C 
ATOM     29  O   UNL     1      -1.848  -4.987  -9.155  0.00  0.00    -0.265 OA
ATOM     30  N   UNL     1      -4.067  -4.925  -9.161  0.00  0.00    -0.278 N 
ATOM     31  H   UNL     1      -4.882  -4.592  -8.754  0.00  0.00    +0.155 HD
BRANCH  30  32
ATOM     32  C   UNL     1      -4.130  -5.672 -10.342  0.00  0.00    +0.038 A 
ATOM     33  C   UNL     1      -5.112  -5.399 -11.285  0.00  0.00    +0.027 A 
ATOM     34  C   UNL     1      -5.176  -6.136 -12.451  0.00  0.00    +0.051 A 
ATOM     35  C   UNL     1      -4.260  -7.149 -12.684  0.00  0.00    +0.166 A 
ATOM     36  C   UNL     1      -3.273  -7.426 -11.741  0.00  0.00    +0.168 A 
ATOM     37  C   UNL     1      -3.207  -6.683 -10.574  0.00  0.00    +0.072 A 
ATOM     38  O   UNL     1      -2.505  -8.456 -12.201  0.00  0.00    -0.453 OA
ATOM     39  C   UNL     1      -3.280  -9.076 -13.245  0.00  0.00    +0.466 C 
ATOM     40  O   UNL     1      -4.109  -8.008 -13.736  0.00  0.00    -0.453 OA
ENDBRANCH  30  32
ENDBRANCH  25  28
ENDBRANCH  23  24
ENDBRANCH   1  23
TORSDOF 8
