REMARK  Name = ZINC35547126
REMARK  9 active torsions:
REMARK  status: ('A' for Active; 'I' for Inactive)
REMARK    1  A    between atoms: C_1  and  C_2
REMARK    2  A    between atoms: C_2  and  N_3
REMARK    3  A    between atoms: N_3  and  C_4
REMARK    4  A    between atoms: C_4  and  C_6
REMARK    5  A    between atoms: C_4  and  C_13
REMARK    6  A    between atoms: C_14  and  C_22
REMARK    7  A    between atoms: C_15  and  C_21
REMARK    8  A    between atoms: C_17  and  C_20
REMARK    9  A    between atoms: C_18  and  C_19
REMARK                            x       y       z     vdW  Elec       q    Type
REMARK                         _______ _______ _______ _____ _____    ______ ____
ROOT
ATOM      1  C   UNL     1      -0.740  -1.553   0.141  0.00  0.00    -0.008 C 
ENDROOT
BRANCH   1   2
ATOM      2  C   UNL     1      -0.517  -2.299   1.431  0.00  0.00    -0.051 A 
ATOM      3  C   UNL     1      -1.078  -1.832   2.605  0.00  0.00    -0.045 A 
ATOM      4  C   UNL     1      -0.874  -2.516   3.789  0.00  0.00    -0.047 A 
ATOM      5  C   UNL     1      -0.108  -3.667   3.798  0.00  0.00    +0.007 A 
ATOM      6  C   UNL     1       0.453  -4.134   2.624  0.00  0.00    -0.047 A 
ATOM      7  C   UNL     1       0.245  -3.452   1.440  0.00  0.00    -0.045 A 
ATOM      8  C   UNL     1       0.852  -3.964   0.159  0.00  0.00    +0.044 C 
ATOM      9  C   UNL     1       1.288  -5.388   2.635  0.00  0.00    +0.044 C 
ATOM     10  C   UNL     1      -1.485  -2.007   5.069  0.00  0.00    +0.044 C 
ATOM     11  C   UNL     1      -1.913  -0.578   2.595  0.00  0.00    +0.044 C 
ENDBRANCH   1   2
BRANCH   1  12
ATOM     12  C   UNL     1       0.586  -1.295  -0.526  0.00  0.00    -0.044 A 
ATOM     13  C   UNL     1       0.961  -2.038  -1.631  0.00  0.00    +0.003 A 
ATOM     14  C   UNL     1       2.177  -1.802  -2.242  0.00  0.00    +0.000 A 
ATOM     15  C   UNL     1       3.020  -0.822  -1.751  0.00  0.00    +0.001 A 
ATOM     16  C   UNL     1       2.646  -0.079  -0.647  0.00  0.00    +0.014 A 
ATOM     17  C   UNL     1       1.426  -0.311  -0.038  0.00  0.00    +0.015 A 
ATOM     18  I   UNL     1       0.855   0.821   1.630  0.00  0.00    -0.044 I 
ENDBRANCH   1  12
BRANCH   1  19
ATOM     19  N   UNL     1      -1.588  -2.357  -0.749  0.00  0.00    +0.386 N 
ATOM     20  H   UNL     1      -1.195  -3.282  -0.843  0.00  0.00    -0.085 HD
ATOM     21  H   UNL     1      -1.635  -1.918  -1.657  0.00  0.00    -0.085 HD
BRANCH  19  23
ATOM     22  C   UNL     1      -3.822  -3.293  -1.109  0.00  0.00    -0.017 C 
ATOM     23  C   UNL     1      -2.939  -2.455  -0.182  0.00  0.00    -0.085 C 
ENDBRANCH  19  23
ENDBRANCH   1  19
TORSDOF 4
