REMARK  Name = ZINC08891320
REMARK  8 active torsions:
REMARK  status: ('A' for Active; 'I' for Inactive)
REMARK    1  A    between atoms: C_1  and  C_2
REMARK    2  A    between atoms: C_2  and  C_3
REMARK    3  A    between atoms: C_3  and  C_27
REMARK    4  A    between atoms: N_6  and  C_10
REMARK    5  A    between atoms: C_10  and  C_11
REMARK    6  A    between atoms: N_13  and  C_14
REMARK    7  A    between atoms: C_14  and  C_16
REMARK    8  A    between atoms: C_14  and  C_17
REMARK                            x       y       z     vdW  Elec       q    Type
REMARK                         _______ _______ _______ _____ _____    ______ ____
ROOT
ATOM      1  C   UNL     1       0.640   3.376   0.014  0.00  0.00    +0.138 C 
ATOM      2  C   UNL     1      -0.871   3.261   0.028  0.00  0.00    +0.251 C 
ATOM      3  O   UNL     1      -1.675   4.169   0.040  0.00  0.00    -0.272 OA
ATOM      4  N   UNL     1      -1.137   1.940   0.018  0.00  0.00    -0.215 N 
ATOM      5  C   UNL     1      -0.014   1.211   0.009  0.00  0.00    +0.310 C 
ATOM      6  O   UNL     1       0.002  -0.004   0.002  0.00  0.00    -0.252 OA
ATOM      7  N   UNL     1       1.094   1.974   0.002  0.00  0.00    -0.281 N 
ATOM      8  H   UNL     1       2.012   1.662  -0.008  0.00  0.00    +0.152 HD
ENDROOT
BRANCH   1   9
ATOM      9  C   UNL     1       1.106   4.094  -1.226  0.00  0.00    -0.015 A 
ATOM     10  C   UNL     1       1.342   5.456  -1.188  0.00  0.00    +0.009 A 
ATOM     11  C   UNL     1       1.775   6.115  -2.323  0.00  0.00    +0.039 A 
ATOM     12  C   UNL     1       1.960   5.413  -3.502  0.00  0.00    +0.123 A 
ATOM     13  C   UNL     1       1.719   4.050  -3.540  0.00  0.00    +0.039 A 
ATOM     14  C   UNL     1       1.292   3.392  -2.402  0.00  0.00    +0.009 A 
ATOM     15  F   UNL     1       2.377   6.057  -4.614  0.00  0.00    -0.205 F 
ENDBRANCH   1   9
BRANCH   1  17
ATOM     16  C   UNL     1       0.709   3.303   2.511  0.00  0.00    +0.007 C 
ATOM     17  C   UNL     1       1.137   4.092   1.272  0.00  0.00    +0.037 C 
ENDBRANCH   1  17
BRANCH   4  18
ATOM     18  C   UNL     1      -2.487   1.371   0.020  0.00  0.00    +0.213 C 
BRANCH  18  19
ATOM     19  C   UNL     1      -2.944   1.168   1.441  0.00  0.00    +0.231 C 
ATOM     20  O   UNL     1      -2.214   1.469   2.362  0.00  0.00    -0.274 OA
ATOM     21  N   UNL     1      -4.165   0.653   1.689  0.00  0.00    -0.307 N 
ATOM     22  H   UNL     1      -4.748   0.412   0.953  0.00  0.00    +0.149 HD
BRANCH  21  23
ATOM     23  C   UNL     1      -4.609   0.456   3.071  0.00  0.00    +0.100 C 
ATOM     24  C   UNL     1      -4.097  -0.892   3.584  0.00  0.00    +0.033 C 
BRANCH  23  25
ATOM     25  C   UNL     1      -6.115   0.473   3.121  0.00  0.00    -0.027 A 
ATOM     26  C   UNL     1      -6.843  -0.149   2.108  0.00  0.00    +0.006 A 
ATOM     27  C   UNL     1      -8.204  -0.157   2.126  0.00  0.00    +0.009 A 
ATOM     28  C   UNL     1      -8.889   0.481   3.175  0.00  0.00    -0.018 A 
ATOM     29  C   UNL     1     -10.293   0.500   3.224  0.00  0.00    +0.008 A 
ATOM     30  C   UNL     1     -10.922   1.128   4.255  0.00  0.00    +0.001 A 
ATOM     31  C   UNL     1     -10.195   1.755   5.265  0.00  0.00    +0.001 A 
ATOM     32  C   UNL     1      -8.834   1.757   5.250  0.00  0.00    +0.008 A 
ATOM     33  C   UNL     1      -8.149   1.119   4.202  0.00  0.00    -0.018 A 
ATOM     34  C   UNL     1      -6.745   1.100   4.152  0.00  0.00    +0.014 A 
ENDBRANCH  23  25
ENDBRANCH  21  23
ENDBRANCH  18  19
ENDBRANCH   4  18
TORSDOF 6
