REMARK  Name = ZINC36068017
REMARK  12 active torsions:
REMARK  status: ('A' for Active; 'I' for Inactive)
REMARK    1  A    between atoms: C_1  and  C_2
REMARK    2  A    between atoms: C_2  and  C_3
REMARK    3  A    between atoms: C_3  and  C_5
REMARK    4  A    between atoms: C_3  and  N_11
REMARK    5  A    between atoms: C_5  and  O_7
REMARK    6  A    between atoms: O_7  and  C_8
REMARK    7  A    between atoms: C_8  and  C_9
REMARK    8  A    between atoms: C_8  and  C_10
REMARK    9  A    between atoms: C_12  and  C_25
REMARK   10  A    between atoms: C_25  and  N_26
REMARK   11  A    between atoms: N_26  and  C_27
REMARK   12  A    between atoms: N_26  and  C_28
REMARK                            x       y       z     vdW  Elec       q    Type
REMARK                         _______ _______ _______ _____ _____    ______ ____
ROOT
ATOM      1  N   UNL     1      -2.105  -0.148  -1.230  0.00  0.00    -0.284 N 
ATOM      2  C   UNL     1      -3.218   0.628  -1.172  0.00  0.00    +0.098 A 
ATOM      3  N   UNL     1      -3.845   0.993  -2.258  0.00  0.00    -0.228 NA
ATOM      4  C   UNL     1      -3.413   0.614  -3.458  0.00  0.00    +0.116 A 
ATOM      5  C   UNL     1      -2.272  -0.188  -3.618  0.00  0.00    +0.076 A 
ATOM      6  C   UNL     1      -1.605  -0.567  -2.408  0.00  0.00    +0.263 A 
ATOM      7  O   UNL     1      -0.602  -1.260  -2.444  0.00  0.00    -0.267 OA
ATOM      8  C   UNL     1      -1.917  -0.527  -4.996  0.00  0.00    -0.023 A 
ATOM      9  C   UNL     1      -2.712  -0.039  -5.971  0.00  0.00    -0.004 A 
ATOM     10  S   UNL     1      -3.963   0.887  -5.123  0.00  0.00    -0.073 S 
ATOM     11  C   UNL     1      -2.564  -0.239  -7.448  0.00  0.00    +0.043 C 
ATOM     12  C   UNL     1      -1.154  -0.781  -7.725  0.00  0.00    +0.005 C 
ATOM     13  C   UNL     1      -0.873  -1.934  -6.757  0.00  0.00    +0.005 C 
ATOM     14  C   UNL     1      -0.706  -1.392  -5.337  0.00  0.00    +0.037 C 
ENDROOT
BRANCH   1  15
ATOM     15  C   UNL     1      -1.433  -0.534   0.013  0.00  0.00    +0.200 C 
BRANCH  15  17
ATOM     16  C   UNL     1      -0.019   1.526   0.010  0.00  0.00    +0.006 C 
ATOM     17  C   UNL     1       0.002  -0.004   0.002  0.00  0.00    +0.033 C 
ENDBRANCH  15  17
BRANCH  15  18
ATOM     18  C   UNL     1      -1.414  -2.036   0.129  0.00  0.00    +0.331 C 
ATOM     19  O   UNL     1      -1.910  -2.715  -0.739  0.00  0.00    -0.248 OA
BRANCH  18  20
ATOM     20  O   UNL     1      -0.845  -2.620   1.195  0.00  0.00    -0.460 OA
BRANCH  20  21
ATOM     21  C   UNL     1      -0.862  -4.048   1.239  0.00  0.00    +0.170 C 
ATOM     22  C   UNL     1       0.396  -4.595   0.560  0.00  0.00    +0.052 C 
ATOM     23  C   UNL     1      -0.898  -4.513   2.696  0.00  0.00    +0.052 C 
ENDBRANCH  20  21
ENDBRANCH  18  20
ENDBRANCH  15  18
ENDBRANCH   1  15
BRANCH   2  24
ATOM     24  C   UNL     1      -3.738   1.077   0.169  0.00  0.00    -0.004 C 
BRANCH  24  25
ATOM     25  N   UNL     1      -4.940   1.899  -0.021  0.00  0.00    +0.381 N 
ATOM     26  C   UNL     1      -6.011   1.075  -0.598  0.00  0.00    -0.096 C 
ATOM     27  C   UNL     1      -5.377   2.435   1.274  0.00  0.00    -0.096 C 
ATOM     28  H   UNL     1      -4.729   2.663  -0.647  0.00  0.00    -0.082 HD
ENDBRANCH  24  25
ENDBRANCH   2  24
TORSDOF 7
