REMARK  Name = ZINC39601025
REMARK  8 active torsions:
REMARK  status: ('A' for Active; 'I' for Inactive)
REMARK    1  A    between atoms: C_1  and  C_2
REMARK    2  A    between atoms: C_2  and  C_3
REMARK    3  A    between atoms: C_2  and  C_4
REMARK    4  A    between atoms: C_4  and  C_5
REMARK    5  A    between atoms: C_5  and  N_6
REMARK    6  A    between atoms: C_7  and  C_9
REMARK    7  A    between atoms: C_20  and  C_22
REMARK    8  A    between atoms: C_28  and  C_30
REMARK                            x       y       z     vdW  Elec       q    Type
REMARK                         _______ _______ _______ _____ _____    ______ ____
ROOT
ATOM      1  C   UNL     1      -5.737  -0.925  -2.313  0.00  0.00    +0.100 C 
ATOM      2  C   UNL     1      -5.741  -2.468  -2.397  0.00  0.00    +0.121 C 
ATOM      3  N   UNL     1      -6.905  -2.793  -3.255  0.00  0.00    -0.299 N 
ATOM      4  C   UNL     1      -6.886  -1.752  -4.311  0.00  0.00    +0.115 C 
ATOM      5  C   UNL     1      -6.489  -0.459  -3.571  0.00  0.00    -0.004 C 
ATOM      6  C   UNL     1      -7.734   0.330  -3.181  0.00  0.00    -0.010 C 
ATOM      7  C   UNL     1      -8.434   0.831  -4.447  0.00  0.00    -0.082 C 
ATOM      8  N   UNL     1      -7.513   1.679  -5.215  0.00  0.00    +0.379 N 
ATOM      9  C   UNL     1      -6.362   0.888  -5.665  0.00  0.00    -0.082 C 
ATOM     10  C   UNL     1      -5.575   0.390  -4.450  0.00  0.00    -0.010 C 
ATOM     11  C   UNL     1      -7.782  -3.806  -3.108  0.00  0.00    +0.236 C 
ATOM     12  O   UNL     1      -8.690  -3.941  -3.901  0.00  0.00    -0.274 OA
ATOM     13  H   UNL     1      -7.995   2.056  -6.017  0.00  0.00    -0.086 HD
ATOM     14  H   UNL     1      -7.192   2.437  -4.631  0.00  0.00    -0.086 HD
ENDROOT
BRANCH  11  15
ATOM     15  C   UNL     1      -7.634  -4.770  -1.960  0.00  0.00    +0.162 C 
ATOM     16  C   UNL     1      -6.554  -5.821  -2.292  0.00  0.00    +0.033 C 
ATOM     17  C   UNL     1      -7.144  -7.126  -1.695  0.00  0.00    +0.021 C 
ATOM     18  C   UNL     1      -8.658  -6.933  -1.958  0.00  0.00    +0.109 C 
ATOM     19  N   UNL     1      -8.898  -5.490  -1.746  0.00  0.00    -0.283 N 
ATOM     20  C   UNL     1     -10.076  -4.928  -1.412  0.00  0.00    +0.320 C 
ATOM     21  O   UNL     1     -10.154  -3.727  -1.264  0.00  0.00    -0.266 OA
BRANCH  20  22
ATOM     22  C   UNL     1     -11.297  -5.791  -1.224  0.00  0.00    +0.470 C 
ATOM     23  F   UNL     1     -12.390  -4.986  -0.884  0.00  0.00    -0.162 F 
ATOM     24  F   UNL     1     -11.573  -6.474  -2.414  0.00  0.00    -0.162 F 
ATOM     25  F   UNL     1     -11.062  -6.715  -0.200  0.00  0.00    -0.162 F 
ENDBRANCH  20  22
ENDBRANCH  11  15
BRANCH   1  27
ATOM     26  N   UNL     1      -4.029   0.761  -1.711  0.00  0.00    -0.315 N 
ATOM     27  C   UNL     1      -4.323  -0.403  -2.324  0.00  0.00    +0.218 C 
ATOM     28  O   UNL     1      -3.449  -1.031  -2.884  0.00  0.00    -0.275 OA
ATOM     29  H   UNL     1      -4.728   1.263  -1.263  0.00  0.00    +0.149 HD
BRANCH  26  30
ATOM     30  C   UNL     1      -2.655   1.268  -1.722  0.00  0.00    +0.104 C 
BRANCH  30  31
ATOM     31  C   UNL     1      -2.595   2.595  -0.962  0.00  0.00    +0.022 C 
BRANCH  31  33
ATOM     32  C   UNL     1      -0.751   3.461  -2.408  0.00  0.00    +0.007 C 
ATOM     33  C   UNL     1      -1.159   3.124  -0.973  0.00  0.00    -0.016 C 
ATOM     34  C   UNL     1      -1.074   4.385  -0.110  0.00  0.00    +0.007 C 
ENDBRANCH  31  33
ENDBRANCH  30  31
ENDBRANCH  26  30
ENDBRANCH   1  27
TORSDOF 6
