REMARK  Name = ZINC12009150
REMARK  4 active torsions:
REMARK  status: ('A' for Active; 'I' for Inactive)
REMARK    1  A    between atoms: C_4  and  C_7
REMARK    2  A    between atoms: C_16  and  N_25
REMARK    3  A    between atoms: C_18  and  C_20
REMARK    4  A    between atoms: C_26  and  C_28
REMARK                            x       y       z     vdW  Elec       q    Type
REMARK                         _______ _______ _______ _____ _____    ______ ____
ROOT
ATOM      1  C   UNL     1       4.247   4.895   1.454  0.00  0.00    +0.080 A 
ATOM      2  C   UNL     1       4.592   5.593   0.307  0.00  0.00    +0.098 A 
ATOM      3  C   UNL     1       4.598   4.909  -0.920  0.00  0.00    +0.253 A 
ATOM      4  O   UNL     1       4.896   5.489  -1.952  0.00  0.00    -0.268 OA
ATOM      5  N   UNL     1       4.273   3.600  -0.937  0.00  0.00    -0.291 N 
ATOM      6  H   UNL     1       4.276   3.111  -1.775  0.00  0.00    +0.172 HD
ATOM      7  C   UNL     1       3.938   2.964   0.218  0.00  0.00    +0.234 A 
ATOM      8  N   UNL     1       3.930   3.595   1.370  0.00  0.00    -0.212 NA
ATOM      9  N   UNL     1       3.604   1.624   0.179  0.00  0.00    -0.184 N 
ATOM     10  C   UNL     1       2.340   1.113   0.097  0.00  0.00    +0.133 A 
ATOM     11  C   UNL     1       2.442  -0.240   0.078  0.00  0.00    +0.077 A 
ATOM     12  C   UNL     1       3.811  -0.570   0.156  0.00  0.00    +0.130 A 
ATOM     13  N   UNL     1       4.502   0.550   0.220  0.00  0.00    -0.159 NA
ENDROOT
BRANCH   1  17
ATOM     14  C   UNL     1       4.201   6.866   5.219  0.00  0.00    +0.000 A 
ATOM     15  C   UNL     1       3.977   5.502   5.153  0.00  0.00    +0.001 A 
ATOM     16  C   UNL     1       3.990   4.857   3.933  0.00  0.00    +0.010 A 
ATOM     17  C   UNL     1       4.231   5.582   2.766  0.00  0.00    +0.001 A 
ATOM     18  C   UNL     1       4.461   6.955   2.840  0.00  0.00    +0.010 A 
ATOM     19  C   UNL     1       4.439   7.591   4.065  0.00  0.00    +0.001 A 
ENDBRANCH   1  17
BRANCH  12  20
ATOM     20  C   UNL     1       4.374  -1.937   0.165  0.00  0.00    +0.155 A 
ATOM     21  C   UNL     1       5.694  -2.256   0.235  0.00  0.00    +0.051 A 
ATOM     22  C   UNL     1       5.772  -3.663   0.218  0.00  0.00    +0.042 A 
ATOM     23  C   UNL     1       4.511  -4.128   0.131  0.00  0.00    +0.196 A 
ATOM     24  O   UNL     1       3.668  -3.082   0.099  0.00  0.00    -0.461 OA
ENDBRANCH  12  20
BRANCH  10  25
ATOM     25  N   UNL     1       1.159   1.849   0.038  0.00  0.00    -0.266 N 
ATOM     26  C   UNL     1      -0.031   1.217   0.065  0.00  0.00    +0.252 C 
ATOM     27  O   UNL     1      -0.074   0.002   0.044  0.00  0.00    -0.270 OA
ATOM     28  H   UNL     1       1.193   2.817  -0.022  0.00  0.00    +0.157 HD
BRANCH  26  29
ATOM     29  C   UNL     1      -1.282   1.999   0.114  0.00  0.00    +0.072 A 
ATOM     30  C   UNL     1      -1.242   3.393   0.035  0.00  0.00    +0.016 A 
ATOM     31  C   UNL     1      -2.413   4.118   0.076  0.00  0.00    +0.001 A 
ATOM     32  C   UNL     1      -3.630   3.469   0.206  0.00  0.00    +0.003 A 
ATOM     33  C   UNL     1      -3.680   2.090   0.290  0.00  0.00    +0.039 A 
ATOM     34  C   UNL     1      -2.513   1.349   0.245  0.00  0.00    +0.135 A 
ATOM     35  F   UNL     1      -2.563   0.002   0.327  0.00  0.00    -0.205 F 
ENDBRANCH  26  29
ENDBRANCH  10  25
TORSDOF 4
