REMARK  Name = ZINC39069977
REMARK  5 active torsions:
REMARK  status: ('A' for Active; 'I' for Inactive)
REMARK    1  A    between atoms: C_1  and  C_2
REMARK    2  A    between atoms: C_3  and  O_12
REMARK    3  A    between atoms: C_4  and  C_11
REMARK    4  A    between atoms: C_7  and  C_8
REMARK    5  A    between atoms: C_8  and  C_10
REMARK                            x       y       z     vdW  Elec       q    Type
REMARK                         _______ _______ _______ _____ _____    ______ ____
ROOT
ATOM      1  C   UNL     1      -0.018   1.503   0.010  0.00  0.00    +0.050 C 
ATOM      2  C   UNL     1       0.002  -0.004   0.002  0.00  0.00    +0.019 A 
ATOM      3  C   UNL     1       0.009  -0.829  -1.127  0.00  0.00    +0.141 A 
ATOM      4  C   UNL     1       0.029  -2.120  -0.701  0.00  0.00    +0.056 A 
ATOM      5  N   UNL     1       0.034  -2.134   0.657  0.00  0.00    -0.353 N 
ATOM      6  H   UNL     1       0.048  -2.928   1.214  0.00  0.00    +0.166 HD
ATOM      7  C   UNL     1       0.024  -0.833   1.111  0.00  0.00    +0.089 A 
ATOM      8  C   UNL     1       0.041  -3.336  -1.590  0.00  0.00    +0.067 C 
ENDROOT
BRANCH   7   9
ATOM      9  C   UNL     1       0.031  -0.420   2.463  0.00  0.00    +0.176 C 
ATOM     10  O   UNL     1       0.017   0.763   2.736  0.00  0.00    -0.291 OA
ATOM     11  C   UNL     1       0.055  -1.448   3.564  0.00  0.00    +0.093 C 
ENDBRANCH   7   9
BRANCH   3  12
ATOM     12  O   UNL     1      -0.003  -0.413  -2.424  0.00  0.00    -0.505 OA
ATOM     13  H   UNL     1       0.877  -0.280  -2.802  0.00  0.00    +0.292 HD
ENDBRANCH   3  12
TORSDOF 2
