REMARK  Name = ZINC15236437
REMARK  9 active torsions:
REMARK  status: ('A' for Active; 'I' for Inactive)
REMARK    1  A    between atoms: C_1  and  C_2
REMARK    2  A    between atoms: C_2  and  C_23
REMARK    3  A    between atoms: N_5  and  C_9
REMARK    4  A    between atoms: C_9  and  C_10
REMARK    5  A    between atoms: C_10  and  C_12
REMARK    6  A    between atoms: C_10  and  O_22
REMARK    7  A    between atoms: C_12  and  O_13
REMARK    8  A    between atoms: O_13  and  C_14
REMARK    9  A    between atoms: C_17  and  C_20
REMARK                            x       y       z     vdW  Elec       q    Type
REMARK                         _______ _______ _______ _____ _____    ______ ____
ROOT
ATOM      1  C   UNL     1       2.865  -2.715  -1.223  0.00  0.00    +0.047 C 
ATOM      2  C   UNL     1       3.669  -2.162  -0.045  0.00  0.00    +0.136 C 
ATOM      3  C   UNL     1       3.181  -2.758   1.260  0.00  0.00    +0.251 C 
ATOM      4  O   UNL     1       2.073  -2.658   1.741  0.00  0.00    -0.272 OA
ATOM      5  N   UNL     1       4.235  -3.421   1.775  0.00  0.00    -0.221 N 
ATOM      6  C   UNL     1       5.311  -3.328   0.985  0.00  0.00    +0.310 C 
ATOM      7  O   UNL     1       6.382  -3.843   1.238  0.00  0.00    -0.252 OA
ATOM      8  N   UNL     1       5.074  -2.599  -0.125  0.00  0.00    -0.281 N 
ATOM      9  H   UNL     1       5.703  -2.401  -0.837  0.00  0.00    +0.152 HD
ENDROOT
BRANCH   2  10
ATOM     10  C   UNL     1       3.584  -0.658  -0.006  0.00  0.00    -0.008 A 
ATOM     11  C   UNL     1       4.715   0.094  -0.092  0.00  0.00    +0.007 A 
ATOM     12  C   UNL     1       4.656   1.486  -0.057  0.00  0.00    +0.001 A 
ATOM     13  C   UNL     1       3.465   2.134   0.063  0.00  0.00    +0.008 A 
ATOM     14  C   UNL     1       2.276   1.391   0.154  0.00  0.00    -0.018 A 
ATOM     15  C   UNL     1       2.336  -0.024   0.119  0.00  0.00    -0.012 A 
ATOM     16  C   UNL     1       1.146  -0.767   0.210  0.00  0.00    +0.009 A 
ATOM     17  C   UNL     1      -0.044  -0.119   0.330  0.00  0.00    +0.001 A 
ATOM     18  C   UNL     1      -0.104   1.273   0.364  0.00  0.00    +0.001 A 
ATOM     19  C   UNL     1       1.028   2.025   0.279  0.00  0.00    +0.008 A 
ENDBRANCH   2  10
BRANCH   5  20
ATOM     20  C   UNL     1       4.207  -4.152   3.044  0.00  0.00    +0.152 C 
BRANCH  20  21
ATOM     21  C   UNL     1       3.787  -5.601   2.788  0.00  0.00    +0.170 C 
BRANCH  21  22
ATOM     22  O   UNL     1       4.783  -6.253   1.998  0.00  0.00    -0.387 OA
ATOM     23  H   UNL     1       5.658  -6.278   2.409  0.00  0.00    +0.210 HD
ENDBRANCH  21  22
BRANCH  21  24
ATOM     24  C   UNL     1       3.637  -6.332   4.124  0.00  0.00    +0.261 C 
BRANCH  24  25
ATOM     25  O   UNL     1       3.134  -7.649   3.892  0.00  0.00    -0.489 OA
BRANCH  25  26
ATOM     26  C   UNL     1       2.941  -8.436   4.982  0.00  0.00    +0.121 A 
ATOM     27  C   UNL     1       3.238  -7.949   6.249  0.00  0.00    +0.047 A 
ATOM     28  C   UNL     1       3.039  -8.742   7.358  0.00  0.00    +0.022 A 
ATOM     29  C   UNL     1       2.549 -10.042   7.205  0.00  0.00    +0.052 A 
ATOM     30  C   UNL     1       2.257 -10.529   5.929  0.00  0.00    +0.022 A 
ATOM     31  C   UNL     1       2.453  -9.728   4.826  0.00  0.00    +0.047 A 
BRANCH  29  32
ATOM     32  C   UNL     1       2.346 -10.872   8.355  0.00  0.00    +0.099 C 
ATOM     33  N   UNL     1       2.186 -11.530   9.266  0.00  0.00    -0.191 NA
ENDBRANCH  29  32
ENDBRANCH  25  26
ENDBRANCH  24  25
ENDBRANCH  21  24
ENDBRANCH  20  21
ENDBRANCH   5  20
TORSDOF 8
