REMARK  Name = ZINC01042807
REMARK  4 active torsions:
REMARK  status: ('A' for Active; 'I' for Inactive)
REMARK    1  A    between atoms: C_6  and  S_7
REMARK    2  A    between atoms: S_7  and  N_10
REMARK    3  A    between atoms: N_13  and  N_14
REMARK    4  A    between atoms: N_14  and  C_15
REMARK                            x       y       z     vdW  Elec       q    Type
REMARK                         _______ _______ _______ _____ _____    ______ ____
ROOT
ATOM      1  N   UNL     1      -0.152   7.962   0.041  0.00  0.00    -0.168 N 
ATOM      2  C   UNL     1      -1.310   7.272   0.049  0.00  0.00    +0.335 C 
ATOM      3  O   UNL     1      -2.371   7.866   0.062  0.00  0.00    -0.250 OA
ATOM      4  N   UNL     1      -1.292   5.925   0.043  0.00  0.00    -0.219 N 
ATOM      5  H   UNL     1       0.694   7.489   0.030  0.00  0.00    +0.178 HD
ATOM      6  H   UNL     1      -2.125   5.428   0.049  0.00  0.00    +0.174 HD
ENDROOT
BRANCH   1   7
ATOM      7  S   UNL     1      -0.175   9.618   0.048  0.00  0.00    +0.076 S 
ATOM      8  O   UNL     1       1.181  10.042   0.064  0.00  0.00    -0.150 OA
ATOM      9  O   UNL     1      -1.086  10.016  -0.967  0.00  0.00    -0.150 OA
BRANCH   7  15
ATOM     10  C   UNL     1      -2.243  10.313   1.688  0.00  0.00    +0.030 A 
ATOM     11  C   UNL     1      -2.796  10.703   2.893  0.00  0.00    +0.022 A 
ATOM     12  C   UNL     1      -1.982  10.914   3.991  0.00  0.00    +0.041 A 
ATOM     13  C   UNL     1      -0.615  10.729   3.884  0.00  0.00    +0.022 A 
ATOM     14  C   UNL     1      -0.064  10.333   2.680  0.00  0.00    +0.030 A 
ATOM     15  C   UNL     1      -0.878  10.122   1.583  0.00  0.00    +0.109 A 
ATOM     16 CL   UNL     1      -2.675  11.411   5.503  0.00  0.00    -0.084 Cl
ENDBRANCH   7  15
ENDBRANCH   1   7
BRANCH   4  17
ATOM     17  N   UNL     1      -0.069   5.241   0.028  0.00  0.00    -0.263 N 
ATOM     18  H   UNL     1       0.764   5.737   0.022  0.00  0.00    +0.170 HD
BRANCH  17  19
ATOM     19  C   UNL     1      -0.050   3.844   0.022  0.00  0.00    +0.047 A 
ATOM     20  C   UNL     1       1.161   3.165   0.007  0.00  0.00    +0.044 A 
ATOM     21  C   UNL     1       1.177   1.783   0.000  0.00  0.00    +0.044 A 
ATOM     22  C   UNL     1      -0.013   1.076   0.008  0.00  0.00    +0.040 A 
ATOM     23  C   UNL     1      -1.221   1.750   0.017  0.00  0.00    +0.044 A 
ATOM     24  C   UNL     1      -1.243   3.132   0.030  0.00  0.00    +0.044 A 
ATOM     25 CL   UNL     1      -2.711   0.859   0.019  0.00  0.00    -0.083 Cl
ATOM     26 CL   UNL     1       2.691   0.933  -0.018  0.00  0.00    -0.083 Cl
ENDBRANCH  17  19
ENDBRANCH   4  17
TORSDOF 4
