REMARK  Name = ZINC67584637
REMARK  12 active torsions:
REMARK  status: ('A' for Active; 'I' for Inactive)
REMARK    1  A    between atoms: C_1  and  C_2
REMARK    2  A    between atoms: C_2  and  C_3
REMARK    3  A    between atoms: C_3  and  C_4
REMARK    4  A    between atoms: N_6  and  C_7
REMARK    5  A    between atoms: C_11  and  N_14
REMARK    6  A    between atoms: C_12  and  C_13
REMARK    7  A    between atoms: N_17  and  C_18
REMARK    8  A    between atoms: C_18  and  C_19
REMARK    9  A    between atoms: C_19  and  S_20
REMARK   10  A    between atoms: S_20  and  C_21
REMARK   11  A    between atoms: C_21  and  C_22
REMARK   12  A    between atoms: C_25  and  C_28
REMARK                            x       y       z     vdW  Elec       q    Type
REMARK                         _______ _______ _______ _____ _____    ______ ____
ROOT
ATOM      1  N   UNL     1       2.260  -6.761   4.450  0.00  0.00    -0.269 N 
ATOM      2  C   UNL     1       2.287  -8.109   4.447  0.00  0.00    +0.304 C 
ATOM      3  O   UNL     1       1.775  -8.724   3.532  0.00  0.00    -0.253 OA
ATOM      4  N   UNL     1       2.882  -8.774   5.457  0.00  0.00    -0.298 N 
ATOM      5  H   UNL     1       2.607  -6.271   5.212  0.00  0.00    +0.156 HD
ATOM      6  H   UNL     1       3.290  -8.283   6.187  0.00  0.00    +0.150 HD
ENDROOT
BRANCH   1  11
ATOM      7  C   UNL     1       1.757  -4.172   1.883  0.00  0.00    +0.038 A 
ATOM      8  C   UNL     1       0.679  -4.704   1.185  0.00  0.00    +0.024 A 
ATOM      9  C   UNL     1       0.133  -5.912   1.572  0.00  0.00    +0.004 A 
ATOM     10  C   UNL     1       0.655  -6.595   2.653  0.00  0.00    +0.024 A 
ATOM     11  C   UNL     1       1.732  -6.069   3.355  0.00  0.00    +0.039 A 
ATOM     12  C   UNL     1       2.287  -4.858   2.965  0.00  0.00    -0.008 A 
ATOM     13  C   UNL     1       3.460  -4.287   3.720  0.00  0.00    +0.047 C 
BRANCH   7  16
ATOM     14  C   UNL     1       2.180  -2.527   0.216  0.00  0.00    +0.217 C 
ATOM     15  O   UNL     1       1.672  -3.252  -0.613  0.00  0.00    -0.275 OA
ATOM     16  N   UNL     1       2.310  -2.948   1.490  0.00  0.00    -0.285 N 
ATOM     17  H   UNL     1       2.788  -2.403   2.134  0.00  0.00    +0.155 HD
BRANCH  14  18
ATOM     18  C   UNL     1       2.664  -1.155  -0.177  0.00  0.00    +0.096 C 
BRANCH  18  20
ATOM     19  C   UNL     1       2.891   0.463  -2.067  0.00  0.00    +0.004 C 
ATOM     20  C   UNL     1       2.399  -0.929  -1.667  0.00  0.00    +0.006 C 
ENDBRANCH  18  20
ENDBRANCH  14  18
ENDBRANCH   7  16
ENDBRANCH   1  11
BRANCH   4  21
ATOM     21  C   UNL     1       2.911 -10.238   5.453  0.00  0.00    +0.116 C 
BRANCH  21  22
ATOM     22  C   UNL     1       3.639 -10.738   6.702  0.00  0.00    +0.088 C 
BRANCH  22  23
ATOM     23  S   UNL     1       3.675 -12.551   6.697  0.00  0.00    -0.155 S 
BRANCH  23  24
ATOM     24  C   UNL     1       4.560 -12.977   8.222  0.00  0.00    +0.104 C 
BRANCH  24  25
ATOM     25  C   UNL     1       4.662 -14.476   8.342  0.00  0.00    -0.038 A 
ATOM     26  C   UNL     1       3.667 -15.186   8.989  0.00  0.00    +0.005 A 
ATOM     27  C   UNL     1       3.760 -16.561   9.100  0.00  0.00    +0.003 A 
ATOM     28  C   UNL     1       4.847 -17.225   8.563  0.00  0.00    -0.050 A 
ATOM     29  C   UNL     1       5.841 -16.515   7.916  0.00  0.00    +0.003 A 
ATOM     30  C   UNL     1       5.746 -15.141   7.801  0.00  0.00    +0.005 A 
ATOM     31  C   UNL     1       4.949 -18.724   8.684  0.00  0.00    +0.044 C 
ENDBRANCH  24  25
ENDBRANCH  23  24
ENDBRANCH  22  23
ENDBRANCH  21  22
ENDBRANCH   4  21
TORSDOF 9
