REMARK  Name = ZINC13065534
REMARK  10 active torsions:
REMARK  status: ('A' for Active; 'I' for Inactive)
REMARK    1  A    between atoms: C_1  and  C_2
REMARK    2  A    between atoms: C_4  and  C_36
REMARK    3  A    between atoms: C_9  and  C_14
REMARK    4  A    between atoms: C_14  and  N_62
REMARK    5  A    between atoms: C_15  and  C_16
REMARK    6  A    between atoms: C_15  and  N_62
REMARK    7  A    between atoms: C_22  and  C_23
REMARK    8  A    between atoms: C_22  and  N_62
REMARK    9  A    between atoms: N_27  and  C_28
REMARK   10  A    between atoms: C_28  and  C_29
REMARK                            x       y       z     vdW  Elec       q    Type
REMARK                         _______ _______ _______ _____ _____    ______ ____
ROOT
ATOM      1  N   UNL     1      -1.596   7.306  -1.748  0.00  0.00    +0.390 N 
ATOM      2  H   UNL     1      -1.033   6.713  -2.368  0.00  0.00    -0.080 HD
ENDROOT
BRANCH   1   3
ATOM      3  C   UNL     1      -1.196   7.053  -0.347  0.00  0.00    -0.036 C 
BRANCH   3  12
ATOM      4  C   UNL     1       2.043   0.345   0.004  0.00  0.00    +0.044 C 
ATOM      5  C   UNL     1       0.829   1.227   0.143  0.00  0.00    -0.050 A 
ATOM      6  C   UNL     1      -0.385   0.671   0.522  0.00  0.00    +0.008 A 
ATOM      7  C   UNL     1      -1.509   1.458   0.650  0.00  0.00    -0.026 A 
ATOM      8  C   UNL     1      -1.426   2.825   0.409  0.00  0.00    +0.052 A 
ATOM      9  C   UNL     1      -0.193   3.385   0.025  0.00  0.00    -0.001 A 
ATOM     10  C   UNL     1       0.934   2.566  -0.104  0.00  0.00    +0.013 A 
ATOM     11  C   UNL     1      -0.116   4.824  -0.232  0.00  0.00    +0.017 A 
ATOM     12  C   UNL     1      -1.241   5.569  -0.090  0.00  0.00    +0.001 A 
ATOM     13  C   UNL     1      -2.453   4.958   0.297  0.00  0.00    +0.251 A 
ATOM     14  O   UNL     1      -3.452   5.645   0.419  0.00  0.00    -0.268 OA
ATOM     15  N   UNL     1      -2.533   3.637   0.535  0.00  0.00    -0.322 N 
ATOM     16  H   UNL     1      -3.382   3.250   0.800  0.00  0.00    +0.169 HD
ATOM     17  C   UNL     1      -2.823   0.841   1.056  0.00  0.00    +0.046 C 
ENDBRANCH   3  12
ENDBRANCH   1   3
BRANCH   1  18
ATOM     18  C   UNL     1      -3.025   6.976  -1.933  0.00  0.00    -0.040 C 
BRANCH  18  19
ATOM     19  C   UNL     1      -3.373   7.119  -3.392  0.00  0.00    -0.046 A 
ATOM     20  C   UNL     1      -3.967   8.281  -3.861  0.00  0.00    +0.005 A 
ATOM     21  C   UNL     1      -4.266   8.371  -5.211  0.00  0.00    +0.020 A 
ATOM     22  C   UNL     1      -3.974   7.303  -6.038  0.00  0.00    +0.111 A 
ATOM     23  N   UNL     1      -3.413   6.211  -5.556  0.00  0.00    -0.263 NA
ATOM     24  C   UNL     1      -3.111   6.092  -4.278  0.00  0.00    +0.112 A 
ENDBRANCH  18  19
ENDBRANCH   1  18
BRANCH   1  25
ATOM     25  C   UNL     1      -1.357   8.724  -2.092  0.00  0.00    +0.001 C 
BRANCH  25  26
ATOM     26  C   UNL     1       0.129   8.966  -2.146  0.00  0.00    +0.135 A 
ATOM     27  N   UNL     1       0.888   9.394  -1.167  0.00  0.00    -0.115 NA
ATOM     28  N   UNL     1       2.097   9.470  -1.605  0.00  0.00    -0.023 NA
ATOM     29  N   UNL     1       2.128   9.110  -2.840  0.00  0.00    -0.044 NA
ATOM     30  N   UNL     1       0.934   8.792  -3.211  0.00  0.00    -0.227 N 
BRANCH  30  31
ATOM     31  C   UNL     1       0.530   8.328  -4.540  0.00  0.00    +0.182 C 
BRANCH  31  32
ATOM     32  C   UNL     1       0.234   9.516  -5.419  0.00  0.00    -0.026 A 
ATOM     33  C   UNL     1      -1.046  10.034  -5.471  0.00  0.00    +0.008 A 
ATOM     34  C   UNL     1      -1.318  11.127  -6.272  0.00  0.00    +0.038 A 
ATOM     35  C   UNL     1      -0.309  11.695  -7.032  0.00  0.00    +0.123 A 
ATOM     36  C   UNL     1       0.971  11.171  -6.983  0.00  0.00    +0.038 A 
ATOM     37  C   UNL     1       1.242  10.082  -6.177  0.00  0.00    +0.008 A 
ATOM     38  F   UNL     1      -0.575  12.760  -7.820  0.00  0.00    -0.205 F 
ENDBRANCH  31  32
ENDBRANCH  30  31
ENDBRANCH  25  26
ENDBRANCH   1  25
TORSDOF 8
