REMARK  Name = ZINC62957531
REMARK  5 active torsions:
REMARK  status: ('A' for Active; 'I' for Inactive)
REMARK    1  A    between atoms: C_1  and  C_2
REMARK    2  A    between atoms: C_2  and  C_3
REMARK    3  A    between atoms: C_3  and  C_18
REMARK    4  A    between atoms: C_10  and  C_16
REMARK    5  A    between atoms: C_16  and  N_17
REMARK                            x       y       z     vdW  Elec       q    Type
REMARK                         _______ _______ _______ _____ _____    ______ ____
ROOT
ATOM      1  C   UNL     1       0.892  -0.852  -1.067  0.00  0.00    -0.029 C 
ATOM      2  C   UNL     1       0.121  -0.245  -2.241  0.00  0.00    +0.025 C 
ATOM      3  C   UNL     1       0.816  -0.623  -3.553  0.00  0.00    +0.107 C 
ATOM      4  N   UNL     1       0.952  -2.085  -3.612  0.00  0.00    -0.315 N 
ATOM      5  C   UNL     1       1.598  -2.780  -2.490  0.00  0.00    +0.107 C 
ATOM      6  C   UNL     1       0.895  -2.377  -1.190  0.00  0.00    +0.025 C 
ATOM      7  C   UNL     1       0.478  -2.797  -4.708  0.00  0.00    +0.123 A 
ATOM      8  C   UNL     1       1.275  -2.929  -5.841  0.00  0.00    -0.024 A 
ATOM      9  C   UNL     1       0.792  -3.640  -6.924  0.00  0.00    +0.021 A 
ATOM     10  C   UNL     1      -0.478  -4.198  -6.838  0.00  0.00    +0.036 A 
ATOM     11  C   UNL     1      -1.214  -4.027  -5.682  0.00  0.00    +0.128 A 
ATOM     12  N   UNL     1      -0.725  -3.348  -4.662  0.00  0.00    -0.239 NA
ATOM     13 BR   UNL     1      -1.190  -5.180  -8.288  0.00  0.00    -0.049 Br
ATOM     14  C   UNL     1       2.333  -0.337  -1.083  0.00  0.00    +0.011 C 
ENDROOT
BRANCH   1  16
ATOM     15  C   UNL     1       0.219   1.077   0.370  0.00  0.00    +0.004 C 
ATOM     16  C   UNL     1       0.221  -0.448   0.247  0.00  0.00    +0.003 C 
ENDBRANCH   1  16
BRANCH   8  17
ATOM     17  C   UNL     1       2.646  -2.306  -5.887  0.00  0.00    -0.047 C 
BRANCH  17  18
ATOM     18  N   UNL     1       3.599  -3.163  -5.169  0.00  0.00    +0.381 N 
ATOM     19  H   UNL     1       3.262  -3.328  -4.232  0.00  0.00    -0.090 HD
ATOM     20  H   UNL     1       3.690  -4.043  -5.653  0.00  0.00    -0.090 HD
ATOM     21  H   UNL     1       4.497  -2.706  -5.128  0.00  0.00    -0.090 HD
ENDBRANCH  17  18
ENDBRANCH   8  17
TORSDOF 3
