REMARK  Name = ZINC01148458
REMARK  10 active torsions:
REMARK  status: ('A' for Active; 'I' for Inactive)
REMARK    1  A    between atoms: C_1  and  C_2
REMARK    2  A    between atoms: C_2  and  O_3
REMARK    3  A    between atoms: O_3  and  C_4
REMARK    4  A    between atoms: C_9  and  C_10
REMARK    5  A    between atoms: C_15  and  C_19
REMARK    6  A    between atoms: C_15  and  C_20
REMARK    7  A    between atoms: C_22  and  N_28
REMARK    8  A    between atoms: C_23  and  C_24
REMARK    9  A    between atoms: C_24  and  O_26
REMARK   10  A    between atoms: O_26  and  C_27
REMARK                            x       y       z     vdW  Elec       q    Type
REMARK                         _______ _______ _______ _____ _____    ______ ____
ROOT
ATOM      1  C   UNL     1      -0.530  -4.132  -0.957  0.00  0.00    +0.101 C 
ATOM      2  C   UNL     1      -0.469  -2.648  -0.689  0.00  0.00    +0.045 C 
ATOM      3  C   UNL     1      -1.344  -2.066   0.151  0.00  0.00    +0.115 C 
ATOM      4  C   UNL     1      -1.285  -0.580   0.417  0.00  0.00    +0.081 C 
ATOM      5  C   UNL     1       0.161  -0.094   0.307  0.00  0.00    -0.021 C 
ATOM      6  C   UNL     1       0.681  -0.420  -1.098  0.00  0.00    +0.086 C 
ATOM      7  C   UNL     1       0.530  -1.898  -1.340  0.00  0.00    +0.164 C 
ATOM      8  O   UNL     1       1.287  -2.454  -2.110  0.00  0.00    -0.292 OA
ATOM      9  C   UNL     1       0.215   1.418   0.536  0.00  0.00    +0.012 C 
ATOM     10  C   UNL     1       1.024  -0.804   1.352  0.00  0.00    +0.012 C 
ATOM     11  O   UNL     1      -2.297  -2.782   0.778  0.00  0.00    -0.446 OA
ATOM     12  C   UNL     1      -2.147  -4.106   0.929  0.00  0.00    +0.195 C 
ATOM     13  C   UNL     1      -1.315  -4.819   0.126  0.00  0.00    +0.105 C 
ENDROOT
BRANCH   1  19
ATOM     14  C   UNL     1      -0.511  -5.015  -3.303  0.00  0.00    +0.125 A 
ATOM     15  C   UNL     1      -1.129  -5.233  -4.526  0.00  0.00    +0.047 A 
ATOM     16  C   UNL     1      -2.428  -4.809  -4.728  0.00  0.00    +0.019 A 
ATOM     17  C   UNL     1      -3.112  -4.165  -3.712  0.00  0.00    +0.018 A 
ATOM     18  C   UNL     1      -2.500  -3.951  -2.491  0.00  0.00    +0.023 A 
ATOM     19  C   UNL     1      -1.199  -4.370  -2.286  0.00  0.00    +0.008 A 
ATOM     20 BR   UNL     1      -4.890  -3.584  -3.992  0.00  0.00    -0.050 Br
BRANCH  14  21
ATOM     21  O   UNL     1       0.767  -5.432  -3.103  0.00  0.00    -0.492 OA
BRANCH  21  23
ATOM     22  C   UNL     1       2.834  -6.482  -3.784  0.00  0.00    +0.048 C 
ATOM     23  C   UNL     1       1.414  -6.089  -4.194  0.00  0.00    +0.225 C 
ENDBRANCH  21  23
ENDBRANCH  14  21
ENDBRANCH   1  19
BRANCH  12  24
ATOM     24  N   UNL     1      -2.847  -4.753   1.912  0.00  0.00    -0.329 N 
ATOM     25  H   UNL     1      -3.738  -4.452   2.151  0.00  0.00    +0.145 HD
ATOM     26  H   UNL     1      -2.452  -5.511   2.370  0.00  0.00    +0.145 HD
ENDBRANCH  12  24
BRANCH  13  27
ATOM     27  C   UNL     1      -1.186  -6.205   0.309  0.00  0.00    +0.341 C 
ATOM     28  O   UNL     1      -1.901  -6.783   1.108  0.00  0.00    -0.245 OA
BRANCH  27  29
ATOM     29  O   UNL     1      -0.270  -6.898  -0.402  0.00  0.00    -0.465 OA
ATOM     30  C   UNL     1      -0.194  -8.305  -0.165  0.00  0.00    +0.280 C 
ENDBRANCH  27  29
ENDBRANCH  13  27
TORSDOF 6
