REMARK  Name = ZINC01426749
REMARK  6 active torsions:
REMARK  status: ('A' for Active; 'I' for Inactive)
REMARK    1  A    between atoms: C_4  and  C_7
REMARK    2  A    between atoms: C_7  and  C_9
REMARK    3  A    between atoms: C_7  and  O_31
REMARK    4  A    between atoms: C_9  and  N_10
REMARK    5  A    between atoms: C_11  and  C_13
REMARK    6  A    between atoms: C_15  and  N_28
REMARK                            x       y       z     vdW  Elec       q    Type
REMARK                         _______ _______ _______ _____ _____    ______ ____
ROOT
ATOM      1  C   UNL     1      -2.421   6.184   2.677  0.00  0.00    +0.049 A 
ATOM      2  C   UNL     1      -1.529   6.958   3.558  0.00  0.00    +0.046 A 
ATOM      3  C   UNL     1      -0.267   7.130   3.229  0.00  0.00    +0.130 A 
ATOM      4  C   UNL     1       0.258   6.538   1.987  0.00  0.00    +0.079 A 
ATOM      5  C   UNL     1      -0.535   5.832   1.208  0.00  0.00    +0.138 A 
ATOM      6  C   UNL     1      -1.953   5.661   1.563  0.00  0.00    +0.030 A 
ATOM      7  C   UNL     1      -2.841   4.916   0.664  0.00  0.00    +0.013 C 
ATOM      8  C   UNL     1      -2.497   3.860   0.003  0.00  0.00    +0.012 C 
ATOM      9  C   UNL     1      -1.191   3.197   0.030  0.00  0.00    +0.017 A 
ATOM     10  C   UNL     1      -1.158   1.718   0.017  0.00  0.00    +0.011 A 
ATOM     11  C   UNL     1      -0.013   1.076   0.008  0.00  0.00    +0.001 A 
ATOM     12  C   UNL     1       1.252   1.831  -0.000  0.00  0.00    +0.004 A 
ATOM     13  C   UNL     1       1.226   3.144   0.015  0.00  0.00    +0.047 A 
ATOM     14  C   UNL     1      -0.062   3.867   0.039  0.00  0.00    +0.136 A 
ATOM     15  O   UNL     1      -0.037   5.224   0.101  0.00  0.00    -0.455 OA
ENDROOT
BRANCH   1  17
ATOM     16  N   UNL     1      -4.314   6.532   4.181  0.00  0.00    -0.309 N 
ATOM     17  C   UNL     1      -3.835   5.996   3.041  0.00  0.00    +0.245 C 
ATOM     18  O   UNL     1      -4.569   5.359   2.316  0.00  0.00    -0.270 OA
ATOM     19  H   UNL     1      -3.728   7.041   4.762  0.00  0.00    +0.149 HD
BRANCH  16  20
ATOM     20  C   UNL     1      -5.721   6.344   4.544  0.00  0.00    +0.140 C 
BRANCH  20  21
ATOM     21  C   UNL     1      -6.003   7.048   5.873  0.00  0.00    +0.162 C 
BRANCH  21  25
ATOM     22  C   UNL     1     -10.008   6.213   7.105  0.00  0.00    +0.000 A 
ATOM     23  C   UNL     1      -8.953   5.512   7.660  0.00  0.00    +0.000 A 
ATOM     24  C   UNL     1      -7.658   5.782   7.261  0.00  0.00    +0.006 A 
ATOM     25  C   UNL     1      -7.416   6.753   6.308  0.00  0.00    -0.018 A 
ATOM     26  C   UNL     1      -8.470   7.458   5.757  0.00  0.00    +0.006 A 
ATOM     27  C   UNL     1      -9.766   7.185   6.152  0.00  0.00    +0.000 A 
ENDBRANCH  21  25
BRANCH  21  28
ATOM     28  O   UNL     1      -5.840   8.458   5.710  0.00  0.00    -0.386 OA
ATOM     29  H   UNL     1      -6.428   8.849   5.050  0.00  0.00    +0.210 HD
ENDBRANCH  21  28
ENDBRANCH  20  21
ENDBRANCH  16  20
ENDBRANCH   1  17
BRANCH   3  30
ATOM     30  N   UNL     1       0.550   7.853   4.033  0.00  0.00    +0.057 N 
ATOM     31  O   UNL     1       0.116   8.342   5.060  0.00  0.00    -0.126 OA
ATOM     32  O   UNL     1       1.719   8.012   3.729  0.00  0.00    -0.126 OA
ENDBRANCH   3  30
TORSDOF 6
