REMARK  Name = ZINC39694340
REMARK  9 active torsions:
REMARK  status: ('A' for Active; 'I' for Inactive)
REMARK    1  A    between atoms: C_1  and  C_2
REMARK    2  A    between atoms: C_3  and  C_12
REMARK    3  A    between atoms: C_7  and  O_8
REMARK    4  A    between atoms: O_8  and  C_9
REMARK    5  A    between atoms: C_9  and  C_11
REMARK    6  A    between atoms: C_16  and  C_25
REMARK    7  A    between atoms: N_27  and  C_28
REMARK    8  A    between atoms: C_28  and  C_29
REMARK    9  A    between atoms: C_34  and  N_35
REMARK                            x       y       z     vdW  Elec       q    Type
REMARK                         _______ _______ _______ _____ _____    ______ ____
ROOT
ATOM      1  C   UNL     1      -0.485   0.256  -3.274  0.00  0.00    +0.247 C 
ATOM      2  O   UNL     1      -0.444   1.453  -3.482  0.00  0.00    -0.270 OA
ATOM      3  N   UNL     1      -0.745  -0.595  -4.287  0.00  0.00    -0.296 N 
ATOM      4  C   UNL     1      -0.968  -2.058  -4.208  0.00  0.00    +0.121 C 
ATOM      5  C   UNL     1      -2.103  -2.334  -5.220  0.00  0.00    +0.100 C 
ATOM      6  C   UNL     1      -2.034  -1.165  -6.216  0.00  0.00    -0.004 C 
ATOM      7  C   UNL     1      -0.879  -0.278  -5.729  0.00  0.00    +0.115 C 
ATOM      8  C   UNL     1      -3.340  -0.377  -6.198  0.00  0.00    -0.010 C 
ATOM      9  C   UNL     1      -3.268   0.745  -7.237  0.00  0.00    -0.082 C 
ATOM     10  N   UNL     1      -3.040   0.169  -8.568  0.00  0.00    +0.379 N 
ATOM     11  C   UNL     1      -1.738  -0.509  -8.604  0.00  0.00    -0.082 C 
ATOM     12  C   UNL     1      -1.745  -1.684  -7.622  0.00  0.00    -0.010 C 
ATOM     13  H   UNL     1      -3.769  -0.497  -8.774  0.00  0.00    -0.086 HD
ATOM     14  H   UNL     1      -3.054   0.904  -9.259  0.00  0.00    -0.086 HD
ENDROOT
BRANCH   1  17
ATOM     15  C   UNL     1      -1.435   1.752  -0.987  0.00  0.00    +0.048 C 
ATOM     16  C   UNL     1      -0.705   0.447  -0.801  0.00  0.00    +0.004 A 
ATOM     17  C   UNL     1      -0.251  -0.266  -1.911  0.00  0.00    +0.043 A 
ATOM     18  C   UNL     1       0.425  -1.473  -1.730  0.00  0.00    +0.013 A 
ATOM     19  C   UNL     1       0.642  -1.958  -0.456  0.00  0.00    +0.004 A 
ATOM     20  C   UNL     1       0.192  -1.250   0.643  0.00  0.00    +0.047 A 
ATOM     21  C   UNL     1      -0.477  -0.046   0.473  0.00  0.00    +0.135 A 
BRANCH  21  22
ATOM     22  O   UNL     1      -0.914   0.648   1.558  0.00  0.00    -0.426 OA
BRANCH  22  23
ATOM     23  C   UNL     1      -0.209   1.723   1.943  0.00  0.00    +0.309 C 
ATOM     24  O   UNL     1       0.832   1.994   1.391  0.00  0.00    -0.251 OA
ATOM     25  C   UNL     1      -0.715   2.593   3.065  0.00  0.00    +0.136 C 
ENDBRANCH  22  23
ENDBRANCH  21  22
ENDBRANCH   1  17
BRANCH   5  26
ATOM     26  C   UNL     1      -1.867  -3.644  -5.927  0.00  0.00    +0.218 C 
ATOM     27  O   UNL     1      -0.805  -3.857  -6.472  0.00  0.00    -0.275 OA
ATOM     28  N   UNL     1      -2.838  -4.579  -5.955  0.00  0.00    -0.311 N 
ATOM     29  H   UNL     1      -3.687  -4.409  -5.519  0.00  0.00    +0.149 HD
BRANCH  28  30
ATOM     30  C   UNL     1      -2.609  -5.853  -6.642  0.00  0.00    +0.141 C 
BRANCH  30  31
ATOM     31  C   UNL     1      -3.839  -6.714  -6.526  0.00  0.00    -0.009 A 
ATOM     32  C   UNL     1      -3.893  -7.719  -5.580  0.00  0.00    +0.007 A 
ATOM     33  C   UNL     1      -5.022  -8.511  -5.473  0.00  0.00    +0.000 A 
ATOM     34  C   UNL     1      -6.101  -8.299  -6.312  0.00  0.00    +0.002 A 
ATOM     35  C   UNL     1      -6.054  -7.296  -7.260  0.00  0.00    +0.023 A 
ATOM     36  C   UNL     1      -4.923  -6.495  -7.367  0.00  0.00    +0.035 A 
BRANCH  36  37
ATOM     37  N   UNL     1      -4.875  -5.476  -8.321  0.00  0.00    -0.325 N 
ATOM     38  C   UNL     1      -4.367  -5.733  -9.678  0.00  0.00    +0.133 C 
ATOM     39  C   UNL     1      -5.392  -5.201 -10.686  0.00  0.00    +0.178 C 
ATOM     40  O   UNL     1      -5.701  -3.841 -10.370  0.00  0.00    -0.377 OA
ATOM     41  C   UNL     1      -6.308  -3.661  -9.088  0.00  0.00    +0.178 C 
ATOM     42  C   UNL     1      -5.335  -4.116  -8.000  0.00  0.00    +0.133 C 
ENDBRANCH  36  37
ENDBRANCH  30  31
ENDBRANCH  28  30
ENDBRANCH   5  26
TORSDOF 7
