REMARK  Name = ZINC39687347
REMARK  7 active torsions:
REMARK  status: ('A' for Active; 'I' for Inactive)
REMARK    1  A    between atoms: C_1  and  C_2
REMARK    2  A    between atoms: C_2  and  C_3
REMARK    3  A    between atoms: C_3  and  C_4
REMARK    4  A    between atoms: C_4  and  C_6
REMARK    5  A    between atoms: C_4  and  C_7
REMARK    6  A    between atoms: C_11  and  C_20
REMARK    7  A    between atoms: N_22  and  C_23
REMARK                            x       y       z     vdW  Elec       q    Type
REMARK                         _______ _______ _______ _____ _____    ______ ____
ROOT
ATOM      1  C   UNL     1      -2.832  -2.632   0.110  0.00  0.00    +0.218 C 
ATOM      2  O   UNL     1      -3.746  -1.840   0.203  0.00  0.00    -0.275 OA
ATOM      3  N   UNL     1      -3.081  -3.956   0.150  0.00  0.00    -0.300 N 
ATOM      4  C   UNL     1      -2.105  -5.067   0.060  0.00  0.00    +0.121 C 
ATOM      5  C   UNL     1      -2.610  -6.115   1.077  0.00  0.00    +0.100 C 
ATOM      6  C   UNL     1      -4.113  -5.824   1.226  0.00  0.00    -0.004 C 
ATOM      7  C   UNL     1      -4.393  -4.630   0.302  0.00  0.00    +0.115 C 
ATOM      8  C   UNL     1      -4.932  -7.035   0.789  0.00  0.00    -0.010 C 
ATOM      9  C   UNL     1      -6.420  -6.742   1.001  0.00  0.00    -0.082 C 
ATOM     10  N   UNL     1      -6.665  -6.446   2.417  0.00  0.00    +0.379 N 
ATOM     11  C   UNL     1      -5.947  -5.226   2.806  0.00  0.00    -0.082 C 
ATOM     12  C   UNL     1      -4.439  -5.455   2.670  0.00  0.00    -0.010 C 
ATOM     13  H   UNL     1      -7.655  -6.314   2.566  0.00  0.00    -0.086 HD
ATOM     14  H   UNL     1      -6.344  -7.218   2.982  0.00  0.00    -0.086 HD
ENDROOT
BRANCH   5  15
ATOM     15  C   UNL     1      -1.907  -5.945   2.399  0.00  0.00    +0.218 C 
ATOM     16  O   UNL     1      -1.449  -4.865   2.708  0.00  0.00    -0.275 OA
ATOM     17  N   UNL     1      -1.787  -6.993   3.238  0.00  0.00    -0.312 N 
ATOM     18  H   UNL     1      -2.154  -7.856   2.991  0.00  0.00    +0.149 HD
BRANCH  17  19
ATOM     19  C   UNL     1      -1.103  -6.827   4.523  0.00  0.00    +0.076 C 
ATOM     20  C   UNL     1       0.404  -7.000   4.324  0.00  0.00    +0.041 C 
ATOM     21  C   UNL     1       1.119  -6.792   5.663  0.00  0.00    +0.108 C 
ATOM     22  N   UNL     1       0.533  -7.702   6.658  0.00  0.00    -0.317 N 
ATOM     23  C   UNL     1      -0.921  -7.682   6.863  0.00  0.00    +0.108 C 
ATOM     24  C   UNL     1      -1.613  -7.879   5.511  0.00  0.00    +0.041 C 
ATOM     25  C   UNL     1       1.340  -8.565   7.390  0.00  0.00    +0.099 A 
ATOM     26  C   UNL     1       0.757  -9.511   8.226  0.00  0.00    +0.042 A 
ATOM     27  C   UNL     1       1.571 -10.364   8.949  0.00  0.00    +0.005 A 
ATOM     28  C   UNL     1       2.948 -10.240   8.811  0.00  0.00    +0.018 A 
ATOM     29  C   UNL     1       3.459  -9.278   7.963  0.00  0.00    +0.084 A 
ATOM     30  N   UNL     1       2.657  -8.482   7.282  0.00  0.00    -0.350 N 
ATOM     31  H   UNL     1       3.042  -7.817   6.690  0.00  0.00    +0.166 HD
ENDBRANCH  17  19
ENDBRANCH   5  15
BRANCH   1  32
ATOM     32  C   UNL     1      -1.418  -2.136  -0.051  0.00  0.00    +0.072 C 
ATOM     33  C   UNL     1      -0.840  -2.661  -1.367  0.00  0.00    +0.017 C 
BRANCH  32  34
ATOM     34  C   UNL     1      -1.413  -0.606  -0.067  0.00  0.00    +0.012 C 
BRANCH  34  36
ATOM     35  C   UNL     1       0.035   1.429  -0.120  0.00  0.00    +0.004 C 
ATOM     36  C   UNL     1       0.030  -0.101  -0.105  0.00  0.00    -0.003 C 
ENDBRANCH  34  36
ENDBRANCH  32  34
ENDBRANCH   1  32
TORSDOF 5
