REMARK  Name = ZINC15865327
REMARK  11 active torsions:
REMARK  status: ('A' for Active; 'I' for Inactive)
REMARK    1  A    between atoms: C_1  and  C_2
REMARK    2  A    between atoms: C_6  and  O_9
REMARK    3  A    between atoms: C_7  and  C_8
REMARK    4  A    between atoms: O_9  and  C_10
REMARK    5  A    between atoms: C_10  and  C_11
REMARK    6  A    between atoms: C_14  and  S_17
REMARK    7  A    between atoms: N_15  and  C_16
REMARK    8  A    between atoms: S_17  and  C_18
REMARK    9  A    between atoms: C_18  and  C_19
REMARK   10  A    between atoms: C_25  and  C_32
REMARK   11  A    between atoms: C_27  and  C_31
REMARK                            x       y       z     vdW  Elec       q    Type
REMARK                         _______ _______ _______ _____ _____    ______ ____
ROOT
ATOM      1  C   UNL     1      -7.776   7.944   1.795  0.00  0.00    +0.172 A 
ATOM      2  N   UNL     1      -7.529   7.817   0.522  0.00  0.00    -0.130 NA
ATOM      3  N   UNL     1      -6.397   7.234   0.348  0.00  0.00    -0.122 NA
ATOM      4  C   UNL     1      -5.859   6.948   1.511  0.00  0.00    +0.192 A 
ATOM      5  N   UNL     1      -6.721   7.396   2.471  0.00  0.00    -0.306 N 
ATOM      6  C   UNL     1      -6.551   7.306   3.923  0.00  0.00    +0.153 C 
ENDROOT
BRANCH   1   7
ATOM      7  C   UNL     1      -8.997   8.579   2.409  0.00  0.00    +0.305 C 
BRANCH   7   8
ATOM      8  O   UNL     1      -8.762   9.975   2.604  0.00  0.00    -0.484 OA
BRANCH   8  14
ATOM      9  C   UNL     1     -10.465  14.274   4.167  0.00  0.00    +0.044 C 
ATOM     10  C   UNL     1     -10.639  12.796   3.930  0.00  0.00    -0.044 A 
ATOM     11  C   UNL     1     -11.827  12.176   4.271  0.00  0.00    +0.004 A 
ATOM     12  C   UNL     1     -11.989  10.820   4.056  0.00  0.00    +0.004 A 
ATOM     13  C   UNL     1     -10.964  10.081   3.498  0.00  0.00    +0.046 A 
ATOM     14  C   UNL     1      -9.771  10.700   3.154  0.00  0.00    +0.124 A 
ATOM     15  C   UNL     1      -9.609  12.060   3.376  0.00  0.00    -0.006 A 
ATOM     16  C   UNL     1      -8.312  12.734   3.010  0.00  0.00    +0.048 C 
ENDBRANCH   8  14
ENDBRANCH   7   8
ENDBRANCH   1   7
BRANCH   4  17
ATOM     17  S   UNL     1      -4.314   6.146   1.782  0.00  0.00    -0.080 S 
BRANCH  17  18
ATOM     18  C   UNL     1      -3.795   5.877   0.069  0.00  0.00    +0.130 C 
BRANCH  18  19
ATOM     19  C   UNL     1      -2.458   5.183   0.052  0.00  0.00    +0.030 A 
ATOM     20  C   UNL     1      -1.337   5.933   0.046  0.00  0.00    +0.073 A 
ATOM     21  C   UNL     1      -0.067   5.311   0.031  0.00  0.00    +0.190 A 
ATOM     22  O   UNL     1       0.959   5.972   0.024  0.00  0.00    -0.287 OA
ATOM     23  C   UNL     1      -0.023   3.839   0.023  0.00  0.00    +0.045 A 
ATOM     24  C   UNL     1       1.187   3.146   0.008  0.00  0.00    +0.017 A 
ATOM     25  C   UNL     1       1.184   1.779   0.000  0.00  0.00    -0.049 A 
ATOM     26  C   UNL     1      -0.013   1.076   0.008  0.00  0.00    +0.008 A 
ATOM     27  C   UNL     1      -1.219   1.741   0.017  0.00  0.00    -0.026 A 
ATOM     28  C   UNL     1      -1.239   3.133   0.031  0.00  0.00    +0.053 A 
ATOM     29  N   UNL     1      -2.427   3.828   0.045  0.00  0.00    -0.357 N 
ATOM     30  H   UNL     1      -3.263   3.336   0.051  0.00  0.00    +0.166 HD
ATOM     31  C   UNL     1      -2.511   0.965   0.019  0.00  0.00    +0.046 C 
ATOM     32  C   UNL     1       2.491   1.029  -0.016  0.00  0.00    +0.044 C 
ENDBRANCH  18  19
ENDBRANCH  17  18
ENDBRANCH   4  17
TORSDOF 6
