REMARK  Name = ZINC02135723
REMARK  7 active torsions:
REMARK  status: ('A' for Active; 'I' for Inactive)
REMARK    1  A    between atoms: C_1  and  C_2
REMARK    2  A    between atoms: C_7  and  C_8
REMARK    3  A    between atoms: C_17  and  C_19
REMARK    4  A    between atoms: C_19  and  C_20
REMARK    5  A    between atoms: C_20  and  S_21
REMARK    6  A    between atoms: S_21  and  C_22
REMARK    7  A    between atoms: N_25  and  C_28
REMARK                            x       y       z     vdW  Elec       q    Type
REMARK                         _______ _______ _______ _____ _____    ______ ____
ROOT
ATOM      1  C   UNL     1      -1.616   4.810  -2.681  0.00  0.00    +0.044 C 
ATOM      2  C   UNL     1      -0.585   3.827  -2.190  0.00  0.00    -0.046 A 
ATOM      3  C   UNL     1       0.658   4.279  -1.783  0.00  0.00    +0.004 A 
ATOM      4  C   UNL     1       1.605   3.377  -1.332  0.00  0.00    +0.005 A 
ATOM      5  C   UNL     1       1.311   2.032  -1.290  0.00  0.00    -0.027 A 
ATOM      6  C   UNL     1       0.064   1.566  -1.697  0.00  0.00    +0.039 A 
ATOM      7  C   UNL     1      -0.885   2.482  -2.144  0.00  0.00    -0.026 A 
ATOM      8  C   UNL     1      -2.244   2.001  -2.584  0.00  0.00    +0.046 C 
ATOM      9  N   UNL     1       0.001   0.177  -1.565  0.00  0.00    -0.286 N 
ATOM     10  C   UNL     1       1.148  -0.340  -1.085  0.00  0.00    +0.211 C 
ATOM     11  O   UNL     1       1.380  -1.511  -0.868  0.00  0.00    -0.277 OA
ATOM     12  C   UNL     1       2.086   0.816  -0.868  0.00  0.00    +0.050 C 
ATOM     13  C   UNL     1       2.529   0.910   0.597  0.00  0.00    +0.088 C 
ATOM     14  C   UNL     1       3.921   0.218   0.628  0.00  0.00    +0.073 C 
ATOM     15  C   UNL     1       4.165  -0.247  -0.823  0.00  0.00    -0.057 C 
ATOM     16  C   UNL     1       4.865   1.347   0.973  0.00  0.00    +0.224 C 
ATOM     17  O   UNL     1       6.067   1.244   1.091  0.00  0.00    -0.275 OA
ATOM     18  N   UNL     1       4.167   2.479   1.126  0.00  0.00    -0.239 N 
ATOM     19  C   UNL     1       2.849   2.348   0.940  0.00  0.00    +0.225 C 
ATOM     20  O   UNL     1       2.036   3.243   1.033  0.00  0.00    -0.275 OA
ATOM     21  H   UNL     1      -0.778  -0.354  -1.793  0.00  0.00    +0.155 HD
ATOM     22  N   UNL     1       3.314   0.645  -1.621  0.00  0.00    +0.394 N 
ATOM     23  H   UNL     1       3.777   1.552  -1.757  0.00  0.00    -0.083 HD
ATOM     24  H   UNL     1       3.115   0.222  -2.536  0.00  0.00    -0.083 HD
ENDROOT
BRANCH  18  25
ATOM     25  C   UNL     1       4.796   3.757   1.469  0.00  0.00    +0.084 C 
ATOM     26  C   UNL     1       5.758   4.161   0.332  0.00  0.00    +0.023 C 
ATOM     27  C   UNL     1       6.000   5.644   0.416  0.00  0.00    +0.002 C 
ATOM     28  C   UNL     1       7.266   5.989   1.223  0.00  0.00    +0.000 C 
ATOM     29  C   UNL     1       7.418   5.131   2.494  0.00  0.00    +0.000 C 
ATOM     30  C   UNL     1       6.113   4.942   3.220  0.00  0.00    +0.002 C 
ATOM     31  C   UNL     1       5.476   3.619   2.748  0.00  0.00    +0.023 C 
ENDBRANCH  18  25
BRANCH  15  32
ATOM     32  C   UNL     1       3.744  -1.708  -0.991  0.00  0.00    -0.004 C 
BRANCH  32  33
ATOM     33  C   UNL     1       4.946  -2.619  -0.731  0.00  0.00    +0.067 C 
BRANCH  33  34
ATOM     34  S   UNL     1       4.447  -4.351  -0.931  0.00  0.00    -0.164 S 
ATOM     35  C   UNL     1       5.964  -5.287  -0.593  0.00  0.00    +0.084 C 
ENDBRANCH  33  34
ENDBRANCH  32  33
ENDBRANCH  15  32
TORSDOF 4
