REMARK  Name = ZINC57334054
REMARK  8 active torsions:
REMARK  status: ('A' for Active; 'I' for Inactive)
REMARK    1  A    between atoms: C_1  and  C_2
REMARK    2  A    between atoms: C_2  and  C_3
REMARK    3  A    between atoms: C_3  and  C_4
REMARK    4  A    between atoms: C_10  and  C_12
REMARK    5  A    between atoms: C_16  and  N_19
REMARK    6  A    between atoms: C_17  and  C_18
REMARK    7  A    between atoms: C_20  and  C_22
REMARK    8  A    between atoms: C_22  and  N_23
REMARK                            x       y       z     vdW  Elec       q    Type
REMARK                         _______ _______ _______ _____ _____    ______ ____
ROOT
ATOM      1  C   UNL     1       4.885  -3.824  -1.168  0.00  0.00    +0.014 A 
ATOM      2  C   UNL     1       5.444  -5.061  -1.493  0.00  0.00    +0.011 A 
ATOM      3  C   UNL     1       6.630  -5.118  -2.196  0.00  0.00    +0.002 A 
ATOM      4  C   UNL     1       7.268  -3.954  -2.581  0.00  0.00    +0.023 A 
ATOM      5  C   UNL     1       6.719  -2.718  -2.262  0.00  0.00    +0.037 A 
ATOM      6  C   UNL     1       5.525  -2.650  -1.560  0.00  0.00    -0.020 A 
ATOM      7  C   UNL     1       4.924  -1.311  -1.219  0.00  0.00    +0.046 C 
ENDROOT
BRANCH   1  14
ATOM      8  C   UNL     1       0.774  -2.043   1.249  0.00  0.00    +0.156 A 
ATOM      9  N   UNL     1      -0.121  -2.828   1.781  0.00  0.00    -0.132 NA
ATOM     10  N   UNL     1       0.209  -4.059   1.601  0.00  0.00    -0.120 NA
ATOM     11  C   UNL     1       1.329  -4.114   0.945  0.00  0.00    +0.218 A 
ATOM     12  N   UNL     1       1.750  -2.834   0.679  0.00  0.00    -0.190 N 
ATOM     13  N   UNL     1       2.939  -2.707  -0.027  0.00  0.00    -0.156 NA
ATOM     14  C   UNL     1       3.613  -3.760  -0.414  0.00  0.00    +0.133 A 
ATOM     15  S   UNL     1       2.608  -5.099   0.207  0.00  0.00    -0.026 S 
BRANCH   8  16
ATOM     16  C   UNL     1       0.744  -0.536   1.251  0.00  0.00    +0.078 C 
BRANCH  16  18
ATOM     17  C   UNL     1      -0.033   1.490   0.012  0.00  0.00    +0.004 C 
ATOM     18  C   UNL     1      -0.002  -0.040   0.011  0.00  0.00    +0.004 C 
ENDBRANCH  16  18
ENDBRANCH   8  16
ENDBRANCH   1  14
BRANCH   5  19
ATOM     19  N   UNL     1       7.369  -1.542  -2.654  0.00  0.00    -0.287 N 
ATOM     20  C   UNL     1       8.198  -1.552  -3.716  0.00  0.00    +0.201 C 
ATOM     21  O   UNL     1       8.305  -2.552  -4.393  0.00  0.00    -0.278 OA
ATOM     22  H   UNL     1       7.222  -0.719  -2.160  0.00  0.00    +0.155 HD
BRANCH  20  23
ATOM     23  C   UNL     1       8.992  -0.319  -4.063  0.00  0.00    +0.019 C 
BRANCH  23  24
ATOM     24  N   UNL     1       9.813  -0.584  -5.252  0.00  0.00    +0.385 N 
ATOM     25  C   UNL     1      10.805  -1.620  -4.939  0.00  0.00    -0.078 C 
ATOM     26  C   UNL     1      11.609  -1.958  -6.197  0.00  0.00    -0.019 C 
ATOM     27  C   UNL     1      12.324  -0.698  -6.693  0.00  0.00    -0.004 C 
ATOM     28  C   UNL     1      11.286   0.400  -6.945  0.00  0.00    -0.019 C 
ATOM     29  C   UNL     1      10.494   0.651  -5.660  0.00  0.00    -0.078 C 
ATOM     30  H   UNL     1       9.221  -0.904  -6.004  0.00  0.00    -0.081 HD
ENDBRANCH  23  24
ENDBRANCH  20  23
ENDBRANCH   5  19
TORSDOF 6
