REMARK  Name = ZINC36219583
REMARK  11 active torsions:
REMARK  status: ('A' for Active; 'I' for Inactive)
REMARK    1  A    between atoms: C_1  and  C_2
REMARK    2  A    between atoms: C_3  and  C_35
REMARK    3  A    between atoms: C_11  and  C_13
REMARK    4  A    between atoms: C_13  and  C_15
REMARK    5  A    between atoms: C_13  and  O_16
REMARK    6  A    between atoms: O_16  and  C_17
REMARK    7  A    between atoms: C_17  and  C_19
REMARK    8  A    between atoms: C_22  and  C_25
REMARK    9  A    between atoms: C_28  and  O_31
REMARK   10  A    between atoms: O_31  and  C_32
REMARK   11  A    between atoms: C_32  and  C_34
REMARK                            x       y       z     vdW  Elec       q    Type
REMARK                         _______ _______ _______ _____ _____    ______ ____
ROOT
ATOM      1  C   UNL     1      -1.304  -3.668   6.391  0.00  0.00    +0.340 C 
ATOM      2  O   UNL     1      -0.276  -3.920   6.987  0.00  0.00    -0.245 OA
ENDROOT
BRANCH   1   3
ATOM      3  C   UNL     1      -2.600  -3.743   7.091  0.00  0.00    +0.059 A 
ATOM      4  C   UNL     1      -3.784  -3.458   6.403  0.00  0.00    +0.015 A 
ATOM      5  C   UNL     1      -4.993  -3.529   7.057  0.00  0.00    +0.009 A 
ATOM      6  C   UNL     1      -5.037  -3.884   8.406  0.00  0.00    -0.018 A 
ATOM      7  C   UNL     1      -3.857  -4.169   9.093  0.00  0.00    +0.009 A 
ATOM      8  C   UNL     1      -2.647  -4.104   8.440  0.00  0.00    +0.015 A 
BRANCH   6   9
ATOM      9  C   UNL     1      -6.340  -3.959   9.110  0.00  0.00    -0.018 A 
ATOM     10  C   UNL     1      -7.521  -3.680   8.423  0.00  0.00    +0.012 A 
ATOM     11  C   UNL     1      -8.731  -3.751   9.081  0.00  0.00    +0.047 A 
ATOM     12  C   UNL     1      -8.774  -4.098  10.424  0.00  0.00    +0.132 A 
ATOM     13  C   UNL     1      -7.599  -4.377  11.110  0.00  0.00    +0.047 A 
ATOM     14  C   UNL     1      -6.387  -4.314  10.457  0.00  0.00    +0.012 A 
BRANCH  12  15
ATOM     15  O   UNL     1      -9.968  -4.166  11.069  0.00  0.00    -0.426 OA
BRANCH  15  16
ATOM     16  C   UNL     1     -10.810  -5.157  10.735  0.00  0.00    +0.309 C 
ATOM     17  O   UNL     1     -10.457  -6.014   9.960  0.00  0.00    -0.251 OA
ATOM     18  C   UNL     1     -12.196  -5.200  11.326  0.00  0.00    +0.136 C 
ENDBRANCH  15  16
ENDBRANCH  12  15
ENDBRANCH   6   9
ENDBRANCH   1   3
BRANCH   1  19
ATOM     19  O   UNL     1      -1.260  -3.319   5.090  0.00  0.00    -0.450 OA
BRANCH  19  20
ATOM     20  C   UNL     1       0.029  -3.267   4.475  0.00  0.00    +0.239 C 
ATOM     21  C   UNL     1       0.367  -4.635   3.880  0.00  0.00    +0.060 C 
BRANCH  20  32
ATOM     22  C   UNL     1       0.025   1.989   0.313  0.00  0.00    +0.045 C 
ATOM     23  C   UNL     1      -0.003   0.487   0.195  0.00  0.00    -0.026 A 
ATOM     24  C   UNL     1      -0.035  -0.099  -1.013  0.00  0.00    -0.008 A 
ATOM     25  S   UNL     1      -0.057  -1.839  -0.628  0.00  0.00    -0.073 S 
ATOM     26  C   UNL     1      -0.023  -1.729   1.143  0.00  0.00    +0.116 A 
ATOM     27  C   UNL     1       0.010  -0.344   1.384  0.00  0.00    +0.075 A 
ATOM     28  C   UNL     1       0.047   0.044   2.763  0.00  0.00    +0.260 A 
ATOM     29  O   UNL     1       0.073   1.222   3.075  0.00  0.00    -0.267 OA
ATOM     30  N   UNL     1       0.052  -0.914   3.709  0.00  0.00    -0.307 N 
ATOM     31  H   UNL     1       0.077  -0.658   4.644  0.00  0.00    +0.170 HD
ATOM     32  C   UNL     1       0.023  -2.231   3.381  0.00  0.00    +0.152 A 
ATOM     33  N   UNL     1      -0.020  -2.616   2.134  0.00  0.00    -0.223 NA
ATOM     34  C   UNL     1      -0.049   0.558  -2.369  0.00  0.00    +0.052 C 
ENDBRANCH  20  32
ENDBRANCH  19  20
ENDBRANCH   1  19
TORSDOF 7
