REMARK  Name = ZINC04308666
REMARK  9 active torsions:
REMARK  status: ('A' for Active; 'I' for Inactive)
REMARK    1  A    between atoms: C_1  and  C_2
REMARK    2  A    between atoms: C_4  and  C_31
REMARK    3  A    between atoms: C_5  and  N_9
REMARK    4  A    between atoms: C_6  and  C_8
REMARK    5  A    between atoms: C_10  and  C_12
REMARK    6  A    between atoms: C_12  and  N_13
REMARK    7  A    between atoms: C_14  and  C_16
REMARK    8  A    between atoms: C_16  and  N_17
REMARK    9  A    between atoms: C_25  and  C_27
REMARK                            x       y       z     vdW  Elec       q    Type
REMARK                         _______ _______ _______ _____ _____    ______ ____
ROOT
ATOM      1  N   UNL     1      -2.843  -1.271   7.161  0.00  0.00    -0.305 N 
ATOM      2  C   UNL     1      -2.378  -1.396   5.902  0.00  0.00    +0.231 C 
ATOM      3  O   UNL     1      -1.429  -0.734   5.537  0.00  0.00    -0.274 OA
ATOM      4  H   UNL     1      -3.601  -1.800   7.453  0.00  0.00    +0.149 HD
ENDROOT
BRANCH   1   5
ATOM      5  C   UNL     1      -2.202  -0.336   8.089  0.00  0.00    +0.200 C 
BRANCH   5   7
ATOM      6  N   UNL     1      -2.487   0.395  10.435  0.00  0.00    -0.284 N 
ATOM      7  C   UNL     1      -2.907  -0.387   9.420  0.00  0.00    +0.234 C 
ATOM      8  O   UNL     1      -3.851  -1.131   9.578  0.00  0.00    -0.274 OA
ATOM      9  H   UNL     1      -1.700   0.951  10.325  0.00  0.00    +0.155 HD
BRANCH   6  14
ATOM     10  C   UNL     1      -5.326   0.434  15.346  0.00  0.00    +0.044 C 
ATOM     11  C   UNL     1      -4.572   0.424  14.042  0.00  0.00    -0.050 A 
ATOM     12  C   UNL     1      -3.207   0.203  14.036  0.00  0.00    +0.008 A 
ATOM     13  C   UNL     1      -2.513   0.193  12.841  0.00  0.00    -0.029 A 
ATOM     14  C   UNL     1      -3.188   0.404  11.646  0.00  0.00    +0.039 A 
ATOM     15  C   UNL     1      -4.558   0.631  11.656  0.00  0.00    -0.029 A 
ATOM     16  C   UNL     1      -5.247   0.635  12.853  0.00  0.00    +0.008 A 
ATOM     17  C   UNL     1      -5.293   0.867  10.362  0.00  0.00    +0.045 C 
ATOM     18  C   UNL     1      -1.026  -0.049  12.836  0.00  0.00    +0.045 C 
ENDBRANCH   6  14
ENDBRANCH   5   7
ENDBRANCH   1   5
BRANCH   2  19
ATOM     19  C   UNL     1      -3.037  -2.358   4.948  0.00  0.00    +0.213 C 
BRANCH  19  20
ATOM     20  N   UNL     1      -2.352  -2.309   3.654  0.00  0.00    -0.215 N 
ATOM     21  C   UNL     1      -2.690  -1.476   2.648  0.00  0.00    +0.247 C 
ATOM     22  O   UNL     1      -3.584  -0.657   2.643  0.00  0.00    -0.273 OA
ATOM     23  C   UNL     1      -1.719  -1.778   1.530  0.00  0.00    +0.115 C 
ATOM     24  C   UNL     1      -2.466  -2.273   0.296  0.00  0.00    +0.035 C 
ATOM     25  C   UNL     1      -1.461  -2.606  -0.810  0.00  0.00    +0.003 C 
ATOM     26  C   UNL     1      -0.648  -1.355  -1.152  0.00  0.00    +0.000 C 
ATOM     27  C   UNL     1       0.111  -0.883   0.089  0.00  0.00    +0.006 C 
ATOM     28  C   UNL     1      -0.887  -0.543   1.198  0.00  0.00    +0.018 C 
ATOM     29  C   UNL     1      -0.128  -0.090   2.447  0.00  0.00    +0.010 C 
ATOM     30  N   UNL     1      -0.866  -2.841   2.076  0.00  0.00    -0.285 N 
ATOM     31  C   UNL     1      -1.312  -3.085   3.323  0.00  0.00    +0.310 C 
ATOM     32  O   UNL     1      -0.826  -3.916   4.065  0.00  0.00    -0.252 OA
ATOM     33  H   UNL     1      -0.127  -3.281   1.627  0.00  0.00    +0.151 HD
ENDBRANCH  19  20
ENDBRANCH   2  19
TORSDOF 5
