REMARK  Name = ZINC15935585
REMARK  9 active torsions:
REMARK  status: ('A' for Active; 'I' for Inactive)
REMARK    1  A    between atoms: C_1  and  C_2
REMARK    2  A    between atoms: C_7  and  C_32
REMARK    3  A    between atoms: N_9  and  C_10
REMARK    4  A    between atoms: C_10  and  C_11
REMARK    5  A    between atoms: C_11  and  C_12
REMARK    6  A    between atoms: C_12  and  N_13
REMARK    7  A    between atoms: C_14  and  C_16
REMARK    8  A    between atoms: C_16  and  C_17
REMARK    9  A    between atoms: C_17  and  N_18
REMARK                            x       y       z     vdW  Elec       q    Type
REMARK                         _______ _______ _______ _____ _____    ______ ____
ROOT
ATOM      1  N   UNL     1       4.977  -0.810   3.545  0.00  0.00    -0.315 N 
ATOM      2  C   UNL     1       6.261  -0.486   3.799  0.00  0.00    +0.215 C 
ATOM      3  O   UNL     1       6.851   0.276   3.063  0.00  0.00    -0.276 OA
ATOM      4  H   UNL     1       4.505  -1.419   4.134  0.00  0.00    +0.149 HD
ENDROOT
BRANCH   1   5
ATOM      5  C   UNL     1       4.295  -0.242   2.380  0.00  0.00    +0.102 C 
BRANCH   5   6
ATOM      6  C   UNL     1       2.859  -0.768   2.322  0.00  0.00    +0.000 C 
BRANCH   6   7
ATOM      7  C   UNL     1       2.147  -0.174   1.105  0.00  0.00    -0.077 C 
BRANCH   7  14
ATOM      8  C   UNL     1       1.405  -2.630  -0.036  0.00  0.00    -0.013 C 
ATOM      9  C   UNL     1       0.648  -2.043   1.157  0.00  0.00    -0.071 C 
ATOM     10  C   UNL     1      -0.820  -2.472   1.089  0.00  0.00    -0.016 C 
ATOM     11  C   UNL     1      -1.574  -1.883   2.285  0.00  0.00    -0.003 C 
ATOM     12  C   UNL     1      -1.413  -0.360   2.277  0.00  0.00    -0.016 C 
ATOM     13  C   UNL     1       0.076  -0.010   2.301  0.00  0.00    -0.071 C 
ATOM     14  N   UNL     1       0.735  -0.579   1.119  0.00  0.00    +0.383 N 
ATOM     15  C   UNL     1       0.242   1.511   2.293  0.00  0.00    -0.013 C 
ATOM     16  H   UNL     1       0.281  -0.237   0.285  0.00  0.00    -0.081 HD
ENDBRANCH   7  14
ENDBRANCH   6   7
ENDBRANCH   5   6
ENDBRANCH   1   5
BRANCH   2  17
ATOM     17  C   UNL     1       6.962  -1.070   4.998  0.00  0.00    +0.117 C 
BRANCH  17  18
ATOM     18  C   UNL     1       8.398  -0.544   5.055  0.00  0.00    +0.136 C 
BRANCH  18  19
ATOM     19  N   UNL     1       9.080  -1.113   6.221  0.00  0.00    -0.289 N 
ATOM     20  C   UNL     1       9.027  -0.449   7.441  0.00  0.00    +0.160 A 
ATOM     21  C   UNL     1       9.671  -0.977   8.562  0.00  0.00    +0.090 A 
ATOM     22  C   UNL     1       9.604  -0.296   9.770  0.00  0.00    +0.031 A 
ATOM     23  C   UNL     1       8.893   0.894   9.818  0.00  0.00    +0.022 A 
ATOM     24  C   UNL     1       8.279   1.359   8.671  0.00  0.00    +0.113 A 
ATOM     25  N   UNL     1       8.359   0.693   7.536  0.00  0.00    -0.236 NA
ATOM     26  N   UNL     1      10.379  -2.179   8.473  0.00  0.00    -0.309 N 
ATOM     27  C   UNL     1      11.079  -2.896   9.387  0.00  0.00    +0.092 A 
ATOM     28  C   UNL     1      11.582  -4.002   8.787  0.00  0.00    +0.020 A 
ATOM     29  C   UNL     1      11.184  -3.983   7.446  0.00  0.00    +0.033 A 
ATOM     30  C   UNL     1      10.435  -2.842   7.264  0.00  0.00    +0.112 A 
ATOM     31  C   UNL     1       9.748  -2.277   6.101  0.00  0.00    +0.277 A 
ATOM     32  O   UNL     1       9.785  -2.853   5.029  0.00  0.00    -0.265 OA
ENDBRANCH  18  19
ENDBRANCH  17  18
ENDBRANCH   2  17
TORSDOF 7
