REMARK  Name = ZINC22364634
REMARK  10 active torsions:
REMARK  status: ('A' for Active; 'I' for Inactive)
REMARK    1  A    between atoms: C_1  and  C_2
REMARK    2  A    between atoms: C_5  and  C_9
REMARK    3  A    between atoms: C_6  and  C_8
REMARK    4  A    between atoms: C_9  and  C_11
REMARK    5  A    between atoms: C_9  and  N_12
REMARK    6  A    between atoms: C_13  and  C_15
REMARK    7  A    between atoms: C_15  and  N_16
REMARK    8  A    between atoms: N_16  and  C_17
REMARK    9  A    between atoms: N_16  and  S_24
REMARK   10  A    between atoms: S_24  and  C_27
REMARK                            x       y       z     vdW  Elec       q    Type
REMARK                         _______ _______ _______ _____ _____    ______ ____
ROOT
ATOM      1  N   UNL     1       4.271  -1.194  -1.632  0.00  0.00    -0.194 N 
ENDROOT
BRANCH   1   2
ATOM      2  C   UNL     1       5.093  -0.342  -2.377  0.00  0.00    +0.052 A 
ATOM      3  C   UNL     1       5.284   0.971  -1.969  0.00  0.00    +0.027 A 
ATOM      4  C   UNL     1       6.101   1.809  -2.703  0.00  0.00    +0.040 A 
ATOM      5  C   UNL     1       6.721   1.343  -3.850  0.00  0.00    +0.124 A 
ATOM      6  C   UNL     1       6.528   0.035  -4.261  0.00  0.00    +0.040 A 
ATOM      7  C   UNL     1       5.716  -0.808  -3.527  0.00  0.00    +0.027 A 
ATOM      8  F   UNL     1       7.515   2.166  -4.569  0.00  0.00    -0.205 F 
ENDBRANCH   1   2
BRANCH   1   9
ATOM      9  S   UNL     1       4.646  -1.538  -0.057  0.00  0.00    +0.075 S 
ATOM     10  O   UNL     1       6.052  -1.379   0.071  0.00  0.00    -0.150 OA
ATOM     11  O   UNL     1       3.985  -2.756   0.261  0.00  0.00    -0.150 OA
BRANCH   9  12
ATOM     12  C   UNL     1       3.905  -0.289   0.941  0.00  0.00    +0.112 A 
ATOM     13  C   UNL     1       2.585  -0.412   1.333  0.00  0.00    +0.032 A 
ATOM     14  C   UNL     1       2.000   0.566   2.115  0.00  0.00    +0.051 A 
ATOM     15  C   UNL     1       2.736   1.675   2.507  0.00  0.00    +0.162 A 
ATOM     16  C   UNL     1       4.063   1.797   2.114  0.00  0.00    +0.164 A 
ATOM     17  C   UNL     1       4.644   0.812   1.329  0.00  0.00    +0.078 A 
ATOM     18  O   UNL     1       4.806   2.872   2.495  0.00  0.00    -0.485 OA
ATOM     19  C   UNL     1       4.086   4.017   2.966  0.00  0.00    +0.270 C 
ATOM     20  C   UNL     1       3.017   3.538   3.956  0.00  0.00    +0.270 C 
ATOM     21  O   UNL     1       2.144   2.634   3.270  0.00  0.00    -0.485 OA
ENDBRANCH   9  12
ENDBRANCH   1   9
BRANCH   1  22
ATOM     22  C   UNL     1       3.077  -1.781  -2.247  0.00  0.00    +0.227 C 
BRANCH  22  24
ATOM     23  N   UNL     1       0.721  -1.140  -2.639  0.00  0.00    -0.307 N 
ATOM     24  C   UNL     1       1.928  -0.812  -2.138  0.00  0.00    +0.233 C 
ATOM     25  O   UNL     1       2.090   0.263  -1.600  0.00  0.00    -0.274 OA
ATOM     26  H   UNL     1       0.574  -2.115  -3.126  0.00  0.00    +0.149 HD
BRANCH  23  27
ATOM     27  C   UNL     1      -0.397  -0.198  -2.533  0.00  0.00    +0.100 C 
ATOM     28  C   UNL     1      -1.078  -0.365  -1.173  0.00  0.00    +0.033 C 
BRANCH  27  33
ATOM     29  C   UNL     1      -4.211  -1.256  -6.743  0.00  0.00    +0.044 C 
ATOM     30  C   UNL     1      -3.217  -0.980  -5.644  0.00  0.00    -0.050 A 
ATOM     31  C   UNL     1      -2.380  -1.988  -5.201  0.00  0.00    +0.004 A 
ATOM     32  C   UNL     1      -1.464  -1.733  -4.197  0.00  0.00    +0.006 A 
ATOM     33  C   UNL     1      -1.392  -0.474  -3.630  0.00  0.00    -0.025 A 
ATOM     34  C   UNL     1      -2.228   0.533  -4.074  0.00  0.00    -0.045 A 
ATOM     35  C   UNL     1      -3.141   0.280  -5.081  0.00  0.00    +0.007 A 
ATOM     36  C   UNL     1      -2.145   1.907  -3.460  0.00  0.00    +0.044 C 
ENDBRANCH  27  33
ENDBRANCH  23  27
ENDBRANCH  22  24
ENDBRANCH   1  22
TORSDOF 7
