REMARK  Name = ZINC54642166
REMARK  7 active torsions:
REMARK  status: ('A' for Active; 'I' for Inactive)
REMARK    1  A    between atoms: C_1  and  C_2
REMARK    2  A    between atoms: C_3  and  C_27
REMARK    3  A    between atoms: C_4  and  C_20
REMARK    4  A    between atoms: C_9  and  S_11
REMARK    5  A    between atoms: S_11  and  C_12
REMARK    6  A    between atoms: C_12  and  C_13
REMARK    7  A    between atoms: C_27  and  C_29
REMARK                            x       y       z     vdW  Elec       q    Type
REMARK                         _______ _______ _______ _____ _____    ______ ____
ROOT
ATOM      1  C   UNL     1      -0.018   1.503   0.010  0.00  0.00    +0.061 C 
ATOM      2  C   UNL     1       0.002  -0.004   0.002  0.00  0.00    +0.016 C 
ATOM      3  C   UNL     1      -1.168  -0.672   0.004  0.00  0.00    +0.040 C 
ATOM      4  C   UNL     1      -1.255  -2.175  -0.017  0.00  0.00    +0.175 C 
ATOM      5  N   UNL     1       0.064  -2.741   0.256  0.00  0.00    -0.220 N 
ATOM      6  C   UNL     1       1.208  -2.014   0.250  0.00  0.00    +0.219 A 
ATOM      7  N   UNL     1       2.200  -2.818   0.522  0.00  0.00    -0.187 NA
ATOM      8  C   UNL     1       1.732  -4.060   0.711  0.00  0.00    +0.211 A 
ATOM      9  N   UNL     1       0.425  -4.053   0.557  0.00  0.00    -0.141 NA
ATOM     10  N   UNL     1       1.209  -0.650  -0.013  0.00  0.00    -0.287 N 
ATOM     11  H   UNL     1       2.033  -0.172  -0.197  0.00  0.00    +0.155 HD
ENDROOT
BRANCH   4  12
ATOM     12  C   UNL     1      -1.729  -2.632  -1.372  0.00  0.00    -0.018 A 
ATOM     13  C   UNL     1      -0.990  -2.329  -2.501  0.00  0.00    +0.007 A 
ATOM     14  C   UNL     1      -1.424  -2.749  -3.744  0.00  0.00    +0.020 A 
ATOM     15  C   UNL     1      -2.598  -3.472  -3.859  0.00  0.00    +0.041 A 
ATOM     16  C   UNL     1      -3.337  -3.775  -2.729  0.00  0.00    +0.020 A 
ATOM     17  C   UNL     1      -2.899  -3.359  -1.486  0.00  0.00    +0.007 A 
ATOM     18 CL   UNL     1      -3.144  -3.998  -5.420  0.00  0.00    -0.084 Cl
ENDBRANCH   4  12
BRANCH   3  19
ATOM     19  C   UNL     1      -2.361   0.068   0.026  0.00  0.00    +0.160 C 
ATOM     20  O   UNL     1      -2.322   1.282   0.042  0.00  0.00    -0.293 OA
ATOM     21  C   UNL     1      -3.689  -0.645   0.029  0.00  0.00    +0.091 C 
ENDBRANCH   3  19
BRANCH   8  22
ATOM     22  S   UNL     1       2.708  -5.473   1.101  0.00  0.00    -0.080 S 
BRANCH  22  23
ATOM     23  C   UNL     1       4.403  -4.830   1.173  0.00  0.00    +0.112 C 
BRANCH  23  24
ATOM     24  C   UNL     1       5.353  -5.952   1.503  0.00  0.00    -0.037 A 
ATOM     25  C   UNL     1       5.648  -6.242   2.822  0.00  0.00    +0.004 A 
ATOM     26  C   UNL     1       6.520  -7.271   3.125  0.00  0.00    +0.000 A 
ATOM     27  C   UNL     1       7.096  -8.011   2.109  0.00  0.00    +0.000 A 
ATOM     28  C   UNL     1       6.800  -7.721   0.790  0.00  0.00    +0.000 A 
ATOM     29  C   UNL     1       5.925  -6.695   0.487  0.00  0.00    +0.004 A 
ENDBRANCH  23  24
ENDBRANCH  22  23
ENDBRANCH   8  22
TORSDOF 5
