REMARK  Name = ZINC45830710
REMARK  6 active torsions:
REMARK  status: ('A' for Active; 'I' for Inactive)
REMARK    1  A    between atoms: C_1  and  C_2
REMARK    2  A    between atoms: C_2  and  C_3
REMARK    3  A    between atoms: C_8  and  N_9
REMARK    4  A    between atoms: C_10  and  C_12
REMARK    5  A    between atoms: C_12  and  N_13
REMARK    6  A    between atoms: C_14  and  C_19
REMARK                            x       y       z     vdW  Elec       q    Type
REMARK                         _______ _______ _______ _____ _____    ______ ____
ROOT
ATOM      1  C   UNL     1      -1.186  -0.218  -5.132  0.00  0.00    +0.221 C 
ENDROOT
BRANCH   1   2
ATOM      2  N   UNL     1      -2.237  -0.571  -6.090  0.00  0.00    -0.293 N 
ATOM      3  C   UNL     1      -2.559  -1.829  -6.544  0.00  0.00    +0.165 A 
ATOM      4  N   UNL     1      -3.556  -1.691  -7.387  0.00  0.00    -0.128 NA
ATOM      5  N   UNL     1      -3.875  -0.451  -7.490  0.00  0.00    -0.121 NA
ATOM      6  C   UNL     1      -3.104   0.279  -6.715  0.00  0.00    +0.203 A 
ATOM      7  S   UNL     1      -3.174   2.029  -6.521  0.00  0.00    -0.009 SA
BRANCH   3   8
ATOM      8  C   UNL     1      -1.906  -3.098  -6.155  0.00  0.00    +0.019 A 
ATOM      9  C   UNL     1      -1.146  -3.165  -4.987  0.00  0.00    +0.013 A 
ATOM     10  C   UNL     1      -0.539  -4.351  -4.629  0.00  0.00    +0.021 A 
ATOM     11  C   UNL     1      -0.682  -5.473  -5.428  0.00  0.00    +0.041 A 
ATOM     12  C   UNL     1      -1.435  -5.412  -6.589  0.00  0.00    +0.021 A 
ATOM     13  C   UNL     1      -2.051  -4.234  -6.954  0.00  0.00    +0.013 A 
ATOM     14 CL   UNL     1       0.085  -6.962  -4.972  0.00  0.00    -0.084 Cl
ENDBRANCH   3   8
ENDBRANCH   1   2
BRANCH   1  16
ATOM     15  N   UNL     1      -0.972   0.093  -2.688  0.00  0.00    -0.284 N 
ATOM     16  C   UNL     1      -1.760  -0.207  -3.739  0.00  0.00    +0.237 C 
ATOM     17  O   UNL     1      -2.931  -0.469  -3.563  0.00  0.00    -0.274 OA
ATOM     18  H   UNL     1      -0.052   0.365  -2.833  0.00  0.00    +0.155 HD
BRANCH  15  24
ATOM     19  C   UNL     1      -0.650  -0.357  -0.337  0.00  0.00    -0.026 A 
ATOM     20  C   UNL     1      -1.153  -0.429   0.948  0.00  0.00    +0.005 A 
ATOM     21  C   UNL     1      -2.484  -0.140   1.187  0.00  0.00    +0.000 A 
ATOM     22  C   UNL     1      -3.315   0.224   0.143  0.00  0.00    +0.002 A 
ATOM     23  C   UNL     1      -2.817   0.299  -1.143  0.00  0.00    +0.023 A 
ATOM     24  C   UNL     1      -1.480   0.013  -1.386  0.00  0.00    +0.037 A 
BRANCH  19  26
ATOM     25  C   UNL     1       1.614   0.624  -0.590  0.00  0.00    +0.009 C 
ATOM     26  C   UNL     1       0.801  -0.672  -0.597  0.00  0.00    +0.033 C 
ENDBRANCH  19  26
ENDBRANCH  15  24
ENDBRANCH   1  16
TORSDOF 5
