REMARK  Name = ZINC49003395
REMARK  11 active torsions:
REMARK  status: ('A' for Active; 'I' for Inactive)
REMARK    1  A    between atoms: C_1  and  C_2
REMARK    2  A    between atoms: C_2  and  O_3
REMARK    3  A    between atoms: O_3  and  C_4
REMARK    4  A    between atoms: C_7  and  N_10
REMARK    5  A    between atoms: N_10  and  S_11
REMARK    6  A    between atoms: S_11  and  C_14
REMARK    7  A    between atoms: C_15  and  C_21
REMARK    8  A    between atoms: C_16  and  C_20
REMARK    9  A    between atoms: N_23  and  C_24
REMARK   10  A    between atoms: C_28  and  S_30
REMARK   11  A    between atoms: S_30  and  C_31
REMARK                            x       y       z     vdW  Elec       q    Type
REMARK                         _______ _______ _______ _____ _____    ______ ____
ROOT
ATOM      1  C   UNL     1       1.861  -8.354   2.927  0.00  0.00    +0.205 A 
ATOM      2  C   UNL     1       0.691  -9.145   2.958  0.00  0.00    +0.102 A 
ATOM      3  C   UNL     1       1.083 -10.459   2.800  0.00  0.00    +0.045 A 
ATOM      4  N   UNL     1       2.421 -10.468   2.678  0.00  0.00    -0.302 N 
ATOM      5  N   UNL     1       2.881  -9.149   2.755  0.00  0.00    -0.282 N 
ATOM      6  H   UNL     1       2.974 -11.255   2.554  0.00  0.00    +0.186 HD
ATOM      7  C   UNL     1       0.178 -11.663   2.769  0.00  0.00    +0.066 C 
ATOM      8  H   UNL     1       3.809  -8.870   2.692  0.00  0.00    +0.188 HD
ENDROOT
BRANCH   2   9
ATOM      9  C   UNL     1      -0.690  -8.659   3.130  0.00  0.00    +0.253 C 
ATOM     10  O   UNL     1      -1.354  -8.360   2.156  0.00  0.00    -0.270 OA
ATOM     11  N   UNL     1      -1.216  -8.546   4.365  0.00  0.00    -0.281 N 
ATOM     12  H   UNL     1      -0.711  -8.847   5.137  0.00  0.00    +0.155 HD
BRANCH  11  13
ATOM     13  C   UNL     1      -2.490  -7.994   4.535  0.00  0.00    +0.035 A 
ATOM     14  C   UNL     1      -2.767  -7.214   5.651  0.00  0.00    +0.023 A 
ATOM     15  C   UNL     1      -4.026  -6.669   5.820  0.00  0.00    +0.003 A 
ATOM     16  C   UNL     1      -5.012  -6.896   4.880  0.00  0.00    +0.015 A 
ATOM     17  C   UNL     1      -4.742  -7.675   3.761  0.00  0.00    +0.009 A 
ATOM     18  C   UNL     1      -3.476  -8.220   3.586  0.00  0.00    +0.038 A 
BRANCH  17  19
ATOM     19  S   UNL     1      -6.001  -7.965   2.563  0.00  0.00    -0.129 S 
ATOM     20  C   UNL     1      -7.438  -7.066   3.209  0.00  0.00    +0.090 C 
ENDBRANCH  17  19
ENDBRANCH  11  13
ENDBRANCH   2   9
BRANCH   1  21
ATOM     21  S   UNL     1       1.930  -6.600   3.084  0.00  0.00    +0.109 S 
ATOM     22  O   UNL     1       3.298  -6.235   2.967  0.00  0.00    -0.147 OA
ATOM     23  O   UNL     1       1.146  -6.263   4.220  0.00  0.00    -0.147 OA
BRANCH  21  24
ATOM     24  N   UNL     1       1.155  -5.960   1.768  0.00  0.00    -0.096 NA
BRANCH  24  28
ATOM     25  C   UNL     1       0.849  -1.825   1.337  0.00  0.00    +0.121 A 
ATOM     26  C   UNL     1       0.302  -2.664   0.378  0.00  0.00    +0.047 A 
ATOM     27  C   UNL     1       0.403  -4.034   0.520  0.00  0.00    +0.030 A 
ATOM     28  C   UNL     1       1.053  -4.572   1.623  0.00  0.00    +0.075 A 
ATOM     29  C   UNL     1       1.600  -3.731   2.583  0.00  0.00    +0.030 A 
ATOM     30  C   UNL     1       1.503  -2.361   2.437  0.00  0.00    +0.047 A 
BRANCH  25  31
ATOM     31  O   UNL     1       0.749  -0.476   1.197  0.00  0.00    -0.492 OA
BRANCH  31  33
ATOM     32  C   UNL     1       0.052   1.536   0.055  0.00  0.00    +0.048 C 
ATOM     33  C   UNL     1       0.063   0.007   0.040  0.00  0.00    +0.225 C 
ENDBRANCH  31  33
ENDBRANCH  25  31
ENDBRANCH  24  28
ENDBRANCH  21  24
ENDBRANCH   1  21
TORSDOF 8
