REMARK  Name = ZINC40035850
REMARK  13 active torsions:
REMARK  status: ('A' for Active; 'I' for Inactive)
REMARK    1  A    between atoms: C_1  and  C_2
REMARK    2  A    between atoms: C_2  and  C_3
REMARK    3  A    between atoms: C_3  and  C_4
REMARK    4  A    between atoms: C_4  and  C_5
REMARK    5  A    between atoms: C_5  and  O_6
REMARK    6  A    between atoms: O_6  and  C_7
REMARK    7  A    between atoms: C_10  and  C_13
REMARK    8  A    between atoms: N_14  and  N_15
REMARK    9  A    between atoms: N_22  and  C_23
REMARK   10  A    between atoms: C_26  and  C_29
REMARK   11  A    between atoms: C_30  and  C_38
REMARK   12  A    between atoms: C_30  and  C_39
REMARK   13  A    between atoms: C_39  and  C_40
REMARK                            x       y       z     vdW  Elec       q    Type
REMARK                         _______ _______ _______ _____ _____    ______ ____
ROOT
ATOM      1  N   UNL     1      -8.747  -8.744  -0.423  0.00  0.00    -0.206 N 
ATOM      2  C   UNL     1      -8.849 -10.101  -0.585  0.00  0.00    +0.223 A 
ATOM      3  N   UNL     1      -7.800 -10.859  -0.341  0.00  0.00    -0.214 NA
ATOM      4  C   UNL     1      -7.863 -12.187  -0.487  0.00  0.00    +0.084 A 
ATOM      5  C   UNL     1      -9.047 -12.784  -0.896  0.00  0.00    +0.050 A 
ATOM      6  C   UNL     1     -10.158 -11.972  -1.157  0.00  0.00    +0.264 A 
ATOM      7  O   UNL     1     -11.215 -12.461  -1.521  0.00  0.00    -0.267 OA
ATOM      8  N   UNL     1     -10.036 -10.637  -0.991  0.00  0.00    -0.248 N 
ATOM      9  C   UNL     1      -9.129 -14.276  -1.048  0.00  0.00    +0.004 C 
ATOM     10  C   UNL     1      -7.810 -14.837  -1.574  0.00  0.00    +0.047 C 
ATOM     11  C   UNL     1      -6.656 -14.336  -0.749  0.00  0.00    -0.037 A 
ATOM     12  C   UNL     1      -6.684 -13.043  -0.224  0.00  0.00    +0.004 A 
ATOM     13  C   UNL     1      -5.615 -12.574   0.534  0.00  0.00    +0.010 A 
ATOM     14  C   UNL     1      -4.530 -13.396   0.768  0.00  0.00    +0.001 A 
ATOM     15  C   UNL     1      -4.507 -14.678   0.250  0.00  0.00    +0.000 A 
ATOM     16  C   UNL     1      -5.567 -15.147  -0.507  0.00  0.00    +0.004 A 
ATOM     17  C   UNL     1     -10.251 -14.622  -2.030  0.00  0.00    +0.016 C 
ATOM     18  H   UNL     1      -9.488  -8.169  -0.672  0.00  0.00    +0.177 HD
ENDROOT
BRANCH   8  19
ATOM     19  C   UNL     1     -11.130  -9.800  -1.241  0.00  0.00    +0.053 A 
ATOM     20  C   UNL     1     -11.330  -9.277  -2.512  0.00  0.00    +0.026 A 
ATOM     21  C   UNL     1     -12.411  -8.452  -2.755  0.00  0.00    +0.005 A 
ATOM     22  C   UNL     1     -13.293  -8.147  -1.735  0.00  0.00    -0.050 A 
ATOM     23  C   UNL     1     -13.097  -8.666  -0.469  0.00  0.00    +0.005 A 
ATOM     24  C   UNL     1     -12.022  -9.497  -0.220  0.00  0.00    +0.026 A 
ATOM     25  C   UNL     1     -14.471  -7.246  -2.005  0.00  0.00    +0.044 C 
ENDBRANCH   8  19
BRANCH   1  27
ATOM     26  C   UNL     1      -7.477  -6.902   0.254  0.00  0.00    +0.138 C 
ATOM     27  N   UNL     1      -7.573  -8.187   0.101  0.00  0.00    -0.188 NA
BRANCH  26  31
ATOM     28  C   UNL     1      -3.920  -5.214   1.843  0.00  0.00    +0.121 A 
ATOM     29  C   UNL     1      -4.979  -4.389   1.488  0.00  0.00    +0.046 A 
ATOM     30  C   UNL     1      -6.136  -4.932   0.971  0.00  0.00    +0.013 A 
ATOM     31  C   UNL     1      -6.242  -6.316   0.805  0.00  0.00    -0.005 A 
ATOM     32  C   UNL     1      -5.173  -7.142   1.164  0.00  0.00    +0.013 A 
ATOM     33  C   UNL     1      -4.019  -6.589   1.674  0.00  0.00    +0.046 A 
BRANCH  28  34
ATOM     34  O   UNL     1      -2.782  -4.674   2.351  0.00  0.00    -0.492 OA
BRANCH  34  35
ATOM     35  C   UNL     1      -2.747  -3.253   2.498  0.00  0.00    +0.229 C 
BRANCH  35  36
ATOM     36  C   UNL     1      -1.396  -2.833   3.081  0.00  0.00    +0.041 C 
BRANCH  36  37
ATOM     37  C   UNL     1      -1.359  -1.312   3.239  0.00  0.00    +0.003 C 
BRANCH  37  39
ATOM     38  C   UNL     1       0.029   0.629   3.979  0.00  0.00    +0.004 C 
ATOM     39  C   UNL     1      -0.008  -0.892   3.821  0.00  0.00    -0.003 C 
ENDBRANCH  37  39
ENDBRANCH  36  37
ENDBRANCH  35  36
ENDBRANCH  34  35
ENDBRANCH  28  34
ENDBRANCH  26  31
ENDBRANCH   1  27
BRANCH   9  40
ATOM     40  C   UNL     1      -9.439 -14.906   0.312  0.00  0.00    +0.008 C 
ATOM     41  C   UNL     1     -10.774 -14.368   0.830  0.00  0.00    +0.005 C 
ENDBRANCH   9  40
TORSDOF 9
