REMARK  Name = ZINC60751483
REMARK  6 active torsions:
REMARK  status: ('A' for Active; 'I' for Inactive)
REMARK    1  A    between atoms: C_1  and  C_2
REMARK    2  A    between atoms: C_5  and  O_9
REMARK    3  A    between atoms: C_6  and  C_8
REMARK    4  A    between atoms: O_9  and  C_10
REMARK    5  A    between atoms: C_10  and  C_12
REMARK    6  A    between atoms: C_12  and  N_13
REMARK                            x       y       z     vdW  Elec       q    Type
REMARK                         _______ _______ _______ _____ _____    ______ ____
ROOT
ATOM      1  O   UNL     1       0.058  -4.129  -0.021  0.00  0.00    -0.424 OA
ENDROOT
BRANCH   1   6
ATOM      2  C   UNL     1      -0.017   1.503   0.012  0.00  0.00    +0.044 C 
ATOM      3  C   UNL     1       0.003  -0.004   0.003  0.00  0.00    -0.050 A 
ATOM      4  C   UNL     1      -1.170  -0.711   0.192  0.00  0.00    +0.007 A 
ATOM      5  C   UNL     1      -1.155  -2.092   0.185  0.00  0.00    +0.047 A 
ATOM      6  C   UNL     1       0.040  -2.770  -0.013  0.00  0.00    +0.135 A 
ATOM      7  C   UNL     1       1.215  -2.059  -0.203  0.00  0.00    -0.008 A 
ATOM      8  C   UNL     1       1.193  -0.677  -0.200  0.00  0.00    +0.010 A 
ATOM      9  C   UNL     1       2.514  -2.792  -0.418  0.00  0.00    +0.047 C 
ENDBRANCH   1   6
BRANCH   1  10
ATOM     10  C   UNL     1      -0.043  -4.755  -1.205  0.00  0.00    +0.330 C 
ATOM     11  O   UNL     1      -0.055  -4.112  -2.228  0.00  0.00    -0.249 OA
BRANCH  10  12
ATOM     12  C   UNL     1      -0.142  -6.257  -1.257  0.00  0.00    +0.228 C 
BRANCH  12  13
ATOM     13  N   UNL     1      -0.241  -6.692  -2.653  0.00  0.00    -0.291 N 
ATOM     14  C   UNL     1      -1.505  -6.855  -3.381  0.00  0.00    +0.109 C 
ATOM     15  C   UNL     1      -1.118  -6.889  -4.876  0.00  0.00    +0.028 C 
ATOM     16  C   UNL     1       0.343  -7.392  -4.812  0.00  0.00    +0.097 C 
ATOM     17  C   UNL     1       0.813  -6.987  -3.432  0.00  0.00    +0.216 C 
ATOM     18  O   UNL     1       1.973  -6.938  -3.080  0.00  0.00    -0.276 OA
ENDBRANCH  12  13
ENDBRANCH  10  12
ENDBRANCH   1  10
TORSDOF 4
