REMARK  Name = ZINC59006400
REMARK  10 active torsions:
REMARK  status: ('A' for Active; 'I' for Inactive)
REMARK    1  A    between atoms: C_1  and  C_2
REMARK    2  A    between atoms: C_2  and  C_3
REMARK    3  A    between atoms: C_3  and  C_5
REMARK    4  A    between atoms: C_3  and  C_6
REMARK    5  A    between atoms: C_9  and  N_12
REMARK    6  A    between atoms: C_13  and  C_15
REMARK    7  A    between atoms: C_15  and  S_16
REMARK    8  A    between atoms: S_16  and  C_17
REMARK    9  A    between atoms: N_22  and  N_23
REMARK   10  A    between atoms: C_24  and  C_25
REMARK                            x       y       z     vdW  Elec       q    Type
REMARK                         _______ _______ _______ _____ _____    ______ ____
ROOT
ATOM      1  C   UNL     1      -2.308 -10.526   3.319  0.00  0.00    +0.211 A 
ATOM      2  N   UNL     1      -2.731 -11.336   4.295  0.00  0.00    -0.186 NA
ATOM      3  C   UNL     1      -2.400 -12.579   4.014  0.00  0.00    +0.232 A 
ATOM      4  N   UNL     1      -1.748 -12.580   2.832  0.00  0.00    -0.245 N 
ATOM      5  N   UNL     1      -1.707 -11.244   2.400  0.00  0.00    -0.144 NA
ATOM      6  N   UNL     1      -2.671 -13.688   4.793  0.00  0.00    -0.205 N 
ATOM      7  H   UNL     1      -2.385 -14.568   4.501  0.00  0.00    +0.177 HD
ATOM      8  H   UNL     1      -1.384 -13.351   2.369  0.00  0.00    +0.192 HD
ENDROOT
BRANCH   6   9
ATOM      9  N   UNL     1      -3.358 -13.542   6.005  0.00  0.00    -0.187 NA
ATOM     10  C   UNL     1      -3.613 -14.584   6.737  0.00  0.00    +0.140 C 
BRANCH  10  11
ATOM     11  C   UNL     1      -4.336 -14.431   8.011  0.00  0.00    +0.020 A 
ATOM     12  C   UNL     1      -4.667 -15.421   8.881  0.00  0.00    +0.093 A 
ATOM     13  N   UNL     1      -5.332 -14.891   9.949  0.00  0.00    -0.360 N 
ATOM     14  H   UNL     1      -5.669 -15.402  10.701  0.00  0.00    +0.165 HD
ATOM     15  C   UNL     1      -5.455 -13.526   9.804  0.00  0.00    +0.047 A 
ATOM     16  C   UNL     1      -4.835 -13.173   8.594  0.00  0.00    +0.008 A 
ATOM     17  C   UNL     1      -4.802 -11.840   8.189  0.00  0.00    +0.010 A 
ATOM     18  C   UNL     1      -5.377 -10.872   8.983  0.00  0.00    +0.001 A 
ATOM     19  C   UNL     1      -5.986 -11.219  10.181  0.00  0.00    +0.002 A 
ATOM     20  C   UNL     1      -6.034 -12.534  10.589  0.00  0.00    +0.026 A 
ENDBRANCH  10  11
ENDBRANCH   6   9
BRANCH   1  21
ATOM     21  S   UNL     1      -2.529  -8.779   3.271  0.00  0.00    -0.075 S 
BRANCH  21  22
ATOM     22  C   UNL     1      -1.750  -8.281   1.710  0.00  0.00    +0.173 C 
BRANCH  22  24
ATOM     23  N   UNL     1      -1.359  -6.190   0.448  0.00  0.00    -0.285 N 
ATOM     24  C   UNL     1      -1.870  -6.788   1.542  0.00  0.00    +0.227 C 
ATOM     25  O   UNL     1      -2.426  -6.125   2.392  0.00  0.00    -0.275 OA
ATOM     26  H   UNL     1      -0.983  -6.726  -0.267  0.00  0.00    +0.155 HD
BRANCH  23  30
ATOM     27  C   UNL     1      -1.395  -2.035   0.137  0.00  0.00    -0.044 A 
ATOM     28  C   UNL     1      -1.244  -2.633   1.374  0.00  0.00    +0.006 A 
ATOM     29  C   UNL     1      -1.232  -4.010   1.481  0.00  0.00    +0.023 A 
ATOM     30  C   UNL     1      -1.372  -4.794   0.344  0.00  0.00    +0.033 A 
ATOM     31  C   UNL     1      -1.524  -4.191  -0.898  0.00  0.00    +0.023 A 
ATOM     32  C   UNL     1      -1.541  -2.813  -0.997  0.00  0.00    +0.006 A 
BRANCH  27  33
ATOM     33  C   UNL     1      -1.409  -0.532   0.024  0.00  0.00    +0.016 C 
ATOM     34  C   UNL     1      -0.083   0.029   0.541  0.00  0.00    +0.012 C 
BRANCH  33  36
ATOM     35  C   UNL     1      -2.652   1.544   0.645  0.00  0.00    +0.004 C 
ATOM     36  C   UNL     1      -2.562   0.031   0.857  0.00  0.00    +0.004 C 
ENDBRANCH  33  36
ENDBRANCH  27  33
ENDBRANCH  23  30
ENDBRANCH  22  24
ENDBRANCH  21  22
ENDBRANCH   1  21
TORSDOF 8
