REMARK  Name = ZINC43659090
REMARK  4 active torsions:
REMARK  status: ('A' for Active; 'I' for Inactive)
REMARK    1  A    between atoms: C_8  and  C_13
REMARK    2  A    between atoms: C_10  and  O_12
REMARK    3  A    between atoms: C_13  and  C_14
REMARK    4  A    between atoms: C_19  and  N_20
REMARK                            x       y       z     vdW  Elec       q    Type
REMARK                         _______ _______ _______ _____ _____    ______ ____
ROOT
ATOM      1  C   UNL     1      -0.408   1.203  -0.317  0.00  0.00    +0.000 A 
ATOM      2  C   UNL     1       0.726   1.993  -0.273  0.00  0.00    +0.000 A 
ATOM      3  C   UNL     1       1.973   1.404  -0.188  0.00  0.00    +0.006 A 
ATOM      4  C   UNL     1       2.091   0.025  -0.146  0.00  0.00    -0.016 A 
ATOM      5  C   UNL     1       0.957  -0.764  -0.190  0.00  0.00    -0.041 A 
ATOM      6  C   UNL     1      -0.292  -0.172  -0.275  0.00  0.00    +0.004 A 
ATOM      7  C   UNL     1       1.349  -2.225  -0.131  0.00  0.00    +0.042 C 
ATOM      8  C   UNL     1       2.850  -2.256  -0.487  0.00  0.00    +0.031 C 
ATOM      9  C   UNL     1       3.322  -0.852  -0.054  0.00  0.00    +0.148 C 
ENDROOT
BRANCH   9  10
ATOM     10  O   UNL     1       3.809  -0.883   1.288  0.00  0.00    -0.387 OA
ATOM     11  H   UNL     1       4.080  -0.020   1.629  0.00  0.00    +0.210 HD
ENDBRANCH   9  10
BRANCH   8  12
ATOM     12  C   UNL     1       3.049  -2.463  -1.990  0.00  0.00    +0.044 C 
BRANCH  12  13
ATOM     13  C   UNL     1       2.561  -3.835  -2.377  0.00  0.00    -0.014 A 
ATOM     14  C   UNL     1       1.316  -3.987  -2.958  0.00  0.00    +0.044 A 
ATOM     15  C   UNL     1       0.868  -5.248  -3.313  0.00  0.00    +0.124 A 
ATOM     16  C   UNL     1       1.668  -6.355  -3.086  0.00  0.00    +0.040 A 
ATOM     17  C   UNL     1       2.912  -6.201  -2.506  0.00  0.00    +0.036 A 
ATOM     18  C   UNL     1       3.361  -4.941  -2.156  0.00  0.00    +0.130 A 
ATOM     19  F   UNL     1      -0.349  -5.397  -3.881  0.00  0.00    -0.205 F 
BRANCH  18  20
ATOM     20  N   UNL     1       4.696  -4.776  -1.540  0.00  0.00    +0.057 N 
ATOM     21  O   UNL     1       5.431  -5.729  -1.425  0.00  0.00    -0.126 OA
ATOM     22  O   UNL     1       5.052  -3.688  -1.151  0.00  0.00    -0.126 OA
ENDBRANCH  18  20
ENDBRANCH  12  13
ENDBRANCH   8  12
TORSDOF 4
