REMARK  Name = ZINC36161005
REMARK  16 active torsions:
REMARK  status: ('A' for Active; 'I' for Inactive)
REMARK    1  A    between atoms: C_1  and  C_2
REMARK    2  A    between atoms: C_2  and  C_3
REMARK    3  A    between atoms: C_3  and  C_5
REMARK    4  A    between atoms: C_3  and  N_6
REMARK    5  A    between atoms: N_6  and  C_7
REMARK    6  A    between atoms: N_6  and  C_26
REMARK    7  A    between atoms: C_7  and  C_8
REMARK    8  A    between atoms: C_9  and  C_20
REMARK    9  A    between atoms: C_12  and  N_13
REMARK   10  A    between atoms: C_16  and  C_19
REMARK   11  A    between atoms: C_26  and  C_27
REMARK   12  A    between atoms: C_27  and  C_29
REMARK   13  A    between atoms: C_27  and  O_37
REMARK   14  A    between atoms: C_29  and  O_30
REMARK   15  A    between atoms: O_30  and  C_31
REMARK   16  A    between atoms: C_31  and  C_32
REMARK                            x       y       z     vdW  Elec       q    Type
REMARK                         _______ _______ _______ _____ _____    ______ ____
ROOT
ATOM      1  C   UNL     1      -3.602  -0.918  -1.292  0.00  0.00    -0.035 C 
ENDROOT
BRANCH   1   2
ATOM      2  C   UNL     1      -3.267  -2.196  -2.017  0.00  0.00    +0.025 A 
ATOM      3  C   UNL     1      -2.751  -2.297  -3.325  0.00  0.00    +0.117 A 
ATOM      4  N   UNL     1      -2.591  -3.571  -3.600  0.00  0.00    -0.076 NA
ATOM      5  O   UNL     1      -3.002  -4.318  -2.470  0.00  0.00    -0.339 OA
ATOM      6  C   UNL     1      -3.403  -3.453  -1.523  0.00  0.00    +0.222 A 
BRANCH   6   7
ATOM      7  N   UNL     1      -3.873  -3.785  -0.265  0.00  0.00    -0.299 N 
ATOM      8  C   UNL     1      -5.316  -3.824   0.007  0.00  0.00    +0.108 C 
ATOM      9  C   UNL     1      -5.669  -5.190   0.605  0.00  0.00    +0.022 C 
ATOM     10  C   UNL     1      -4.790  -5.447   1.832  0.00  0.00    -0.011 C 
ATOM     11  C   UNL     1      -3.318  -5.469   1.411  0.00  0.00    +0.022 C 
ATOM     12  C   UNL     1      -2.940  -4.112   0.821  0.00  0.00    +0.108 C 
ATOM     13  C   UNL     1      -5.163  -6.795   2.452  0.00  0.00    +0.007 C 
ENDBRANCH   6   7
BRANCH   3  14
ATOM     14  C   UNL     1      -2.443  -1.162  -4.232  0.00  0.00    +0.004 A 
ATOM     15  C   UNL     1      -3.307  -0.072  -4.306  0.00  0.00    +0.010 A 
ATOM     16  C   UNL     1      -3.016   0.980  -5.150  0.00  0.00    +0.001 A 
ATOM     17  C   UNL     1      -1.869   0.953  -5.923  0.00  0.00    +0.000 A 
ATOM     18  C   UNL     1      -1.008  -0.127  -5.854  0.00  0.00    +0.001 A 
ATOM     19  C   UNL     1      -1.286  -1.182  -5.009  0.00  0.00    +0.010 A 
ENDBRANCH   3  14
ENDBRANCH   1   2
BRANCH   1  20
ATOM     20  N   UNL     1      -2.384  -0.114  -1.128  0.00  0.00    +0.386 N 
ATOM     21  H   UNL     1      -1.834  -0.160  -1.972  0.00  0.00    -0.081 HD
BRANCH  20  22
ATOM     22  C   UNL     1      -1.599  -0.640  -0.003  0.00  0.00    -0.071 C 
ATOM     23  C   UNL     1      -2.490  -0.747   1.236  0.00  0.00    -0.013 C 
BRANCH  22  25
ATOM     24  C   UNL     1      -0.076  -1.901  -1.530  0.00  0.00    +0.002 C 
ATOM     25  C   UNL     1      -1.057  -2.025  -0.363  0.00  0.00    -0.019 C 
ENDBRANCH  22  25
ENDBRANCH  20  22
BRANCH  20  26
ATOM     26  C   UNL     1      -2.751   1.282  -0.858  0.00  0.00    -0.044 C 
BRANCH  26  27
ATOM     27  C   UNL     1      -1.496   2.156  -0.892  0.00  0.00    +0.124 C 
BRANCH  27  28
ATOM     28  O   UNL     1      -0.698   1.888   0.263  0.00  0.00    -0.391 OA
ATOM     29  H   UNL     1      -1.163   2.015   1.101  0.00  0.00    +0.210 HD
ENDBRANCH  27  28
BRANCH  27  30
ATOM     30  C   UNL     1      -1.901   3.631  -0.901  0.00  0.00    +0.189 C 
BRANCH  30  31
ATOM     31  O   UNL     1      -0.735   4.444  -1.051  0.00  0.00    -0.370 OA
BRANCH  31  32
ATOM     32  C   UNL     1      -1.004   5.848  -1.071  0.00  0.00    +0.234 C 
BRANCH  32  33
ATOM     33  C   UNL     1       0.289   6.604  -1.232  0.00  0.00    +0.130 A 
ATOM     34  C   UNL     1       0.849   6.967  -2.400  0.00  0.00    +0.047 A 
ATOM     35  C   UNL     1       2.045   7.652  -2.087  0.00  0.00    +0.041 A 
ATOM     36  C   UNL     1       2.144   7.668  -0.745  0.00  0.00    +0.195 A 
ATOM     37  O   UNL     1       1.075   7.037  -0.233  0.00  0.00    -0.465 OA
ENDBRANCH  32  33
ENDBRANCH  31  32
ENDBRANCH  30  31
ENDBRANCH  27  30
ENDBRANCH  26  27
ENDBRANCH  20  26
ENDBRANCH   1  20
TORSDOF 13
