REMARK  Name = ZINC10960509
REMARK  9 active torsions:
REMARK  status: ('A' for Active; 'I' for Inactive)
REMARK    1  A    between atoms: C_1  and  C_2
REMARK    2  A    between atoms: C_2  and  C_3
REMARK    3  A    between atoms: C_2  and  C_4
REMARK    4  A    between atoms: C_4  and  C_5
REMARK    5  A    between atoms: C_5  and  C_7
REMARK    6  A    between atoms: C_5  and  N_17
REMARK    7  A    between atoms: C_18  and  C_20
REMARK    8  A    between atoms: C_20  and  N_21
REMARK    9  A    between atoms: C_22  and  C_27
REMARK                            x       y       z     vdW  Elec       q    Type
REMARK                         _______ _______ _______ _____ _____    ______ ____
ROOT
ATOM      1  N   UNL     1      -1.337  -0.710   2.576  0.00  0.00    -0.304 N 
ATOM      2  C   UNL     1      -2.394  -0.211   1.905  0.00  0.00    +0.233 C 
ATOM      3  O   UNL     1      -2.308   0.865   1.352  0.00  0.00    -0.274 OA
ATOM      4  H   UNL     1      -1.406  -1.571   3.019  0.00  0.00    +0.149 HD
ENDROOT
BRANCH   1   5
ATOM      5  C   UNL     1      -0.084   0.046   2.636  0.00  0.00    +0.139 C 
BRANCH   5   6
ATOM      6  C   UNL     1       0.688  -0.357   3.866  0.00  0.00    +0.129 A 
ATOM      7  N   UNL     1       0.961   0.462   4.918  0.00  0.00    -0.340 N 
ATOM      8  H   UNL     1       0.698   1.391   5.006  0.00  0.00    +0.167 HD
ATOM      9  C   UNL     1       1.681  -0.276   5.836  0.00  0.00    +0.066 A 
ATOM     10  C   UNL     1       2.233   0.002   7.079  0.00  0.00    +0.028 A 
ATOM     11  C   UNL     1       2.914  -0.985   7.760  0.00  0.00    +0.002 A 
ATOM     12  C   UNL     1       3.050  -2.252   7.210  0.00  0.00    +0.002 A 
ATOM     13  C   UNL     1       2.514  -2.543   5.988  0.00  0.00    +0.030 A 
ATOM     14  C   UNL     1       1.819  -1.559   5.280  0.00  0.00    +0.089 A 
ATOM     15  N   UNL     1       1.185  -1.540   4.080  0.00  0.00    -0.231 NA
ENDBRANCH   5   6
BRANCH   5  16
ATOM     16  C   UNL     1       0.752  -0.253   1.389  0.00  0.00    +0.033 C 
BRANCH  16  18
ATOM     17  C   UNL     1      -0.071   1.795   0.218  0.00  0.00    +0.007 C 
ATOM     18  C   UNL     1       0.023   0.270   0.150  0.00  0.00    -0.015 C 
ATOM     19  C   UNL     1       0.797  -0.138  -1.106  0.00  0.00    +0.007 C 
ENDBRANCH  16  18
ENDBRANCH   5  16
ENDBRANCH   1   5
BRANCH   2  20
ATOM     20  C   UNL     1      -3.683  -0.989   1.844  0.00  0.00    +0.221 C 
BRANCH  20  21
ATOM     21  N   UNL     1      -4.670  -0.238   1.063  0.00  0.00    -0.293 N 
ATOM     22  C   UNL     1      -5.588   0.671   1.537  0.00  0.00    +0.165 A 
ATOM     23  N   UNL     1      -6.270   1.104   0.502  0.00  0.00    -0.128 NA
ATOM     24  N   UNL     1      -5.848   0.537  -0.571  0.00  0.00    -0.121 NA
ATOM     25  C   UNL     1      -4.866  -0.290  -0.288  0.00  0.00    +0.203 A 
ATOM     26  S   UNL     1      -3.972  -1.283  -1.436  0.00  0.00    -0.009 SA
BRANCH  22  27
ATOM     27  C   UNL     1      -5.771   1.082   2.945  0.00  0.00    +0.019 A 
ATOM     28  C   UNL     1      -4.751   0.872   3.875  0.00  0.00    +0.013 A 
ATOM     29  C   UNL     1      -4.928   1.257   5.187  0.00  0.00    +0.021 A 
ATOM     30  C   UNL     1      -6.115   1.851   5.583  0.00  0.00    +0.041 A 
ATOM     31  C   UNL     1      -7.130   2.062   4.665  0.00  0.00    +0.021 A 
ATOM     32  C   UNL     1      -6.963   1.687   3.349  0.00  0.00    +0.013 A 
ATOM     33 CL   UNL     1      -6.330   2.333   7.237  0.00  0.00    -0.084 Cl
ENDBRANCH  22  27
ENDBRANCH  20  21
ENDBRANCH   2  20
TORSDOF 7
