REMARK  Name = ZINC23255571
REMARK  14 active torsions:
REMARK  status: ('A' for Active; 'I' for Inactive)
REMARK    1  A    between atoms: C_1  and  C_2
REMARK    2  A    between atoms: C_2  and  C_3
REMARK    3  A    between atoms: C_2  and  C_4
REMARK    4  A    between atoms: C_4  and  C_6
REMARK    5  A    between atoms: C_4  and  N_17
REMARK    6  A    between atoms: C_18  and  C_20
REMARK    7  A    between atoms: C_20  and  N_21
REMARK    8  A    between atoms: N_24  and  C_27
REMARK    9  A    between atoms: C_27  and  C_28
REMARK   10  A    between atoms: N_30  and  C_31
REMARK   11  A    between atoms: C_31  and  C_32
REMARK   12  A    between atoms: C_32  and  C_33
REMARK   13  A    between atoms: C_33  and  O_34
REMARK   14  A    between atoms: O_34  and  C_35
REMARK                            x       y       z     vdW  Elec       q    Type
REMARK                         _______ _______ _______ _____ _____    ______ ____
ROOT
ATOM      1  N   UNL     1      -2.155   0.035   1.154  0.00  0.00    -0.307 N 
ATOM      2  C   UNL     1      -2.067  -0.550   2.366  0.00  0.00    +0.228 C 
ATOM      3  O   UNL     1      -1.391  -1.546   2.511  0.00  0.00    -0.274 OA
ATOM      4  H   UNL     1      -2.696   0.831   1.038  0.00  0.00    +0.149 HD
ENDROOT
BRANCH   1   5
ATOM      5  C   UNL     1      -1.433  -0.534   0.013  0.00  0.00    +0.106 C 
BRANCH   5   6
ATOM      6  C   UNL     1      -2.125  -0.137  -1.266  0.00  0.00    -0.023 A 
ATOM      7  C   UNL     1      -2.628   1.143  -1.409  0.00  0.00    +0.009 A 
ATOM      8  C   UNL     1      -3.263   1.514  -2.581  0.00  0.00    +0.050 A 
ATOM      9  C   UNL     1      -3.393   0.598  -3.611  0.00  0.00    +0.162 A 
ATOM     10  C   UNL     1      -2.888  -0.687  -3.467  0.00  0.00    +0.162 A 
ATOM     11  C   UNL     1      -2.249  -1.053  -2.295  0.00  0.00    +0.055 A 
ATOM     12  O   UNL     1      -3.021  -1.581  -4.489  0.00  0.00    -0.488 OA
ATOM     13  C   UNL     1      -4.352  -2.023  -4.765  0.00  0.00    +0.232 C 
ATOM     14  C   UNL     1      -5.067  -1.041  -5.680  0.00  0.00    +0.082 C 
ATOM     15  C   UNL     1      -5.272   0.316  -5.026  0.00  0.00    +0.232 C 
ATOM     16  O   UNL     1      -4.017   0.951  -4.772  0.00  0.00    -0.488 OA
ENDBRANCH   5   6
BRANCH   5  18
ATOM     17  C   UNL     1      -0.019   1.526   0.010  0.00  0.00    +0.009 C 
ATOM     18  C   UNL     1       0.002  -0.004   0.002  0.00  0.00    +0.008 C 
ATOM     19  C   UNL     1       0.742  -0.511   1.242  0.00  0.00    +0.009 C 
ENDBRANCH   5  18
ENDBRANCH   1   5
BRANCH   2  20
ATOM     20  C   UNL     1      -2.809   0.034   3.540  0.00  0.00    +0.180 C 
BRANCH  20  21
ATOM     21  N   UNL     1      -2.553  -0.779   4.736  0.00  0.00    -0.298 NA
ATOM     22  C   UNL     1      -3.135  -2.122   4.594  0.00  0.00    +0.066 C 
ATOM     23  C   UNL     1      -2.795  -2.955   5.832  0.00  0.00    -0.063 C 
ATOM     24  N   UNL     1      -3.331  -2.294   7.029  0.00  0.00    +0.387 N 
ATOM     25  C   UNL     1      -2.722  -0.965   7.170  0.00  0.00    -0.063 C 
ATOM     26  C   UNL     1      -3.061  -0.115   5.944  0.00  0.00    +0.066 C 
ATOM     27  H   UNL     1      -4.331  -2.198   6.941  0.00  0.00    -0.081 HD
BRANCH  24  28
ATOM     28  C   UNL     1      -3.020  -3.103   8.215  0.00  0.00    +0.019 C 
BRANCH  28  29
ATOM     29  C   UNL     1      -3.674  -2.490   9.427  0.00  0.00    +0.196 C 
ATOM     30  O   UNL     1      -4.334  -1.479   9.313  0.00  0.00    -0.278 OA
ATOM     31  N   UNL     1      -3.525  -3.066  10.636  0.00  0.00    -0.317 N 
ATOM     32  H   UNL     1      -2.997  -3.875  10.727  0.00  0.00    +0.149 HD
BRANCH  31  33
ATOM     33  C   UNL     1      -4.161  -2.470  11.814  0.00  0.00    +0.106 C 
BRANCH  33  34
ATOM     34  C   UNL     1      -3.837  -3.313  13.049  0.00  0.00    +0.047 C 
BRANCH  34  35
ATOM     35  C   UNL     1      -4.501  -2.691  14.279  0.00  0.00    +0.161 C 
BRANCH  35  36
ATOM     36  O   UNL     1      -4.199  -3.478  15.433  0.00  0.00    -0.383 OA
ATOM     37  C   UNL     1      -4.774  -2.981  16.643  0.00  0.00    +0.193 C 
ENDBRANCH  35  36
ENDBRANCH  34  35
ENDBRANCH  33  34
ENDBRANCH  31  33
ENDBRANCH  28  29
ENDBRANCH  24  28
ENDBRANCH  20  21
ENDBRANCH   2  20
TORSDOF 11
