REMARK  Name = ZINC49405421
REMARK  11 active torsions:
REMARK  status: ('A' for Active; 'I' for Inactive)
REMARK    1  A    between atoms: C_1  and  C_2
REMARK    2  A    between atoms: C_2  and  C_3
REMARK    3  A    between atoms: C_2  and  C_4
REMARK    4  A    between atoms: N_6  and  C_7
REMARK    5  A    between atoms: C_10  and  S_13
REMARK    6  A    between atoms: S_13  and  N_16
REMARK    7  A    between atoms: N_16  and  C_17
REMARK    8  A    between atoms: C_17  and  C_18
REMARK    9  A    between atoms: C_18  and  C_19
REMARK   10  A    between atoms: N_25  and  S_26
REMARK   11  A    between atoms: S_26  and  C_29
REMARK                            x       y       z     vdW  Elec       q    Type
REMARK                         _______ _______ _______ _____ _____    ______ ____
ROOT
ATOM      1  N   UNL     1      -7.916  -0.610  -0.237  0.00  0.00    -0.190 NA
ATOM      2  H   UNL     1      -8.362  -0.764   0.611  0.00  0.00    +0.148 HD
ENDROOT
BRANCH   1   3
ATOM      3  S   UNL     1      -6.785  -1.689  -0.785  0.00  0.00    +0.058 S 
ATOM      4  O   UNL     1      -7.145  -2.010  -2.122  0.00  0.00    -0.153 OA
ATOM      5  O   UNL     1      -6.645  -2.679   0.224  0.00  0.00    -0.153 OA
BRANCH   3   9
ATOM      6  C   UNL     1      -2.831   0.509  -1.002  0.00  0.00    +0.034 A 
ATOM      7  C   UNL     1      -3.154  -0.234   0.127  0.00  0.00    +0.025 A 
ATOM      8  C   UNL     1      -4.360  -0.903   0.189  0.00  0.00    +0.030 A 
ATOM      9  C   UNL     1      -5.247  -0.834  -0.870  0.00  0.00    +0.105 A 
ATOM     10  C   UNL     1      -4.929  -0.095  -1.994  0.00  0.00    +0.030 A 
ATOM     11  C   UNL     1      -3.726   0.581  -2.061  0.00  0.00    +0.025 A 
BRANCH   6  14
ATOM     12  C   UNL     1      -0.507   0.647  -0.513  0.00  0.00    +0.220 C 
ATOM     13  O   UNL     1      -0.589  -0.389   0.113  0.00  0.00    -0.275 OA
ATOM     14  N   UNL     1      -1.610   1.188  -1.068  0.00  0.00    -0.285 N 
ATOM     15  H   UNL     1      -1.556   2.047  -1.514  0.00  0.00    +0.155 HD
BRANCH  12  17
ATOM     16  C   UNL     1       0.758   2.732  -0.062  0.00  0.00    +0.017 C 
ATOM     17  C   UNL     1       0.828   1.329  -0.670  0.00  0.00    +0.069 C 
ATOM     18  C   UNL     1       1.904   0.515   0.050  0.00  0.00    +0.017 C 
ENDBRANCH  12  17
ENDBRANCH   6  14
ENDBRANCH   3   9
ENDBRANCH   1   3
BRANCH   1  19
ATOM     19  C   UNL     1      -8.242   0.577  -1.032  0.00  0.00    +0.107 C 
BRANCH  19  20
ATOM     20  C   UNL     1      -9.580   1.152  -0.563  0.00  0.00    +0.037 C 
BRANCH  20  21
ATOM     21  C   UNL     1      -9.976   2.322  -1.466  0.00  0.00    +0.081 C 
ATOM     22  C   UNL     1     -10.271   1.804  -2.877  0.00  0.00    +0.021 C 
ATOM     23  C   UNL     1     -10.800   2.954  -3.738  0.00  0.00    +0.003 C 
ATOM     24  C   UNL     1     -12.103   3.486  -3.136  0.00  0.00    +0.017 C 
ATOM     25  C   UNL     1     -11.828   4.023  -1.728  0.00  0.00    +0.110 C 
ATOM     26  N   UNL     1     -11.184   2.968  -0.934  0.00  0.00    -0.173 NA
BRANCH  26  27
ATOM     27  S   UNL     1     -11.809   2.512   0.530  0.00  0.00    +0.067 S 
ATOM     28  O   UNL     1     -13.113   3.072   0.607  0.00  0.00    -0.152 OA
ATOM     29  O   UNL     1     -11.570   1.117   0.657  0.00  0.00    -0.152 OA
BRANCH  27  30
ATOM     30  C   UNL     1     -10.847   3.303   1.777  0.00  0.00    +0.143 A 
ATOM     31  C   UNL     1     -11.081   4.472   2.422  0.00  0.00    +0.036 A 
ATOM     32  C   UNL     1     -10.178   4.903   3.376  0.00  0.00    +0.010 A 
ATOM     33  C   UNL     1      -9.085   4.145   3.638  0.00  0.00    +0.047 A 
ATOM     34  S   UNL     1      -9.315   2.770   2.522  0.00  0.00    -0.077 S 
ENDBRANCH  27  30
ENDBRANCH  26  27
ENDBRANCH  20  21
ENDBRANCH  19  20
ENDBRANCH   1  19
TORSDOF 9
