REMARK  Name = ZINC48545501
REMARK  11 active torsions:
REMARK  status: ('A' for Active; 'I' for Inactive)
REMARK    1  A    between atoms: C_1  and  C_2
REMARK    2  A    between atoms: C_2  and  O_3
REMARK    3  A    between atoms: O_3  and  C_4
REMARK    4  A    between atoms: C_4  and  C_6
REMARK    5  A    between atoms: C_7  and  C_28
REMARK    6  A    between atoms: C_9  and  C_27
REMARK    7  A    between atoms: C_10  and  C_22
REMARK    8  A    between atoms: C_11  and  C_12
REMARK    9  A    between atoms: C_22  and  O_24
REMARK   10  A    between atoms: O_24  and  C_25
REMARK   11  A    between atoms: C_25  and  C_26
REMARK                            x       y       z     vdW  Elec       q    Type
REMARK                         _______ _______ _______ _____ _____    ______ ____
ROOT
ATOM      1  C   UNL     1       1.306  -2.317  -2.504  0.00  0.00    +0.065 C 
ATOM      2  C   UNL     1       1.470  -3.648  -2.605  0.00  0.00    +0.016 C 
ATOM      3  N   UNL     1       2.149  -4.193  -3.660  0.00  0.00    -0.321 N 
ATOM      4  C   UNL     1       2.359  -3.462  -4.797  0.00  0.00    +0.016 C 
ATOM      5  C   UNL     1       2.233  -2.123  -4.788  0.00  0.00    +0.065 C 
ATOM      6  C   UNL     1       1.861  -1.380  -3.539  0.00  0.00    +0.101 C 
ATOM      7  C   UNL     1       2.736  -4.165  -6.075  0.00  0.00    +0.061 C 
ATOM      8  C   UNL     1       0.898  -4.550  -1.542  0.00  0.00    +0.061 C 
ATOM      9  H   UNL     1       2.483  -5.101  -3.602  0.00  0.00    +0.152 HD
ENDROOT
BRANCH   6  10
ATOM     10  C   UNL     1       3.089  -0.703  -2.987  0.00  0.00    +0.024 A 
ATOM     11  C   UNL     1       3.078   0.660  -2.746  0.00  0.00    +0.026 A 
ATOM     12  C   UNL     1       4.204   1.284  -2.240  0.00  0.00    +0.019 A 
ATOM     13  C   UNL     1       5.344   0.549  -1.973  0.00  0.00    +0.050 A 
ATOM     14  C   UNL     1       5.362  -0.815  -2.212  0.00  0.00    +0.167 A 
ATOM     15  C   UNL     1       4.226  -1.445  -2.716  0.00  0.00    +0.171 A 
ATOM     16  O   UNL     1       4.492  -2.776  -2.856  0.00  0.00    -0.452 OA
ATOM     17  C   UNL     1       5.927  -2.889  -2.813  0.00  0.00    +0.466 C 
ATOM     18  O   UNL     1       6.340  -1.751  -2.038  0.00  0.00    -0.453 OA
ATOM     19 BR   UNL     1       1.522   1.670  -3.111  0.00  0.00    -0.050 Br
ENDBRANCH   6  10
BRANCH   1  20
ATOM     20  C   UNL     1       0.592  -1.789  -1.404  0.00  0.00    +0.338 C 
ATOM     21  O   UNL     1      -0.554  -1.407  -1.549  0.00  0.00    -0.245 OA
BRANCH  20  22
ATOM     22  O   UNL     1       1.181  -1.709  -0.193  0.00  0.00    -0.462 OA
BRANCH  22  24
ATOM     23  C   UNL     1       1.231  -1.155   2.159  0.00  0.00    +0.048 C 
ATOM     24  C   UNL     1       0.401  -1.165   0.874  0.00  0.00    +0.229 C 
ENDBRANCH  22  24
ENDBRANCH  20  22
ENDBRANCH   1  20
BRANCH   5  25
ATOM     25  C   UNL     1       2.450  -1.400  -5.984  0.00  0.00    +0.338 C 
ATOM     26  O   UNL     1       2.747  -1.990  -7.006  0.00  0.00    -0.245 OA
BRANCH  25  27
ATOM     27  O   UNL     1       2.327  -0.056  -5.992  0.00  0.00    -0.462 OA
BRANCH  27  28
ATOM     28  C   UNL     1       2.561   0.610  -7.234  0.00  0.00    +0.229 C 
ATOM     29  C   UNL     1       2.377   2.117  -7.048  0.00  0.00    +0.048 C 
ENDBRANCH  27  28
ENDBRANCH  25  27
ENDBRANCH   5  25
TORSDOF 7
