REMARK  Name = ZINC58164224
REMARK  8 active torsions:
REMARK  status: ('A' for Active; 'I' for Inactive)
REMARK    1  A    between atoms: C_1  and  C_2
REMARK    2  A    between atoms: C_2  and  C_3
REMARK    3  A    between atoms: C_3  and  C_4
REMARK    4  A    between atoms: C_4  and  N_5
REMARK    5  A    between atoms: N_5  and  C_6
REMARK    6  A    between atoms: C_6  and  C_7
REMARK    7  A    between atoms: C_8  and  C_10
REMARK    8  A    between atoms: C_11  and  C_12
REMARK                            x       y       z     vdW  Elec       q    Type
REMARK                         _______ _______ _______ _____ _____    ______ ____
ROOT
ATOM      1  C   UNL     1       1.411  -3.201  -4.806  0.00  0.00    +0.069 C 
ATOM      2  C   UNL     1       0.711  -3.429  -5.934  0.00  0.00    +0.033 C 
ENDROOT
BRANCH   2   3
ATOM      3  C   UNL     1       1.401  -3.904  -7.146  0.00  0.00    +0.065 A 
ATOM      4  C   UNL     1       0.655  -4.132  -8.317  0.00  0.00    +0.028 A 
ATOM      5  C   UNL     1       1.283  -4.571  -9.445  0.00  0.00    +0.012 A 
ATOM      6  C   UNL     1       2.675  -4.785  -9.395  0.00  0.00    +0.000 A 
ATOM      7  C   UNL     1       3.382  -5.236 -10.520  0.00  0.00    +0.010 A 
ATOM      8  C   UNL     1       4.727  -5.431 -10.436  0.00  0.00    +0.001 A 
ATOM      9  C   UNL     1       5.413  -5.189  -9.247  0.00  0.00    +0.002 A 
ATOM     10  C   UNL     1       4.761  -4.751  -8.137  0.00  0.00    +0.028 A 
ATOM     11  C   UNL     1       3.370  -4.537  -8.183  0.00  0.00    +0.072 A 
ATOM     12  N   UNL     1       2.707  -4.102  -7.111  0.00  0.00    -0.247 NA
ENDBRANCH   2   3
BRANCH   1  14
ATOM     13  N   UNL     1       1.425  -2.500  -2.470  0.00  0.00    -0.298 N 
ATOM     14  C   UNL     1       0.724  -2.728  -3.599  0.00  0.00    +0.239 C 
ATOM     15  O   UNL     1      -0.478  -2.541  -3.617  0.00  0.00    -0.271 OA
BRANCH  13  16
ATOM     16  C   UNL     1       2.872  -2.724  -2.449  0.00  0.00    +0.104 C 
ATOM     17  C   UNL     1       3.158  -4.168  -2.031  0.00  0.00    +0.024 C 
ENDBRANCH  13  16
BRANCH  13  18
ATOM     18  C   UNL     1       0.739  -2.027  -1.265  0.00  0.00    +0.108 C 
BRANCH  18  19
ATOM     19  C   UNL     1       0.718  -0.497  -1.257  0.00  0.00    +0.019 C 
BRANCH  19  21
ATOM     20  C   UNL     1      -0.019   1.526   0.010  0.00  0.00    +0.004 C 
ATOM     21  C   UNL     1       0.002  -0.004   0.002  0.00  0.00    -0.002 C 
ENDBRANCH  19  21
ENDBRANCH  18  19
ENDBRANCH  13  18
ENDBRANCH   1  14
TORSDOF 6
