REMARK  Name = ZINC13123795
REMARK  8 active torsions:
REMARK  status: ('A' for Active; 'I' for Inactive)
REMARK    1  A    between atoms: C_1  and  C_2
REMARK    2  A    between atoms: C_2  and  C_3
REMARK    3  A    between atoms: C_2  and  C_4
REMARK    4  A    between atoms: C_2  and  N_5
REMARK    5  A    between atoms: C_6  and  C_8
REMARK    6  A    between atoms: C_8  and  S_9
REMARK    7  A    between atoms: S_9  and  C_10
REMARK    8  A    between atoms: C_13  and  C_15
REMARK                            x       y       z     vdW  Elec       q    Type
REMARK                         _______ _______ _______ _____ _____    ______ ____
ROOT
ATOM      1  C   UNL     1       5.060  -0.637  -4.170  0.00  0.00    +0.278 A 
ATOM      2  N   UNL     1       4.439  -1.391  -5.045  0.00  0.00    -0.101 NA
ATOM      3  N   UNL     1       5.239  -1.677  -6.011  0.00  0.00    -0.106 NA
ATOM      4  C   UNL     1       6.404  -1.117  -5.791  0.00  0.00    +0.251 A 
ATOM      5  O   UNL     1       6.315  -0.442  -4.624  0.00  0.00    -0.411 OA
ENDROOT
BRANCH   4   6
ATOM      6  C   UNL     1       7.593  -1.204  -6.661  0.00  0.00    +0.063 A 
ATOM      7  C   UNL     1       8.806  -0.633  -6.439  0.00  0.00    +0.097 A 
ATOM      8  N   UNL     1       9.652  -0.936  -7.465  0.00  0.00    -0.360 N 
ATOM      9  H   UNL     1      10.574  -0.640  -7.529  0.00  0.00    +0.165 HD
ATOM     10  C   UNL     1       9.010  -1.722  -8.396  0.00  0.00    +0.047 A 
ATOM     11  C   UNL     1       7.698  -1.932  -7.938  0.00  0.00    +0.012 A 
ATOM     12  C   UNL     1       6.813  -2.706  -8.685  0.00  0.00    +0.011 A 
ATOM     13  C   UNL     1       7.231  -3.266  -9.872  0.00  0.00    +0.001 A 
ATOM     14  C   UNL     1       8.527  -3.062 -10.325  0.00  0.00    +0.002 A 
ATOM     15  C   UNL     1       9.411  -2.292  -9.600  0.00  0.00    +0.026 A 
ENDBRANCH   4   6
BRANCH   1  16
ATOM     16  S   UNL     1       4.379   0.010  -2.680  0.00  0.00    -0.056 S 
BRANCH  16  17
ATOM     17  C   UNL     1       2.677  -0.618  -2.667  0.00  0.00    +0.174 C 
BRANCH  17  19
ATOM     18  N   UNL     1       0.688  -0.476  -1.203  0.00  0.00    -0.310 N 
ATOM     19  C   UNL     1       1.972  -0.132  -1.427  0.00  0.00    +0.224 C 
ATOM     20  O   UNL     1       2.559   0.569  -0.630  0.00  0.00    -0.275 OA
ATOM     21  H   UNL     1       0.218  -1.037  -1.840  0.00  0.00    +0.149 HD
BRANCH  18  23
ATOM     22  C   UNL     1      -0.019   1.526   0.010  0.00  0.00    +0.031 C 
ATOM     23  C   UNL     1       0.002  -0.004   0.002  0.00  0.00    +0.026 C 
ATOM     24  C   UNL     1       0.742  -0.511   1.242  0.00  0.00    +0.031 C 
ATOM     25  C   UNL     1      -1.433  -0.534   0.013  0.00  0.00    +0.031 C 
ENDBRANCH  18  23
ENDBRANCH  17  19
ENDBRANCH  16  17
ENDBRANCH   1  16
TORSDOF 5
