REMARK  Name = ZINC12630549
REMARK  10 active torsions:
REMARK  status: ('A' for Active; 'I' for Inactive)
REMARK    1  A    between atoms: C_1  and  C_2
REMARK    2  A    between atoms: C_2  and  N_59
REMARK    3  A    between atoms: C_3  and  C_4
REMARK    4  A    between atoms: C_3  and  N_59
REMARK    5  A    between atoms: N_6  and  C_7
REMARK    6  A    between atoms: C_12  and  C_13
REMARK    7  A    between atoms: C_13  and  C_15
REMARK    8  A    between atoms: C_21  and  C_22
REMARK    9  A    between atoms: C_21  and  N_59
REMARK   10  A    between atoms: N_24  and  C_25
REMARK                            x       y       z     vdW  Elec       q    Type
REMARK                         _______ _______ _______ _____ _____    ______ ____
ROOT
ATOM      1  C   UNL     1      -3.508   3.748  -0.168  0.00  0.00    +0.201 C 
ATOM      2  O   UNL     1      -3.792   2.636   0.225  0.00  0.00    -0.278 OA
ATOM      3  N   UNL     1      -2.233   4.042  -0.494  0.00  0.00    -0.286 N 
ATOM      4  H   UNL     1      -1.991   4.951  -0.732  0.00  0.00    +0.155 HD
ENDROOT
BRANCH   3   5
ATOM      5  C   UNL     1      -1.264   3.042  -0.488  0.00  0.00    +0.044 A 
ATOM      6  C   UNL     1      -1.605   1.738  -0.821  0.00  0.00    +0.024 A 
ATOM      7  C   UNL     1      -0.645   0.747  -0.808  0.00  0.00    +0.002 A 
ATOM      8  C   UNL     1       0.668   1.046  -0.476  0.00  0.00    +0.001 A 
ATOM      9  C   UNL     1       1.026   2.335  -0.149  0.00  0.00    +0.013 A 
ATOM     10  C   UNL     1       0.064   3.349  -0.151  0.00  0.00    +0.043 A 
BRANCH  10  11
ATOM     11  C   UNL     1       0.440   4.730   0.199  0.00  0.00    +0.195 C 
ATOM     12  O   UNL     1       1.067   5.408  -0.592  0.00  0.00    -0.287 OA
BRANCH  11  13
ATOM     13  C   UNL     1       0.056   5.291   1.511  0.00  0.00    +0.022 A 
ATOM     14  C   UNL     1      -0.568   4.483   2.463  0.00  0.00    +0.012 A 
ATOM     15  C   UNL     1      -0.920   5.012   3.688  0.00  0.00    +0.001 A 
ATOM     16  C   UNL     1      -0.666   6.343   3.969  0.00  0.00    +0.000 A 
ATOM     17  C   UNL     1      -0.053   7.151   3.027  0.00  0.00    +0.001 A 
ATOM     18  C   UNL     1       0.309   6.634   1.801  0.00  0.00    +0.012 A 
ENDBRANCH  11  13
ENDBRANCH  10  11
ENDBRANCH   3   5
BRANCH   1  19
ATOM     19  C   UNL     1      -4.580   4.800  -0.292  0.00  0.00    +0.020 C 
BRANCH  19  20
ATOM     20  N   UNL     1      -5.875   4.209   0.105  0.00  0.00    +0.391 N 
ATOM     21  H   UNL     1      -6.019   3.338  -0.419  0.00  0.00    -0.080 HD
BRANCH  20  23
ATOM     22  C   UNL     1      -5.516   5.153   2.362  0.00  0.00    -0.017 C 
ATOM     23  C   UNL     1      -5.869   3.904   1.552  0.00  0.00    -0.081 C 
ENDBRANCH  20  23
BRANCH  20  24
ATOM     24  C   UNL     1      -6.974   5.146  -0.208  0.00  0.00    +0.019 C 
BRANCH  24  25
ATOM     25  C   UNL     1      -8.278   4.391  -0.174  0.00  0.00    +0.197 C 
ATOM     26  O   UNL     1      -8.288   3.211   0.106  0.00  0.00    -0.278 OA
ATOM     27  N   UNL     1      -9.433   5.027  -0.454  0.00  0.00    -0.312 N 
ATOM     28  H   UNL     1      -9.425   5.971  -0.678  0.00  0.00    +0.149 HD
BRANCH  27  29
ATOM     29  C   UNL     1     -10.700   4.293  -0.421  0.00  0.00    +0.095 C 
ATOM     30  C   UNL     1     -11.230   4.254   1.022  0.00  0.00    +0.046 C 
ATOM     31  C   UNL     1     -12.703   3.756   0.985  0.00  0.00    +0.168 C 
ATOM     32  S   UNL     1     -13.325   4.656  -0.498  0.00  0.00    -0.029 S 
ATOM     33  O   UNL     1     -13.901   5.887  -0.084  0.00  0.00    -0.174 OA
ATOM     34  O   UNL     1     -14.087   3.761  -1.296  0.00  0.00    -0.174 OA
ATOM     35  C   UNL     1     -11.726   4.997  -1.341  0.00  0.00    +0.188 C 
ENDBRANCH  27  29
ENDBRANCH  24  25
ENDBRANCH  20  24
ENDBRANCH  19  20
ENDBRANCH   1  19
TORSDOF 9
