REMARK  Name = ZINC14023463
REMARK  9 active torsions:
REMARK  status: ('A' for Active; 'I' for Inactive)
REMARK    1  A    between atoms: C_1  and  C_2
REMARK    2  A    between atoms: N_11  and  C_12
REMARK    3  A    between atoms: C_12  and  C_13
REMARK    4  A    between atoms: C_13  and  N_63
REMARK    5  A    between atoms: C_14  and  N_63
REMARK    6  A    between atoms: C_15  and  N_63
REMARK    7  A    between atoms: C_16  and  C_18
REMARK    8  A    between atoms: N_23  and  S_25
REMARK    9  A    between atoms: S_25  and  C_28
REMARK                            x       y       z     vdW  Elec       q    Type
REMARK                         _______ _______ _______ _____ _____    ______ ____
ROOT
ATOM      1  C   UNL     1      -6.716  -4.831   0.245  0.00  0.00    +0.044 C 
ATOM      2  C   UNL     1      -5.467  -3.995   0.354  0.00  0.00    -0.049 A 
ATOM      3  C   UNL     1      -5.551  -2.611   0.394  0.00  0.00    +0.005 A 
ATOM      4  C   UNL     1      -4.431  -1.828   0.494  0.00  0.00    +0.029 A 
ATOM      5  C   UNL     1      -3.144  -2.412   0.559  0.00  0.00    +0.080 A 
ATOM      6  C   UNL     1      -3.097  -3.824   0.515  0.00  0.00    +0.041 A 
ATOM      7  C   UNL     1      -4.225  -4.601   0.416  0.00  0.00    +0.020 A 
ATOM      8  S   UNL     1      -1.353  -4.148   0.610  0.00  0.00    -0.052 S 
ATOM      9  C   UNL     1      -0.814  -2.447   0.710  0.00  0.00    +0.168 A 
ATOM     10  N   UNL     1      -1.950  -1.790   0.657  0.00  0.00    -0.224 NA
ATOM     11  N   UNL     1       0.474  -1.948   0.810  0.00  0.00    -0.252 N 
ATOM     12  C   UNL     1       1.529  -2.780   0.708  0.00  0.00    +0.226 C 
ATOM     13  O   UNL     1       2.653  -2.358   0.880  0.00  0.00    -0.275 OA
ENDROOT
BRANCH  12  14
ATOM     14  C   UNL     1       1.312  -4.235   0.381  0.00  0.00    +0.091 C 
ATOM     15  C   UNL     1       0.958  -4.999   1.659  0.00  0.00    +0.015 C 
ATOM     16  C   UNL     1       0.705  -6.470   1.322  0.00  0.00    +0.018 C 
ATOM     17  C   UNL     1       1.980  -7.081   0.731  0.00  0.00    +0.109 C 
ATOM     18  N   UNL     1       2.408  -6.265  -0.413  0.00  0.00    -0.176 NA
ATOM     19  C   UNL     1       2.593  -4.820  -0.221  0.00  0.00    +0.122 C 
BRANCH  18  20
ATOM     20  S   UNL     1       2.678  -6.961  -1.891  0.00  0.00    +0.061 S 
ATOM     21  O   UNL     1       3.573  -6.104  -2.587  0.00  0.00    -0.153 OA
ATOM     22  O   UNL     1       2.969  -8.331  -1.649  0.00  0.00    -0.153 OA
BRANCH  20  23
ATOM     23  C   UNL     1       1.153  -6.919  -2.773  0.00  0.00    +0.105 A 
ATOM     24  C   UNL     1       0.268  -7.975  -2.673  0.00  0.00    +0.028 A 
ATOM     25  C   UNL     1      -0.931  -7.940  -3.361  0.00  0.00    +0.002 A 
ATOM     26  C   UNL     1      -1.239  -6.853  -4.157  0.00  0.00    +0.000 A 
ATOM     27  C   UNL     1      -0.350  -5.799  -4.262  0.00  0.00    +0.002 A 
ATOM     28  C   UNL     1       0.846  -5.832  -3.570  0.00  0.00    +0.028 A 
ENDBRANCH  20  23
ENDBRANCH  18  20
ENDBRANCH  12  14
BRANCH  11  29
ATOM     29  C   UNL     1       0.690  -0.515   1.027  0.00  0.00    +0.097 C 
BRANCH  29  30
ATOM     30  C   UNL     1       0.688   0.211  -0.320  0.00  0.00    -0.060 C 
BRANCH  30  33
ATOM     31  C   UNL     1       2.103   2.004   0.484  0.00  0.00    -0.097 C 
ATOM     32  C   UNL     1       0.562   2.403  -1.341  0.00  0.00    -0.097 C 
ATOM     33  N   UNL     1       0.778   1.666  -0.078  0.00  0.00    +0.377 N 
ATOM     34  H   UNL     1       0.051   1.938   0.594  0.00  0.00    -0.083 HD
ENDBRANCH  30  33
ENDBRANCH  29  30
ENDBRANCH  11  29
TORSDOF 6
