REMARK  Name = ZINC63613224
REMARK  7 active torsions:
REMARK  status: ('A' for Active; 'I' for Inactive)
REMARK    1  A    between atoms: C_1  and  O_2
REMARK    2  A    between atoms: O_2  and  C_3
REMARK    3  A    between atoms: C_9  and  C_12
REMARK    4  A    between atoms: C_12  and  C_13
REMARK    5  A    between atoms: C_13  and  N_14
REMARK    6  A    between atoms: C_15  and  C_17
REMARK    7  A    between atoms: C_27  and  C_28
REMARK                            x       y       z     vdW  Elec       q    Type
REMARK                         _______ _______ _______ _____ _____    ______ ____
ROOT
ATOM      1  C   UNL     1      -0.244  -9.558   3.123  0.00  0.00    +0.039 A 
ATOM      2  C   UNL     1       0.372  -9.648   1.871  0.00  0.00    +0.017 A 
ATOM      3  C   UNL     1       1.460 -10.474   1.696  0.00  0.00    +0.049 A 
ATOM      4  C   UNL     1       1.949 -11.219   2.761  0.00  0.00    +0.150 A 
ATOM      5  C   UNL     1       1.340 -11.133   4.015  0.00  0.00    +0.077 A 
ATOM      6  C   UNL     1       0.250 -10.302   4.197  0.00  0.00    +0.040 A 
ATOM      7  N   UNL     1       1.837 -11.882   5.091  0.00  0.00    -0.276 N 
ATOM      8  C   UNL     1       3.054 -12.465   4.974  0.00  0.00    +0.284 C 
ATOM      9  O   UNL     1       3.533 -13.115   5.884  0.00  0.00    -0.266 OA
ATOM     10  C   UNL     1       3.778 -12.283   3.698  0.00  0.00    +0.191 C 
ATOM     11  C   UNL     1       5.126 -12.358   3.635  0.00  0.00    +0.061 C 
ATOM     12  O   UNL     1       3.024 -12.035   2.584  0.00  0.00    -0.449 OA
ATOM     13  H   UNL     1       1.318 -11.981   5.904  0.00  0.00    +0.155 HD
ENDROOT
BRANCH  11  14
ATOM     14  C   UNL     1       5.916 -12.451   4.873  0.00  0.00    -0.003 A 
ATOM     15  C   UNL     1       5.573 -11.678   5.986  0.00  0.00    +0.009 A 
ATOM     16  C   UNL     1       6.318 -11.771   7.142  0.00  0.00    +0.001 A 
ATOM     17  C   UNL     1       7.404 -12.627   7.204  0.00  0.00    +0.001 A 
ATOM     18  C   UNL     1       7.751 -13.396   6.108  0.00  0.00    +0.020 A 
ATOM     19  C   UNL     1       7.012 -13.319   4.944  0.00  0.00    +0.048 A 
ATOM     20 CL   UNL     1       7.444 -14.291   3.572  0.00  0.00    -0.083 Cl
ENDBRANCH  11  14
BRANCH   1  22
ATOM     21  N   UNL     1      -1.886  -7.956   2.273  0.00  0.00    -0.311 N 
ATOM     22  C   UNL     1      -1.410  -8.673   3.311  0.00  0.00    +0.244 C 
ATOM     23  O   UNL     1      -1.942  -8.592   4.401  0.00  0.00    -0.270 OA
ATOM     24  H   UNL     1      -1.462  -8.021   1.404  0.00  0.00    +0.149 HD
BRANCH  21  25
ATOM     25  C   UNL     1      -3.043  -7.077   2.460  0.00  0.00    +0.109 C 
BRANCH  25  26
ATOM     26  C   UNL     1      -3.376  -6.384   1.137  0.00  0.00    +0.052 C 
BRANCH  26  33
ATOM     27  C   UNL     1      -3.746  -1.901   2.062  0.00  0.00    +0.121 A 
ATOM     28  C   UNL     1      -5.068  -1.433   2.164  0.00  0.00    +0.047 A 
ATOM     29  C   UNL     1      -6.138  -2.240   2.003  0.00  0.00    +0.029 A 
ATOM     30  C   UNL     1      -5.940  -3.663   1.709  0.00  0.00    +0.043 A 
ATOM     31  N   UNL     1      -6.786  -4.643   1.512  0.00  0.00    -0.380 N 
ATOM     32  C   UNL     1      -6.026  -5.872   1.256  0.00  0.00    +0.144 C 
ATOM     33  C   UNL     1      -4.567  -5.481   1.329  0.00  0.00    -0.040 C 
ATOM     34  C   UNL     1      -4.547  -4.157   1.601  0.00  0.00    +0.002 A 
ATOM     35  C   UNL     1      -3.455  -3.195   1.789  0.00  0.00    +0.055 A 
ATOM     36  H   UNL     1      -7.753  -4.569   1.532  0.00  0.00    +0.160 HD
BRANCH  27  38
ATOM     37  C   UNL     1      -3.075   0.333   2.525  0.00  0.00    +0.277 C 
ATOM     38  O   UNL     1      -2.724  -1.022   2.238  0.00  0.00    -0.495 OA
ENDBRANCH  27  38
ENDBRANCH  26  33
ENDBRANCH  25  26
ENDBRANCH  21  25
ENDBRANCH   1  22
TORSDOF 6
