REMARK  Name = ZINC64155709
REMARK  7 active torsions:
REMARK  status: ('A' for Active; 'I' for Inactive)
REMARK    1  A    between atoms: C_4  and  C_7
REMARK    2  A    between atoms: C_7  and  C_9
REMARK    3  A    between atoms: C_7  and  N_20
REMARK    4  A    between atoms: C_9  and  C_11
REMARK    5  A    between atoms: C_23  and  C_26
REMARK    6  A    between atoms: N_28  and  C_29
REMARK    7  A    between atoms: C_34  and  O_35
REMARK                            x       y       z     vdW  Elec       q    Type
REMARK                         _______ _______ _______ _____ _____    ______ ____
ROOT
ATOM      1  C   UNL     1       3.746  -0.678  -0.059  0.00  0.00    +0.158 C 
ENDROOT
BRANCH   1   5
ATOM      2  C   UNL     1       6.748   1.566  -2.110  0.00  0.00    +0.000 A 
ATOM      3  C   UNL     1       6.676   1.608  -0.730  0.00  0.00    +0.000 A 
ATOM      4  C   UNL     1       5.704   0.882  -0.066  0.00  0.00    +0.005 A 
ATOM      5  C   UNL     1       4.805   0.114  -0.782  0.00  0.00    -0.023 A 
ATOM      6  C   UNL     1       4.876   0.073  -2.162  0.00  0.00    +0.005 A 
ATOM      7  C   UNL     1       5.848   0.798  -2.826  0.00  0.00    +0.000 A 
ENDBRANCH   1   5
BRANCH   1   8
ATOM      8  N   UNL     1       3.590  -1.989  -0.703  0.00  0.00    -0.289 NA
ATOM      9  C   UNL     1       2.575  -2.796  -0.014  0.00  0.00    +0.086 C 
ATOM     10  C   UNL     1       2.335  -4.090  -0.794  0.00  0.00    +0.028 C 
ATOM     11  C   UNL     1       3.649  -4.869  -0.897  0.00  0.00    +0.078 C 
ATOM     12  C   UNL     1       4.703  -3.989  -1.574  0.00  0.00    +0.028 C 
ATOM     13  C   UNL     1       4.874  -2.698  -0.771  0.00  0.00    +0.086 C 
BRANCH  11  14
ATOM     14  C   UNL     1       3.432  -6.116  -1.715  0.00  0.00    +0.220 C 
ATOM     15  O   UNL     1       2.335  -6.359  -2.172  0.00  0.00    -0.275 OA
ATOM     16  N   UNL     1       4.458  -6.961  -1.940  0.00  0.00    -0.282 N 
ATOM     17  H   UNL     1       5.351  -6.731  -1.639  0.00  0.00    +0.155 HD
BRANCH  16  18
ATOM     18  C   UNL     1       4.234  -8.173  -2.607  0.00  0.00    +0.075 A 
ATOM     19  C   UNL     1       3.274  -8.250  -3.605  0.00  0.00    +0.027 A 
ATOM     20  C   UNL     1       3.055  -9.446  -4.262  0.00  0.00    +0.002 A 
ATOM     21  C   UNL     1       3.791 -10.568  -3.926  0.00  0.00    +0.004 A 
ATOM     22  C   UNL     1       4.749 -10.499  -2.932  0.00  0.00    +0.047 A 
ATOM     23  C   UNL     1       4.978  -9.302  -2.273  0.00  0.00    +0.138 A 
BRANCH  23  24
ATOM     24  O   UNL     1       5.924  -9.231  -1.299  0.00  0.00    -0.505 OA
ATOM     25  H   UNL     1       5.592  -9.431  -0.413  0.00  0.00    +0.292 HD
ENDBRANCH  23  24
ENDBRANCH  16  18
ENDBRANCH  11  14
ENDBRANCH   1   8
BRANCH   1  26
ATOM     26  C   UNL     1       2.437   0.067  -0.112  0.00  0.00    +0.183 C 
ATOM     27  O   UNL     1       1.623  -0.196  -0.974  0.00  0.00    -0.290 OA
BRANCH  26  28
ATOM     28  C   UNL     1       2.157   1.070   0.840  0.00  0.00    +0.025 C 
ATOM     29  C   UNL     1       1.010   1.838   0.934  0.00  0.00    +0.006 A 
ATOM     30  C   UNL     1      -0.182   1.883   0.174  0.00  0.00    +0.010 A 
ATOM     31  C   UNL     1      -1.164   2.754   0.498  0.00  0.00    +0.001 A 
ATOM     32  C   UNL     1      -1.057   3.642   1.581  0.00  0.00    +0.002 A 
ATOM     33  C   UNL     1       0.039   3.679   2.369  0.00  0.00    +0.026 A 
ATOM     34  C   UNL     1       1.155   2.762   2.086  0.00  0.00    +0.043 A 
ATOM     35  N   UNL     1       2.306   2.587   2.670  0.00  0.00    -0.380 N 
ATOM     36  C   UNL     1       3.046   1.528   1.976  0.00  0.00    +0.152 C 
ATOM     37  H   UNL     1       2.623   3.077   3.444  0.00  0.00    +0.160 HD
ENDBRANCH  26  28
ENDBRANCH   1  26
TORSDOF 7
