REMARK  Name = ZINC12027538
REMARK  12 active torsions:
REMARK  status: ('A' for Active; 'I' for Inactive)
REMARK    1  A    between atoms: C_1  and  C_2
REMARK    2  A    between atoms: C_3  and  C_22
REMARK    3  A    between atoms: C_5  and  C_7
REMARK    4  A    between atoms: C_12  and  N_13
REMARK    5  A    between atoms: C_14  and  C_16
REMARK    6  A    between atoms: C_22  and  N_23
REMARK    7  A    between atoms: C_24  and  C_26
REMARK    8  A    between atoms: C_29  and  C_31
REMARK    9  A    between atoms: C_32  and  C_33
REMARK   10  A    between atoms: C_33  and  C_34
REMARK   11  A    between atoms: C_33  and  C_35
REMARK   12  A    between atoms: C_33  and  O_36
REMARK                            x       y       z     vdW  Elec       q    Type
REMARK                         _______ _______ _______ _____ _____    ______ ____
ROOT
ATOM      1  C   UNL     1      -0.159   0.575   0.130  0.00  0.00    +0.088 C 
ATOM      2  C   UNL     1      -0.838   1.141   1.351  0.00  0.00    +0.127 A 
ATOM      3  C   UNL     1      -0.272   1.352   2.553  0.00  0.00    +0.100 A 
ATOM      4  N   UNL     1      -1.209   1.866   3.364  0.00  0.00    -0.212 NA
ATOM      5  C   UNL     1      -2.332   1.975   2.693  0.00  0.00    +0.229 A 
ATOM      6  O   UNL     1      -2.124   1.536   1.439  0.00  0.00    -0.440 OA
ENDROOT
BRANCH   5   7
ATOM      7  C   UNL     1      -3.607   2.498   3.224  0.00  0.00    +0.058 A 
ATOM      8  C   UNL     1      -3.723   2.823   4.576  0.00  0.00    +0.015 A 
ATOM      9  C   UNL     1      -4.917   3.311   5.066  0.00  0.00    +0.001 A 
ATOM     10  C   UNL     1      -6.001   3.481   4.222  0.00  0.00    +0.002 A 
ATOM     11  C   UNL     1      -5.900   3.163   2.881  0.00  0.00    +0.024 A 
ATOM     12  C   UNL     1      -4.705   2.676   2.371  0.00  0.00    +0.046 A 
BRANCH  12  13
ATOM     13  N   UNL     1      -4.600   2.359   1.016  0.00  0.00    -0.281 N 
ATOM     14  C   UNL     1      -5.678   1.912   0.342  0.00  0.00    +0.248 C 
ATOM     15  O   UNL     1      -6.761   1.863   0.892  0.00  0.00    -0.270 OA
ATOM     16  H   UNL     1      -3.750   2.461   0.559  0.00  0.00    +0.155 HD
BRANCH  14  17
ATOM     17  C   UNL     1      -5.543   1.481  -1.065  0.00  0.00    +0.037 A 
ATOM     18  C   UNL     1      -4.302   1.540  -1.701  0.00  0.00    +0.013 A 
ATOM     19  C   UNL     1      -4.182   1.130  -3.013  0.00  0.00    +0.001 A 
ATOM     20  C   UNL     1      -5.291   0.672  -3.701  0.00  0.00    +0.000 A 
ATOM     21  C   UNL     1      -6.525   0.616  -3.079  0.00  0.00    +0.001 A 
ATOM     22  C   UNL     1      -6.658   1.017  -1.766  0.00  0.00    +0.013 A 
ENDBRANCH  14  17
ENDBRANCH  12  13
ENDBRANCH   5   7
BRANCH   3  23
ATOM     23  C   UNL     1       1.160   1.062   2.922  0.00  0.00    +0.163 C 
BRANCH  23  24
ATOM     24  N   UNL     1       1.983   2.244   2.649  0.00  0.00    -0.303 N 
ATOM     25  C   UNL     1       3.306   2.216   2.904  0.00  0.00    +0.280 C 
ATOM     26  O   UNL     1       3.817   1.211   3.360  0.00  0.00    -0.267 OA
ATOM     27  H   UNL     1       1.575   3.045   2.285  0.00  0.00    +0.149 HD
BRANCH  25  28
ATOM     28  C   UNL     1       4.129   3.397   2.631  0.00  0.00    +0.191 A 
ATOM     29  C   UNL     1       5.486   3.502   2.845  0.00  0.00    +0.056 A 
ATOM     30  C   UNL     1       5.861   4.789   2.451  0.00  0.00    +0.059 A 
ATOM     31  C   UNL     1       4.718   5.423   2.012  0.00  0.00    +0.179 A 
ATOM     32  O   UNL     1       3.688   4.567   2.123  0.00  0.00    -0.442 OA
BRANCH  31  33
ATOM     33  C   UNL     1       4.643   6.764   1.516  0.00  0.00    -0.026 C 
ATOM     34  C   UNL     1       4.582   7.864   1.109  0.00  0.00    -0.060 C 
BRANCH  34  35
ATOM     35  C   UNL     1       4.504   9.243   0.600  0.00  0.00    +0.121 C 
ATOM     36  C   UNL     1       3.058   9.564   0.216  0.00  0.00    +0.055 C 
ATOM     37  C   UNL     1       4.972  10.215   1.685  0.00  0.00    +0.055 C 
BRANCH  35  38
ATOM     38  O   UNL     1       5.342   9.373  -0.550  0.00  0.00    -0.377 OA
ATOM     39  H   UNL     1       6.275   9.183  -0.381  0.00  0.00    +0.211 HD
ENDBRANCH  35  38
ENDBRANCH  34  35
ENDBRANCH  31  33
ENDBRANCH  25  28
ENDBRANCH  23  24
ENDBRANCH   3  23
TORSDOF 9
