REMARK  Name = ZINC14475846
REMARK  6 active torsions:
REMARK  status: ('A' for Active; 'I' for Inactive)
REMARK    1  A    between atoms: C_1  and  C_2
REMARK    2  A    between atoms: N_5  and  S_8
REMARK    3  A    between atoms: S_8  and  C_11
REMARK    4  A    between atoms: C_24  and  C_27
REMARK    5  A    between atoms: C_29  and  N_34
REMARK    6  A    between atoms: C_32  and  O_33
REMARK                            x       y       z     vdW  Elec       q    Type
REMARK                         _______ _______ _______ _____ _____    ______ ____
ROOT
ATOM      1  C   UNL     1       4.033  -2.672  -0.053  0.00  0.00    +0.106 A 
ATOM      2  C   UNL     1       4.604  -2.294  -1.255  0.00  0.00    +0.030 A 
ATOM      3  C   UNL     1       5.770  -1.557  -1.267  0.00  0.00    +0.025 A 
ATOM      4  C   UNL     1       6.382  -1.192  -0.073  0.00  0.00    +0.031 A 
ATOM      5  C   UNL     1       5.804  -1.588   1.138  0.00  0.00    -0.018 A 
ATOM      6  C   UNL     1       4.631  -2.312   1.140  0.00  0.00    +0.034 A 
ATOM      7  C   UNL     1       6.508  -1.213   2.384  0.00  0.00    +0.049 C 
ATOM      8  C   UNL     1       5.785  -1.033   3.670  0.00  0.00    -0.023 C 
ATOM      9  C   UNL     1       6.418  -0.112   4.386  0.00  0.00    -0.030 C 
ATOM     10  C   UNL     1       7.616   0.429   3.603  0.00  0.00    +0.033 C 
ATOM     11  C   UNL     1       7.155   0.187   2.163  0.00  0.00    +0.029 C 
ATOM     12  C   UNL     1       8.249  -0.031   1.134  0.00  0.00    +0.108 C 
ATOM     13  N   UNL     1       7.553  -0.427  -0.110  0.00  0.00    -0.336 N 
ATOM     14  H   UNL     1       7.915  -0.151  -0.967  0.00  0.00    +0.147 HD
ENDROOT
BRANCH  12  15
ATOM     15  C   UNL     1       9.022   1.244   0.918  0.00  0.00    +0.017 A 
ATOM     16  C   UNL     1       8.679   2.095  -0.116  0.00  0.00    +0.041 A 
ATOM     17  C   UNL     1       9.387   3.265  -0.314  0.00  0.00    +0.127 A 
ATOM     18  C   UNL     1      10.442   3.588   0.520  0.00  0.00    +0.036 A 
ATOM     19  C   UNL     1      10.789   2.741   1.555  0.00  0.00    +0.048 A 
ATOM     20  C   UNL     1      10.076   1.569   1.760  0.00  0.00    +0.122 A 
BRANCH  17  21
ATOM     21  N   UNL     1       9.018   4.174  -1.423  0.00  0.00    +0.056 N 
ATOM     22  O   UNL     1       8.096   3.892  -2.153  0.00  0.00    -0.126 OA
ATOM     23  O   UNL     1       9.637   5.197  -1.597  0.00  0.00    -0.126 OA
ENDBRANCH  17  21
BRANCH  20  24
ATOM     24  O   UNL     1      10.413   0.737   2.780  0.00  0.00    -0.506 OA
ATOM     25  H   UNL     1      11.069   0.067   2.542  0.00  0.00    +0.292 HD
ENDBRANCH  20  24
ENDBRANCH  12  15
BRANCH   1  26
ATOM     26  S   UNL     1       2.539  -3.606  -0.043  0.00  0.00    +0.061 S 
ATOM     27  O   UNL     1       2.499  -4.295   1.199  0.00  0.00    -0.153 OA
ATOM     28  O   UNL     1       2.474  -4.282  -1.291  0.00  0.00    -0.153 OA
BRANCH  26  33
ATOM     29  C   UNL     1      -0.019   1.526   0.010  0.00  0.00    +0.007 C 
ATOM     30  C   UNL     1       0.002  -0.004   0.002  0.00  0.00    -0.012 C 
ATOM     31  C   UNL     1       0.717  -0.497  -1.258  0.00  0.00    +0.020 C 
ATOM     32  C   UNL     1       0.705  -2.029  -1.280  0.00  0.00    +0.110 C 
ATOM     33  N   UNL     1       1.285  -2.525  -0.025  0.00  0.00    -0.177 NA
ATOM     34  C   UNL     1       0.731  -2.043   1.248  0.00  0.00    +0.110 C 
ATOM     35  C   UNL     1       0.742  -0.511   1.242  0.00  0.00    +0.020 C 
ENDBRANCH  26  33
ENDBRANCH   1  26
TORSDOF 5
