REMARK  Name = ZINC07069351
REMARK  12 active torsions:
REMARK  status: ('A' for Active; 'I' for Inactive)
REMARK    1  A    between atoms: C_1  and  C_2
REMARK    2  A    between atoms: C_3  and  C_11
REMARK    3  A    between atoms: C_4  and  C_10
REMARK    4  A    between atoms: C_6  and  S_8
REMARK    5  A    between atoms: S_8  and  C_9
REMARK    6  A    between atoms: C_11  and  C_12
REMARK    7  A    between atoms: C_12  and  C_13
REMARK    8  A    between atoms: N_15  and  C_16
REMARK    9  A    between atoms: N_15  and  C_17
REMARK   10  A    between atoms: C_17  and  C_19
REMARK   11  A    between atoms: C_17  and  C_20
REMARK   12  A    between atoms: C_24  and  N_26
REMARK                            x       y       z     vdW  Elec       q    Type
REMARK                         _______ _______ _______ _____ _____    ______ ____
ROOT
ATOM      1  C   UNL     1       4.161   3.888  -1.728  0.00  0.00    +0.216 C 
ATOM      2  O   UNL     1       3.896   5.044  -1.981  0.00  0.00    -0.276 OA
ATOM      3  N   UNL     1       3.442   3.219  -0.804  0.00  0.00    -0.298 N 
ATOM      4  C   UNL     1       3.762   1.822  -0.498  0.00  0.00    +0.132 C 
ENDROOT
BRANCH   3   5
ATOM      5  C   UNL     1       2.342   3.889  -0.106  0.00  0.00    +0.103 C 
ATOM      6  C   UNL     1       2.546   3.762   1.405  0.00  0.00    +0.033 C 
BRANCH   5   7
ATOM      7  C   UNL     1       1.036   3.245  -0.492  0.00  0.00    -0.025 A 
ATOM      8  C   UNL     1       0.863   1.882  -0.334  0.00  0.00    +0.005 A 
ATOM      9  C   UNL     1      -0.336   1.292  -0.687  0.00  0.00    +0.003 A 
ATOM     10  C   UNL     1      -1.360   2.063  -1.205  0.00  0.00    +0.033 A 
ATOM     11  C   UNL     1      -1.188   3.425  -1.360  0.00  0.00    +0.127 A 
ATOM     12  C   UNL     1       0.010   4.016  -1.005  0.00  0.00    +0.038 A 
BRANCH  11  13
ATOM     13  N   UNL     1      -2.287   4.252  -1.910  0.00  0.00    +0.056 N 
ATOM     14  O   UNL     1      -2.135   5.452  -2.049  0.00  0.00    -0.126 OA
ATOM     15  O   UNL     1      -3.342   3.731  -2.222  0.00  0.00    -0.126 OA
ENDBRANCH  11  13
ENDBRANCH   5   7
ENDBRANCH   3   5
BRANCH   1  16
ATOM     16  C   UNL     1       5.292   3.199  -2.446  0.00  0.00    +0.101 C 
BRANCH  16  17
ATOM     17  C   UNL     1       5.937   4.173  -3.434  0.00  0.00    +0.048 C 
BRANCH  17  20
ATOM     18  C   UNL     1       5.460   2.738  -5.930  0.00  0.00    +0.066 C 
ATOM     19  C   UNL     1       6.844   2.802  -5.338  0.00  0.00    +0.046 A 
ATOM     20  C   UNL     1       7.069   3.484  -4.152  0.00  0.00    -0.005 A 
ATOM     21  C   UNL     1       8.358   3.524  -3.645  0.00  0.00    +0.046 A 
ATOM     22  N   UNL     1       9.328   2.904  -4.296  0.00  0.00    -0.227 NA
ATOM     23  C   UNL     1       9.079   2.260  -5.428  0.00  0.00    +0.188 A 
ATOM     24  N   UNL     1       7.859   2.208  -5.943  0.00  0.00    -0.227 NA
ATOM     25  C   UNL     1       8.651   4.259  -2.362  0.00  0.00    +0.066 C 
BRANCH  23  26
ATOM     26  S   UNL     1      10.402   1.454  -6.268  0.00  0.00    -0.089 S 
ATOM     27  C   UNL     1      11.770   1.847  -5.150  0.00  0.00    +0.093 C 
ENDBRANCH  23  26
ENDBRANCH  17  20
ENDBRANCH  16  17
ENDBRANCH   1  16
TORSDOF 7
