REMARK  Name = ZINC06173117
REMARK  7 active torsions:
REMARK  status: ('A' for Active; 'I' for Inactive)
REMARK    1  A    between atoms: C_5  and  C_7
REMARK    2  A    between atoms: C_7  and  N_8
REMARK    3  A    between atoms: C_13  and  C_15
REMARK    4  A    between atoms: N_18  and  S_21
REMARK    5  A    between atoms: S_21  and  C_24
REMARK    6  A    between atoms: C_27  and  O_30
REMARK    7  A    between atoms: O_30  and  C_31
REMARK                            x       y       z     vdW  Elec       q    Type
REMARK                         _______ _______ _______ _____ _____    ______ ____
ROOT
ATOM      1  C   UNL     1       1.179   4.065   4.412  0.00  0.00    +0.058 C 
ATOM      2  C   UNL     1       2.426   3.737   3.588  0.00  0.00    +0.028 C 
ATOM      3  C   UNL     1       2.415   4.566   2.300  0.00  0.00    +0.110 C 
ATOM      4  N   UNL     1       1.147   4.329   1.597  0.00  0.00    -0.177 NA
ATOM      5  C   UNL     1      -0.113   4.532   2.324  0.00  0.00    +0.110 C 
ATOM      6  C   UNL     1      -0.073   3.699   3.613  0.00  0.00    +0.028 C 
ENDROOT
BRANCH   1  12
ATOM      7  N   UNL     1       1.252   3.634   9.312  0.00  0.00    -0.224 N 
ATOM      8  C   UNL     1       1.238   3.269   7.994  0.00  0.00    +0.164 A 
ATOM      9  C   UNL     1       1.261   1.863   7.980  0.00  0.00    +0.195 A 
ATOM     10  C   UNL     1       1.246   1.215   6.731  0.00  0.00    +0.303 A 
ATOM     11  N   UNL     1       1.219   1.957   5.633  0.00  0.00    -0.194 NA
ATOM     12  C   UNL     1       1.204   3.277   5.697  0.00  0.00    +0.116 A 
ATOM     13  N   UNL     1       1.210   3.928   6.840  0.00  0.00    -0.326 N 
ATOM     14  O   UNL     1       1.267  -0.137   6.652  0.00  0.00    -0.263 OA
ATOM     15  N   UNL     1       1.286   1.439   9.255  0.00  0.00    -0.122 NA
ATOM     16  N   UNL     1       1.282   2.446  10.057  0.00  0.00    -0.063 NA
ATOM     17  H   UNL     1       1.194   4.928   6.840  0.00  0.00    +0.169 HD
BRANCH   7  18
ATOM     18  C   UNL     1       1.237   5.000   9.841  0.00  0.00    +0.184 C 
BRANCH  18  23
ATOM     19  C   UNL     1      -2.059   5.816  11.492  0.00  0.00    +0.000 A 
ATOM     20  C   UNL     1      -2.804   6.263  10.416  0.00  0.00    +0.001 A 
ATOM     21  C   UNL     1      -2.241   6.302   9.154  0.00  0.00    +0.020 A 
ATOM     22  C   UNL     1      -0.931   5.898   8.968  0.00  0.00    +0.046 A 
ATOM     23  C   UNL     1      -0.188   5.446  10.044  0.00  0.00    -0.008 A 
ATOM     24  C   UNL     1      -0.751   5.407  11.306  0.00  0.00    +0.007 A 
ATOM     25 CL   UNL     1      -0.222   5.953   7.385  0.00  0.00    -0.083 Cl
ENDBRANCH  18  23
ENDBRANCH   7  18
ENDBRANCH   1  12
BRANCH   4  26
ATOM     26  S   UNL     1       1.139   3.848   0.012  0.00  0.00    +0.061 S 
ATOM     27  O   UNL     1       2.372   4.276  -0.549  0.00  0.00    -0.153 OA
ATOM     28  O   UNL     1      -0.118   4.237  -0.524  0.00  0.00    -0.153 OA
BRANCH  26  29
ATOM     29  C   UNL     1       1.166   2.086   0.002  0.00  0.00    +0.106 A 
ATOM     30  C   UNL     1      -0.021   1.377   0.010  0.00  0.00    +0.032 A 
ATOM     31  C   UNL     1      -0.003  -0.004   0.003  0.00  0.00    +0.048 A 
ATOM     32  C   UNL     1       1.209  -0.680  -0.013  0.00  0.00    +0.130 A 
ATOM     33  C   UNL     1       2.398   0.033  -0.021  0.00  0.00    +0.048 A 
ATOM     34  C   UNL     1       2.374   1.414  -0.014  0.00  0.00    +0.032 A 
BRANCH  32  35
ATOM     35  O   UNL     1       1.230  -2.039  -0.020  0.00  0.00    -0.406 OA
BRANCH  35  36
ATOM     36  C   UNL     1       2.513  -2.668  -0.037  0.00  0.00    +0.575 C 
ATOM     37  F   UNL     1       3.234  -2.287   1.100  0.00  0.00    -0.133 F 
ATOM     38  F   UNL     1       2.351  -4.058  -0.042  0.00  0.00    -0.133 F 
ATOM     39  F   UNL     1       3.210  -2.275  -1.184  0.00  0.00    -0.133 F 
ENDBRANCH  35  36
ENDBRANCH  32  35
ENDBRANCH  26  29
ENDBRANCH   4  26
TORSDOF 7
