REMARK  Name = ZINC05371037
REMARK  3 active torsions:
REMARK  status: ('A' for Active; 'I' for Inactive)
REMARK    1  A    between atoms: C_5  and  C_7
REMARK    2  A    between atoms: C_12  and  N_14
REMARK    3  A    between atoms: N_14  and  C_15
REMARK                            x       y       z     vdW  Elec       q    Type
REMARK                         _______ _______ _______ _____ _____    ______ ____
ROOT
ATOM      1  C   UNL     1       1.249  -2.161  -0.121  0.00  0.00    +0.031 C 
ATOM      2  C   UNL     1       0.096  -2.860   0.029  0.00  0.00    +0.080 C 
ATOM      3  C   UNL     1      -1.298  -2.374   0.166  0.00  0.00    +0.276 C 
ATOM      4  O   UNL     1      -1.569  -1.184   0.155  0.00  0.00    -0.267 OA
ATOM      5  N   UNL     1      -2.225  -3.296   0.298  0.00  0.00    -0.152 NA
ATOM      6  C   UNL     1      -1.945  -4.590   0.311  0.00  0.00    +0.175 C 
ATOM      7  S   UNL     1      -0.170  -4.627   0.110  0.00  0.00    -0.050 S 
ENDROOT
BRANCH   1  12
ATOM      8  C   UNL     1       0.422   1.300   1.057  0.00  0.00    +0.001 A 
ATOM      9  C   UNL     1       1.227   2.066   0.229  0.00  0.00    +0.003 A 
ATOM     10  C   UNL     1       2.040   1.460  -0.712  0.00  0.00    +0.039 A 
ATOM     11  C   UNL     1       2.054   0.084  -0.833  0.00  0.00    +0.131 A 
ATOM     12  C   UNL     1       1.242  -0.697   0.001  0.00  0.00    +0.011 A 
ATOM     13  C   UNL     1       0.423  -0.073   0.950  0.00  0.00    +0.011 A 
ATOM     14  F   UNL     1       2.848  -0.507  -1.753  0.00  0.00    -0.205 F 
ENDBRANCH   1  12
BRANCH   6  15
ATOM     15  N   UNL     1      -2.808  -5.646   0.441  0.00  0.00    -0.190 NA
BRANCH  15  16
ATOM     16  C   UNL     1      -4.189  -5.432   0.386  0.00  0.00    +0.074 A 
ATOM     17  C   UNL     1      -4.695  -4.327  -0.286  0.00  0.00    +0.026 A 
ATOM     18  C   UNL     1      -6.059  -4.118  -0.339  0.00  0.00    +0.002 A 
ATOM     19  C   UNL     1      -6.921  -5.007   0.277  0.00  0.00    +0.002 A 
ATOM     20  C   UNL     1      -6.421  -6.107   0.948  0.00  0.00    +0.022 A 
ATOM     21  C   UNL     1      -5.058  -6.326   1.000  0.00  0.00    +0.064 A 
ATOM     22 CL   UNL     1      -4.431  -7.713   1.835  0.00  0.00    -0.082 Cl
ENDBRANCH  15  16
ENDBRANCH   6  15
TORSDOF 3
