REMARK  Name = ZINC11286544
REMARK  8 active torsions:
REMARK  status: ('A' for Active; 'I' for Inactive)
REMARK    1  A    between atoms: C_1  and  C_2
REMARK    2  A    between atoms: N_16  and  C_17
REMARK    3  A    between atoms: C_17  and  C_18
REMARK    4  A    between atoms: N_20  and  C_21
REMARK    5  A    between atoms: N_20  and  C_26
REMARK    6  A    between atoms: C_21  and  C_22
REMARK    7  A    between atoms: C_22  and  C_23
REMARK    8  A    between atoms: C_26  and  C_27
REMARK                            x       y       z     vdW  Elec       q    Type
REMARK                         _______ _______ _______ _____ _____    ______ ____
ROOT
ATOM      1  C   UNL     1      -0.127   1.425  -0.047  0.00  0.00    -0.008 C 
ATOM      2  C   UNL     1      -0.045  -0.102   0.002  0.00  0.00    -0.040 C 
ATOM      3  C   UNL     1       0.531  -0.610  -1.293  0.00  0.00    -0.054 A 
ATOM      4  C   UNL     1       0.126  -0.015  -2.478  0.00  0.00    +0.051 A 
ATOM      5  C   UNL     1       0.629  -0.454  -3.691  0.00  0.00    +0.162 A 
ATOM      6  C   UNL     1       1.547  -1.497  -3.720  0.00  0.00    +0.162 A 
ATOM      7  C   UNL     1       1.949  -2.089  -2.534  0.00  0.00    +0.053 A 
ATOM      8  C   UNL     1       1.442  -1.646  -1.322  0.00  0.00    -0.038 A 
ATOM      9  C   UNL     1       1.908  -2.311  -0.054  0.00  0.00    -0.019 C 
ATOM     10  C   UNL     1       3.341  -1.854   0.276  0.00  0.00    +0.010 C 
ATOM     11  C   UNL     1       4.021  -3.124   0.846  0.00  0.00    +0.001 C 
ATOM     12  C   UNL     1       3.429  -4.253  -0.032  0.00  0.00    +0.001 C 
ATOM     13  C   UNL     1       1.960  -3.833  -0.249  0.00  0.00    +0.010 C 
ATOM     14  C   UNL     1       0.976  -1.964   1.104  0.00  0.00    -0.066 C 
ATOM     15  N   UNL     1       0.792  -0.504   1.136  0.00  0.00    +0.390 N 
ATOM     16  O   UNL     1       2.060  -1.942  -4.899  0.00  0.00    -0.485 OA
ATOM     17  C   UNL     1       1.351  -1.575  -6.088  0.00  0.00    +0.270 C 
ATOM     18  C   UNL     1       1.021  -0.078  -6.006  0.00  0.00    +0.270 C 
ATOM     19  O   UNL     1       0.215   0.141  -4.844  0.00  0.00    -0.485 OA
ATOM     20  H   UNL     1       1.690  -0.049   1.070  0.00  0.00    -0.080 HD
ENDROOT
BRANCH  15  21
ATOM     21  C   UNL     1       0.135  -0.120   2.392  0.00  0.00    +0.020 C 
BRANCH  21  22
ATOM     22  C   UNL     1       1.065  -0.389   3.547  0.00  0.00    +0.199 C 
ATOM     23  O   UNL     1       2.203  -0.751   3.338  0.00  0.00    -0.278 OA
ATOM     24  N   UNL     1       0.632  -0.227   4.813  0.00  0.00    -0.298 N 
BRANCH  24  25
ATOM     25  C   UNL     1      -0.743   0.211   5.066  0.00  0.00    +0.117 C 
BRANCH  25  26
ATOM     26  C   UNL     1      -1.655  -1.013   5.182  0.00  0.00    +0.114 C 
BRANCH  26  27
ATOM     27  C   UNL     1      -3.069  -0.562   5.443  0.00  0.00    +0.212 C 
ATOM     28  O   UNL     1      -3.323   0.621   5.527  0.00  0.00    -0.276 OA
ATOM     29  N   UNL     1      -4.052  -1.474   5.582  0.00  0.00    -0.329 N 
ATOM     30  H   UNL     1      -3.849  -2.420   5.514  0.00  0.00    +0.145 HD
ATOM     31  H   UNL     1      -4.962  -1.184   5.749  0.00  0.00    +0.145 HD
ENDBRANCH  26  27
ENDBRANCH  25  26
ENDBRANCH  24  25
BRANCH  24  32
ATOM     32  C   UNL     1       1.535  -0.488   5.936  0.00  0.00    +0.142 C 
BRANCH  32  33
ATOM     33  C   UNL     1       2.272   0.777   6.294  0.00  0.00    -0.030 A 
ATOM     34  C   UNL     1       3.478   1.071   5.685  0.00  0.00    +0.005 A 
ATOM     35  C   UNL     1       4.153   2.231   6.013  0.00  0.00    +0.000 A 
ATOM     36  C   UNL     1       3.622   3.099   6.949  0.00  0.00    +0.000 A 
ATOM     37  C   UNL     1       2.416   2.806   7.557  0.00  0.00    +0.000 A 
ATOM     38  C   UNL     1       1.738   1.647   7.226  0.00  0.00    +0.005 A 
ENDBRANCH  32  33
ENDBRANCH  24  32
ENDBRANCH  21  22
ENDBRANCH  15  21
TORSDOF 7
