REMARK  Name = ZINC21675156
REMARK  9 active torsions:
REMARK  status: ('A' for Active; 'I' for Inactive)
REMARK    1  A    between atoms: C_1  and  S_2
REMARK    2  A    between atoms: S_2  and  C_3
REMARK    3  A    between atoms: C_3  and  C_4
REMARK    4  A    between atoms: C_4  and  C_5
REMARK    5  A    between atoms: C_5  and  C_7
REMARK    6  A    between atoms: C_5  and  N_24
REMARK    7  A    between atoms: N_9  and  C_10
REMARK    8  A    between atoms: C_13  and  N_16
REMARK    9  A    between atoms: N_17  and  C_18
REMARK                            x       y       z     vdW  Elec       q    Type
REMARK                         _______ _______ _______ _____ _____    ______ ____
ROOT
ATOM      1  C   UNL     1      -3.482  -3.879   0.140  0.00  0.00    +0.238 C 
ATOM      2  O   UNL     1      -4.052  -4.510  -0.726  0.00  0.00    -0.273 OA
ATOM      3  N   UNL     1      -2.966  -4.516   1.209  0.00  0.00    -0.284 N 
ATOM      4  H   UNL     1      -2.453  -4.022   1.868  0.00  0.00    +0.155 HD
ENDROOT
BRANCH   3   5
ATOM      5  C   UNL     1      -3.171  -5.888   1.370  0.00  0.00    +0.034 A 
ATOM      6  C   UNL     1      -3.205  -6.719   0.255  0.00  0.00    +0.025 A 
ATOM      7  C   UNL     1      -3.406  -8.072   0.410  0.00  0.00    +0.031 A 
ATOM      8  C   UNL     1      -3.577  -8.611   1.690  0.00  0.00    +0.086 A 
ATOM      9  C   UNL     1      -3.542  -7.771   2.808  0.00  0.00    +0.031 A 
ATOM     10  C   UNL     1      -3.335  -6.420   2.645  0.00  0.00    +0.025 A 
BRANCH   8  11
ATOM     11  N   UNL     1      -3.778  -9.952   1.847  0.00  0.00    -0.149 NA
ATOM     12  N   UNL     1      -3.935 -10.446   3.028  0.00  0.00    -0.149 NA
BRANCH  12  13
ATOM     13  C   UNL     1      -4.136 -11.789   3.185  0.00  0.00    +0.086 A 
ATOM     14  C   UNL     1      -4.165 -12.630   2.069  0.00  0.00    +0.029 A 
ATOM     15  C   UNL     1      -4.369 -13.984   2.236  0.00  0.00    +0.002 A 
ATOM     16  C   UNL     1      -4.543 -14.510   3.504  0.00  0.00    +0.000 A 
ATOM     17  C   UNL     1      -4.515 -13.684   4.614  0.00  0.00    +0.002 A 
ATOM     18  C   UNL     1      -4.306 -12.329   4.463  0.00  0.00    +0.029 A 
ENDBRANCH  12  13
ENDBRANCH   8  11
ENDBRANCH   3   5
BRANCH   1  19
ATOM     19  C   UNL     1      -3.350  -2.383   0.018  0.00  0.00    +0.171 C 
BRANCH  19  20
ATOM     20  N   UNL     1      -3.987  -1.935  -1.223  0.00  0.00    -0.230 N 
ATOM     21  C   UNL     1      -3.603  -2.363  -2.456  0.00  0.00    +0.226 C 
ATOM     22  O   UNL     1      -2.868  -3.294  -2.709  0.00  0.00    -0.275 OA
ATOM     23  C   UNL     1      -4.270  -1.451  -3.436  0.00  0.00    +0.087 C 
ATOM     24  C   UNL     1      -4.706  -1.995  -4.779  0.00  0.00    +0.013 C 
ATOM     25  C   UNL     1      -5.386  -0.823  -5.516  0.00  0.00    +0.001 C 
ATOM     26  C   UNL     1      -6.557  -0.255  -4.722  0.00  0.00    +0.001 C 
ATOM     27  C   UNL     1      -6.154   0.120  -3.284  0.00  0.00    +0.013 C 
ATOM     28  C   UNL     1      -5.568  -1.109  -2.646  0.00  0.00    +0.087 C 
ATOM     29  C   UNL     1      -5.025  -1.056  -1.255  0.00  0.00    +0.226 C 
ATOM     30  O   UNL     1      -5.426  -0.367  -0.342  0.00  0.00    -0.275 OA
ENDBRANCH  19  20
BRANCH  19  31
ATOM     31  C   UNL     1      -1.869  -2.001  -0.003  0.00  0.00    +0.043 C 
BRANCH  31  32
ATOM     32  C   UNL     1      -1.735  -0.477   0.000  0.00  0.00    +0.071 C 
BRANCH  32  34
ATOM     33  C   UNL     1       0.008   1.790  -0.019  0.00  0.00    +0.084 C 
ATOM     34  S   UNL     1       0.022  -0.024  -0.025  0.00  0.00    -0.164 S 
ENDBRANCH  32  34
ENDBRANCH  31  32
ENDBRANCH  19  31
ENDBRANCH   1  19
TORSDOF 8
