REMARK  Name = ZINC09892494
REMARK  10 active torsions:
REMARK  status: ('A' for Active; 'I' for Inactive)
REMARK    1  A    between atoms: C_1  and  C_2
REMARK    2  A    between atoms: C_2  and  O_3
REMARK    3  A    between atoms: O_3  and  C_4
REMARK    4  A    between atoms: C_8  and  C_10
REMARK    5  A    between atoms: N_15  and  C_18
REMARK    6  A    between atoms: C_21  and  N_38
REMARK    7  A    between atoms: C_22  and  N_24
REMARK    8  A    between atoms: N_24  and  C_25
REMARK    9  A    between atoms: C_25  and  C_27
REMARK   10  A    between atoms: C_25  and  C_28
REMARK                            x       y       z     vdW  Elec       q    Type
REMARK                         _______ _______ _______ _____ _____    ______ ____
ROOT
ATOM      1  C   UNL     1       4.281   8.048  -1.521  0.00  0.00    +0.032 A 
ATOM      2  C   UNL     1       3.908   9.070  -2.386  0.00  0.00    +0.025 A 
ATOM      3  C   UNL     1       4.847   9.656  -3.211  0.00  0.00    +0.036 A 
ATOM      4  C   UNL     1       6.161   9.229  -3.180  0.00  0.00    +0.147 A 
ATOM      5  C   UNL     1       6.541   8.208  -2.318  0.00  0.00    +0.060 A 
ATOM      6  C   UNL     1       5.600   7.620  -1.484  0.00  0.00    +0.048 A 
ENDROOT
BRANCH   1  12
ATOM      7  C   UNL     1      -0.079   5.338   0.014  0.00  0.00    +0.247 C 
ATOM      8  O   UNL     1      -1.141   5.913  -0.128  0.00  0.00    -0.270 OA
ATOM      9  N   UNL     1       1.063   6.047   0.113  0.00  0.00    -0.295 N 
ATOM     10  C   UNL     1       2.368   5.372   0.172  0.00  0.00    +0.127 C 
ATOM     11  C   UNL     1       3.286   6.002  -0.887  0.00  0.00    +0.124 C 
ATOM     12  N   UNL     1       3.330   7.456  -0.686  0.00  0.00    -0.327 N 
ATOM     13  C   UNL     1       2.007   8.062  -0.883  0.00  0.00    +0.124 C 
ATOM     14  C   UNL     1       1.037   7.517   0.170  0.00  0.00    +0.127 C 
BRANCH   7  19
ATOM     15  C   UNL     1      -0.913   1.723  -0.593  0.00  0.00    +0.121 A 
ATOM     16  C   UNL     1       0.037   1.093   0.200  0.00  0.00    +0.046 A 
ATOM     17  C   UNL     1       0.947   1.841   0.924  0.00  0.00    +0.004 A 
ATOM     18  C   UNL     1       0.914   3.219   0.867  0.00  0.00    +0.013 A 
ATOM     19  C   UNL     1      -0.041   3.862   0.077  0.00  0.00    +0.040 A 
ATOM     20  C   UNL     1      -0.959   3.106  -0.652  0.00  0.00    +0.058 A 
BRANCH  15  21
ATOM     21  O   UNL     1      -1.802   0.982  -1.306  0.00  0.00    -0.492 OA
BRANCH  21  23
ATOM     22  C   UNL     1      -2.774  -1.097  -2.062  0.00  0.00    +0.048 C 
ATOM     23  C   UNL     1      -1.700  -0.439  -1.194  0.00  0.00    +0.225 C 
ENDBRANCH  21  23
ENDBRANCH  15  21
ENDBRANCH   7  19
ENDBRANCH   1  12
BRANCH   4  24
ATOM     24  N   UNL     1       7.164   9.860  -4.067  0.00  0.00    +0.058 N 
ATOM     25  O   UNL     1       7.119  11.057  -4.282  0.00  0.00    -0.126 OA
ATOM     26  O   UNL     1       8.035   9.181  -4.581  0.00  0.00    -0.126 OA
ENDBRANCH   4  24
BRANCH   5  27
ATOM     27  N   UNL     1       7.869   7.777  -2.287  0.00  0.00    -0.339 N 
ATOM     28  H   UNL     1       8.512   8.142  -2.914  0.00  0.00    +0.146 HD
BRANCH  27  29
ATOM     29  C   UNL     1       8.291   6.775  -1.306  0.00  0.00    +0.074 C 
ATOM     30  C   UNL     1       8.004   5.375  -1.852  0.00  0.00    +0.028 C 
BRANCH  29  31
ATOM     31  C   UNL     1       9.791   6.920  -1.040  0.00  0.00    -0.010 C 
ATOM     32  C   UNL     1      10.079   8.320  -0.494  0.00  0.00    +0.012 C 
ATOM     33  C   UNL     1      11.578   8.466  -0.229  0.00  0.00    -0.010 C 
ATOM     34  C   UNL     1      12.019   7.419   0.796  0.00  0.00    +0.007 C 
ATOM     35  C   UNL     1      11.731   6.019   0.250  0.00  0.00    -0.010 C 
ATOM     36  C   UNL     1      10.232   5.873  -0.016  0.00  0.00    +0.012 C 
ATOM     37  C   UNL     1      12.503   5.812  -1.055  0.00  0.00    +0.007 C 
ATOM     38  C   UNL     1      12.062   6.859  -2.080  0.00  0.00    -0.010 C 
ATOM     39  C   UNL     1      12.350   8.259  -1.534  0.00  0.00    +0.007 C 
ATOM     40  C   UNL     1      10.562   6.713  -2.345  0.00  0.00    +0.012 C 
ENDBRANCH  29  31
ENDBRANCH  27  29
ENDBRANCH   5  27
TORSDOF 8
