REMARK  Name = ZINC05640882
REMARK  5 active torsions:
REMARK  status: ('A' for Active; 'I' for Inactive)
REMARK    1  A    between atoms: C_1  and  C_2
REMARK    2  A    between atoms: C_8  and  S_12
REMARK    3  A    between atoms: C_9  and  C_10
REMARK    4  A    between atoms: S_12  and  C_13
REMARK    5  A    between atoms: C_13  and  C_14
REMARK                            x       y       z     vdW  Elec       q    Type
REMARK                         _______ _______ _______ _____ _____    ______ ____
ROOT
ATOM      1  S   UNL     1       2.961   4.250  -1.710  0.00  0.00    -0.102 S 
ENDROOT
BRANCH   1   9
ATOM      2  C   UNL     1       7.244   6.801  -3.423  0.00  0.00    +0.045 C 
ATOM      3  C   UNL     1       6.411   6.296  -2.273  0.00  0.00    -0.025 A 
ATOM      4  C   UNL     1       6.807   6.516  -0.987  0.00  0.00    +0.074 A 
ATOM      5  C   UNL     1       6.024   6.041   0.076  0.00  0.00    +0.250 A 
ATOM      6  O   UNL     1       6.383   6.240   1.225  0.00  0.00    -0.268 OA
ATOM      7  N   UNL     1       4.880   5.373  -0.157  0.00  0.00    -0.316 N 
ATOM      8  H   UNL     1       4.331   5.050   0.614  0.00  0.00    +0.169 HD
ATOM      9  C   UNL     1       4.460   5.133  -1.429  0.00  0.00    +0.094 A 
ATOM     10  C   UNL     1       5.214   5.592  -2.514  0.00  0.00    +0.085 A 
BRANCH  10  11
ATOM     11  C   UNL     1       4.776   5.347  -3.855  0.00  0.00    +0.102 C 
ATOM     12  N   UNL     1       4.428   5.154  -4.919  0.00  0.00    -0.191 NA
ENDBRANCH  10  11
ENDBRANCH   1   9
BRANCH   1  13
ATOM     13  C   UNL     1       2.458   3.934   0.000  0.00  0.00    +0.112 C 
BRANCH  13  14
ATOM     14  C   UNL     1       1.161   3.167   0.008  0.00  0.00    -0.015 A 
ATOM     15  C   UNL     1      -0.043   3.847   0.024  0.00  0.00    +0.055 A 
ATOM     16  C   UNL     1      -1.237   3.145   0.031  0.00  0.00    +0.167 A 
ATOM     17  C   UNL     1      -1.221   1.752   0.017  0.00  0.00    +0.168 A 
ATOM     18  C   UNL     1      -0.013   1.076   0.008  0.00  0.00    +0.069 A 
ATOM     19  C   UNL     1       1.176   1.784   0.000  0.00  0.00    +0.049 A 
ATOM     20 CL   UNL     1       2.690   0.934  -0.019  0.00  0.00    -0.083 Cl
ATOM     21  O   UNL     1      -2.510   1.301   0.033  0.00  0.00    -0.453 OA
ATOM     22  C   UNL     1      -3.306   2.423   0.459  0.00  0.00    +0.466 C 
ATOM     23  O   UNL     1      -2.535   3.567   0.046  0.00  0.00    -0.453 OA
ENDBRANCH  13  14
ENDBRANCH   1  13
TORSDOF 4
