REMARK  Name = ZINC39659890
REMARK  6 active torsions:
REMARK  status: ('A' for Active; 'I' for Inactive)
REMARK    1  A    between atoms: C_1  and  C_2
REMARK    2  A    between atoms: C_2  and  N_3
REMARK    3  A    between atoms: C_4  and  C_10
REMARK    4  A    between atoms: C_6  and  C_8
REMARK    5  A    between atoms: C_14  and  C_23
REMARK    6  A    between atoms: N_25  and  C_26
REMARK                            x       y       z     vdW  Elec       q    Type
REMARK                         _______ _______ _______ _____ _____    ______ ____
ROOT
ATOM      1  C   UNL     1       3.177  -0.570  -0.162  0.00  0.00    +0.266 C 
ATOM      2  O   UNL     1       4.352  -0.879  -0.097  0.00  0.00    -0.268 OA
ATOM      3  N   UNL     1       2.666  -0.105  -1.319  0.00  0.00    -0.295 N 
ATOM      4  C   UNL     1       1.257   0.249  -1.612  0.00  0.00    +0.121 C 
ATOM      5  C   UNL     1       1.348   1.521  -2.485  0.00  0.00    +0.100 C 
ATOM      6  C   UNL     1       2.746   1.460  -3.123  0.00  0.00    -0.004 C 
ATOM      7  C   UNL     1       3.387   0.173  -2.585  0.00  0.00    +0.115 C 
ATOM      8  C   UNL     1       3.573   2.671  -2.700  0.00  0.00    -0.010 C 
ATOM      9  C   UNL     1       4.938   2.617  -3.392  0.00  0.00    -0.082 C 
ATOM     10  N   UNL     1       4.750   2.612  -4.848  0.00  0.00    +0.379 N 
ATOM     11  C   UNL     1       4.034   1.397  -5.256  0.00  0.00    -0.082 C 
ATOM     12  C   UNL     1       2.631   1.399  -4.643  0.00  0.00    -0.010 C 
ATOM     13  H   UNL     1       4.216   3.423  -5.120  0.00  0.00    -0.086 HD
ATOM     14  H   UNL     1       5.651   2.638  -5.302  0.00  0.00    -0.086 HD
ENDROOT
BRANCH   1  16
ATOM     15  N   UNL     1       1.559  -1.786   1.370  0.00  0.00    -0.258 N 
ATOM     16  C   UNL     1       2.316  -0.701   1.022  0.00  0.00    +0.138 A 
ATOM     17  C   UNL     1       2.108   0.248   2.010  0.00  0.00    +0.071 A 
ATOM     18  C   UNL     1       1.217  -0.344   2.909  0.00  0.00    +0.075 A 
ATOM     19  N   UNL     1       0.933  -1.541   2.465  0.00  0.00    -0.175 NA
ATOM     20  C   UNL     1       0.674   0.287   4.166  0.00  0.00    +0.069 C 
ATOM     21 BR   UNL     1       2.868   1.976   2.117  0.00  0.00    -0.046 Br
BRANCH  15  23
ATOM     22  C   UNL     1       0.386  -2.901  -0.463  0.00  0.00    +0.029 C 
ATOM     23  C   UNL     1       1.471  -3.033   0.608  0.00  0.00    +0.141 C 
ENDBRANCH  15  23
ENDBRANCH   1  16
BRANCH   5  24
ATOM     24  C   UNL     1       1.212   2.755  -1.631  0.00  0.00    +0.218 C 
ATOM     25  O   UNL     1       1.656   2.763  -0.502  0.00  0.00    -0.275 OA
ATOM     26  N   UNL     1       0.596   3.849  -2.120  0.00  0.00    -0.312 N 
ATOM     27  H   UNL     1       0.178   3.820  -2.995  0.00  0.00    +0.149 HD
BRANCH  26  28
ATOM     28  C   UNL     1       0.558   5.083  -1.331  0.00  0.00    +0.073 C 
ATOM     29  C   UNL     1       1.800   5.923  -1.639  0.00  0.00    +0.022 C 
ATOM     30  C   UNL     1       1.582   7.354  -1.144  0.00  0.00    +0.002 C 
ATOM     31  C   UNL     1       1.732   7.396   0.378  0.00  0.00    +0.000 C 
ATOM     32  C   UNL     1       0.479   6.809   1.030  0.00  0.00    +0.000 C 
ATOM     33  C   UNL     1      -0.765   7.352   0.327  0.00  0.00    +0.000 C 
ATOM     34  C   UNL     1      -1.472   6.213  -0.412  0.00  0.00    +0.002 C 
ATOM     35  C   UNL     1      -0.698   5.879  -1.690  0.00  0.00    +0.022 C 
ENDBRANCH  26  28
ENDBRANCH   5  24
TORSDOF 4
