REMARK  Name = ZINC00815906
REMARK  9 active torsions:
REMARK  status: ('A' for Active; 'I' for Inactive)
REMARK    1  A    between atoms: C_1  and  C_2
REMARK    2  A    between atoms: C_2  and  O_3
REMARK    3  A    between atoms: O_3  and  C_4
REMARK    4  A    between atoms: C_6  and  C_11
REMARK    5  A    between atoms: C_9  and  O_10
REMARK    6  A    between atoms: C_16  and  C_26
REMARK    7  A    between atoms: C_18  and  C_22
REMARK    8  A    between atoms: C_22  and  O_24
REMARK    9  A    between atoms: O_24  and  C_25
REMARK                            x       y       z     vdW  Elec       q    Type
REMARK                         _______ _______ _______ _____ _____    ______ ____
ROOT
ATOM      1  C   UNL     1      -1.935   0.217   6.099  0.00  0.00    +0.136 C 
ATOM      2  C   UNL     1      -2.822   0.742   4.995  0.00  0.00    +0.037 C 
ATOM      3  C   UNL     1      -4.157   0.884   5.056  0.00  0.00    +0.017 C 
ATOM      4  C   UNL     1      -4.929   1.428   3.865  0.00  0.00    +0.055 C 
ATOM      5  C   UNL     1      -4.241   1.016   2.565  0.00  0.00    +0.013 C 
ATOM      6  C   UNL     1      -2.819   1.591   2.587  0.00  0.00    +0.171 C 
ATOM      7  C   UNL     1      -2.121   1.088   3.816  0.00  0.00    +0.177 C 
ATOM      8  O   UNL     1      -0.911   0.974   3.797  0.00  0.00    -0.291 OA
ATOM      9  C   UNL     1      -4.182  -0.509   2.470  0.00  0.00    +0.009 C 
ATOM     10  N   UNL     1      -4.918   0.583   6.138  0.00  0.00    -0.316 N 
ATOM     11  C   UNL     1      -4.817  -0.588   6.881  0.00  0.00    +0.052 A 
ATOM     12  C   UNL     1      -5.863  -1.488   6.990  0.00  0.00    +0.025 A 
ATOM     13  C   UNL     1      -5.738  -2.575   7.838  0.00  0.00    +0.002 A 
ATOM     14  C   UNL     1      -4.577  -2.761   8.567  0.00  0.00    +0.002 A 
ATOM     15  C   UNL     1      -3.522  -1.874   8.442  0.00  0.00    +0.025 A 
ATOM     16  C   UNL     1      -3.638  -0.795   7.581  0.00  0.00    +0.049 A 
ATOM     17  N   UNL     1      -2.586   0.099   7.387  0.00  0.00    -0.331 N 
ATOM     18  H   UNL     1      -5.583   1.234   6.414  0.00  0.00    +0.152 HD
ATOM     19  H   UNL     1      -2.285   0.651   8.126  0.00  0.00    +0.147 HD
ENDROOT
BRANCH   1  22
ATOM     20  C   UNL     1       0.402  -2.589   5.132  0.00  0.00    +0.162 A 
ATOM     21  C   UNL     1      -0.070  -1.338   5.497  0.00  0.00    +0.055 A 
ATOM     22  C   UNL     1      -1.424  -1.142   5.697  0.00  0.00    -0.019 A 
ATOM     23  C   UNL     1      -2.311  -2.188   5.522  0.00  0.00    +0.009 A 
ATOM     24  C   UNL     1      -1.847  -3.437   5.152  0.00  0.00    +0.049 A 
ATOM     25  C   UNL     1      -0.490  -3.642   4.956  0.00  0.00    +0.158 A 
BRANCH  25  26
ATOM     26  O   UNL     1      -0.032  -4.870   4.593  0.00  0.00    -0.503 OA
ATOM     27  H   UNL     1       0.010  -5.007   3.636  0.00  0.00    +0.292 HD
ENDBRANCH  25  26
BRANCH  20  28
ATOM     28  O   UNL     1       1.734  -2.785   4.941  0.00  0.00    -0.489 OA
BRANCH  28  30
ATOM     29  C   UNL     1       4.042  -2.070   4.882  0.00  0.00    +0.048 C 
ATOM     30  C   UNL     1       2.591  -1.659   5.140  0.00  0.00    +0.226 C 
ENDBRANCH  28  30
ENDBRANCH  20  28
ENDBRANCH   1  22
BRANCH   6  31
ATOM     31  C   UNL     1      -2.071   1.139   1.360  0.00  0.00    +0.318 C 
ATOM     32  O   UNL     1      -2.616   0.429   0.547  0.00  0.00    -0.250 OA
BRANCH  31  33
ATOM     33  O   UNL     1      -0.799   1.524   1.169  0.00  0.00    -0.467 OA
ATOM     34  C   UNL     1      -0.141   1.050  -0.036  0.00  0.00    +0.280 C 
ENDBRANCH  31  33
ENDBRANCH   6  31
TORSDOF 6
