REMARK  Name = ZINC44882012
REMARK  9 active torsions:
REMARK  status: ('A' for Active; 'I' for Inactive)
REMARK    1  A    between atoms: C_1  and  C_2
REMARK    2  A    between atoms: C_3  and  C_22
REMARK    3  A    between atoms: C_8  and  S_10
REMARK    4  A    between atoms: S_10  and  C_11
REMARK    5  A    between atoms: C_11  and  C_12
REMARK    6  A    between atoms: C_12  and  C_14
REMARK    7  A    between atoms: C_12  and  N_21
REMARK    8  A    between atoms: C_14  and  C_15
REMARK    9  A    between atoms: C_22  and  C_23
REMARK                            x       y       z     vdW  Elec       q    Type
REMARK                         _______ _______ _______ _____ _____    ______ ____
ROOT
ATOM      1  C   UNL     1      -0.018   1.503   0.010  0.00  0.00    +0.066 C 
ATOM      2  C   UNL     1       0.002  -0.004   0.002  0.00  0.00    +0.050 A 
ATOM      3  C   UNL     1      -1.171  -0.701   0.004  0.00  0.00    +0.042 A 
ATOM      4  C   UNL     1      -1.128  -2.107  -0.004  0.00  0.00    +0.256 A 
ATOM      5  O   UNL     1      -2.158  -2.761  -0.004  0.00  0.00    -0.267 OA
ATOM      6  N   UNL     1       0.076  -2.718  -0.014  0.00  0.00    -0.302 N 
ATOM      7  H   UNL     1       0.130  -3.687  -0.020  0.00  0.00    +0.171 HD
ATOM      8  C   UNL     1       1.214  -1.970  -0.015  0.00  0.00    +0.169 A 
ATOM      9  N   UNL     1       1.164  -0.652  -0.013  0.00  0.00    -0.228 NA
ENDROOT
BRANCH   8  10
ATOM     10  S   UNL     1       2.781  -2.777  -0.027  0.00  0.00    -0.089 S 
BRANCH  10  11
ATOM     11  C   UNL     1       3.977  -1.414  -0.025  0.00  0.00    +0.061 C 
BRANCH  11  12
ATOM     12  C   UNL     1       5.397  -1.982  -0.035  0.00  0.00    -0.060 C 
BRANCH  12  13
ATOM     13  N   UNL     1       5.629  -2.700  -1.295  0.00  0.00    +0.381 N 
ATOM     14  H   UNL     1       6.566  -3.074  -1.302  0.00  0.00    -0.090 HD
ATOM     15  H   UNL     1       4.965  -3.455  -1.379  0.00  0.00    -0.090 HD
ATOM     16  H   UNL     1       5.516  -2.064  -2.071  0.00  0.00    -0.090 HD
ENDBRANCH  12  13
BRANCH  12  17
ATOM     17  C   UNL     1       6.405  -0.837   0.092  0.00  0.00    +0.020 C 
BRANCH  17  18
ATOM     18  C   UNL     1       7.797  -1.403   0.206  0.00  0.00    -0.049 A 
ATOM     19  C   UNL     1       8.322  -1.703   1.449  0.00  0.00    +0.003 A 
ATOM     20  C   UNL     1       9.598  -2.222   1.554  0.00  0.00    +0.000 A 
ATOM     21  C   UNL     1      10.350  -2.443   0.415  0.00  0.00    +0.000 A 
ATOM     22  C   UNL     1       9.825  -2.144  -0.829  0.00  0.00    +0.000 A 
ATOM     23  C   UNL     1       8.547  -1.629  -0.933  0.00  0.00    +0.003 A 
ENDBRANCH  17  18
ENDBRANCH  12  17
ENDBRANCH  11  12
ENDBRANCH  10  11
ENDBRANCH   8  10
BRANCH   3  24
ATOM     24  C   UNL     1      -2.493   0.023   0.015  0.00  0.00    +0.077 C 
BRANCH  24  25
ATOM     25  C   UNL     1      -3.000   0.165  -1.397  0.00  0.00    -0.043 A 
ATOM     26  C   UNL     1      -2.655   1.274  -2.147  0.00  0.00    +0.004 A 
ATOM     27  C   UNL     1      -3.120   1.403  -3.443  0.00  0.00    +0.000 A 
ATOM     28  C   UNL     1      -3.930   0.425  -3.988  0.00  0.00    +0.000 A 
ATOM     29  C   UNL     1      -4.274  -0.684  -3.237  0.00  0.00    +0.000 A 
ATOM     30  C   UNL     1      -3.806  -0.816  -1.944  0.00  0.00    +0.004 A 
ENDBRANCH  24  25
ENDBRANCH   3  24
TORSDOF 8
