REMARK  Name = ZINC10133664
REMARK  13 active torsions:
REMARK  status: ('A' for Active; 'I' for Inactive)
REMARK    1  A    between atoms: C_1  and  C_2
REMARK    2  A    between atoms: C_2  and  C_3
REMARK    3  A    between atoms: N_11  and  C_15
REMARK    4  A    between atoms: C_15  and  C_16
REMARK    5  A    between atoms: C_16  and  O_18
REMARK    6  A    between atoms: O_18  and  C_19
REMARK    7  A    between atoms: C_19  and  C_20
REMARK    8  A    between atoms: C_20  and  C_22
REMARK    9  A    between atoms: C_25  and  N_28
REMARK   10  A    between atoms: C_29  and  C_31
REMARK   11  A    between atoms: C_31  and  C_32
REMARK   12  A    between atoms: C_32  and  C_33
REMARK   13  A    between atoms: C_32  and  C_34
REMARK                            x       y       z     vdW  Elec       q    Type
REMARK                         _______ _______ _______ _____ _____    ______ ____
ROOT
ATOM      1  C   UNL     1      -6.803   6.669  -0.453  0.00  0.00    +0.326 C 
ATOM      2  O   UNL     1      -5.893   7.460  -0.532  0.00  0.00    -0.249 OA
ENDROOT
BRANCH   1   3
ATOM      3  C   UNL     1      -8.229   7.155  -0.486  0.00  0.00    +0.238 C 
BRANCH   3  12
ATOM      4  C   UNL     1      -8.306  12.055  -4.048  0.00  0.00    -0.011 C 
ATOM      5  C   UNL     1      -7.045  11.364  -3.524  0.00  0.00    +0.006 C 
ATOM      6  C   UNL     1      -7.028  11.427  -1.995  0.00  0.00    +0.035 C 
ATOM      7  C   UNL     1      -8.272  10.738  -1.443  0.00  0.00    +0.113 C 
ATOM      8  C   UNL     1      -9.537  11.403  -1.973  0.00  0.00    +0.035 C 
ATOM      9  C   UNL     1      -9.545  11.341  -3.503  0.00  0.00    +0.006 C 
ATOM     10  C   UNL     1      -8.260   9.269  -1.797  0.00  0.00    +0.247 C 
ATOM     11  O   UNL     1      -8.265   8.781  -2.907  0.00  0.00    -0.273 OA
ATOM     12  N   UNL     1      -8.244   8.614  -0.618  0.00  0.00    -0.213 N 
ATOM     13  C   UNL     1      -8.249   9.463   0.417  0.00  0.00    +0.310 C 
ATOM     14  O   UNL     1      -8.243   9.110   1.580  0.00  0.00    -0.252 OA
ATOM     15  N   UNL     1      -8.259  10.751   0.025  0.00  0.00    -0.285 N 
ATOM     16  H   UNL     1      -8.262  11.533   0.599  0.00  0.00    +0.151 HD
BRANCH   4  18
ATOM     17  C   UNL     1      -9.513  12.799  -6.105  0.00  0.00    +0.004 C 
ATOM     18  C   UNL     1      -8.319  12.002  -5.577  0.00  0.00    -0.000 C 
ENDBRANCH   4  18
ENDBRANCH   3  12
ENDBRANCH   1   3
BRANCH   1  19
ATOM     19  O   UNL     1      -6.544   5.357  -0.337  0.00  0.00    -0.455 OA
BRANCH  19  20
ATOM     20  C   UNL     1      -5.147   4.960  -0.312  0.00  0.00    +0.311 C 
BRANCH  20  21
ATOM     21  C   UNL     1      -5.053   3.462  -0.177  0.00  0.00    +0.200 C 
ATOM     22  O   UNL     1      -6.063   2.794  -0.109  0.00  0.00    -0.288 OA
BRANCH  21  23
ATOM     23  C   UNL     1      -3.737   2.811  -0.129  0.00  0.00    +0.021 A 
ATOM     24  C   UNL     1      -3.647   1.419  -0.004  0.00  0.00    +0.013 A 
ATOM     25  C   UNL     1      -2.417   0.815   0.041  0.00  0.00    +0.024 A 
ATOM     26  C   UNL     1      -1.259   1.584  -0.038  0.00  0.00    +0.033 A 
ATOM     27  C   UNL     1      -1.344   2.968  -0.157  0.00  0.00    +0.024 A 
ATOM     28  C   UNL     1      -2.570   3.580  -0.207  0.00  0.00    +0.013 A 
BRANCH  26  29
ATOM     29  N   UNL     1      -0.011   0.966   0.007  0.00  0.00    -0.285 N 
ATOM     30  C   UNL     1       1.022   1.578   0.619  0.00  0.00    +0.217 C 
ATOM     31  O   UNL     1       0.887   2.699   1.061  0.00  0.00    -0.275 OA
ATOM     32  H   UNL     1       0.115   0.097  -0.405  0.00  0.00    +0.155 HD
BRANCH  30  33
ATOM     33  C   UNL     1       2.346   0.870   0.753  0.00  0.00    +0.099 C 
BRANCH  33  34
ATOM     34  C   UNL     1       3.339   1.778   1.479  0.00  0.00    -0.008 C 
ATOM     35  C   UNL     1       2.860   2.015   2.913  0.00  0.00    +0.008 C 
ATOM     36  C   UNL     1       4.716   1.111   1.506  0.00  0.00    +0.008 C 
ENDBRANCH  33  34
ENDBRANCH  30  33
ENDBRANCH  26  29
ENDBRANCH  21  23
ENDBRANCH  20  21
ENDBRANCH  19  20
ENDBRANCH   1  19
TORSDOF 10
