REMARK  Name = ZINC09451505
REMARK  5 active torsions:
REMARK  status: ('A' for Active; 'I' for Inactive)
REMARK    1  A    between atoms: C_1  and  C_2
REMARK    2  A    between atoms: C_9  and  C_11
REMARK    3  A    between atoms: C_14  and  S_16
REMARK    4  A    between atoms: S_16  and  C_17
REMARK    5  A    between atoms: C_17  and  C_18
REMARK                            x       y       z     vdW  Elec       q    Type
REMARK                         _______ _______ _______ _____ _____    ______ ____
ROOT
ATOM      1  C   UNL     1       1.590  -5.235   3.055  0.00  0.00    +0.256 A 
ATOM      2  N   UNL     1       1.769  -5.051   4.343  0.00  0.00    -0.106 NA
ATOM      3  N   UNL     1       1.996  -6.184   4.909  0.00  0.00    -0.101 NA
ATOM      4  C   UNL     1       1.971  -7.136   4.007  0.00  0.00    +0.278 A 
ATOM      5  O   UNL     1       1.709  -6.561   2.817  0.00  0.00    -0.410 OA
ENDROOT
BRANCH   1  13
ATOM      6  C   UNL     1      -0.019   1.526   0.010  0.00  0.00    +0.008 C 
ATOM      7  C   UNL     1       0.002  -0.004   0.002  0.00  0.00    -0.009 C 
ATOM      8  C   UNL     1       0.714  -0.496  -1.261  0.00  0.00    +0.009 C 
ATOM      9  C   UNL     1       0.495  -2.010  -1.393  0.00  0.00    +0.043 C 
ATOM     10  C   UNL     1       0.781  -2.643  -0.069  0.00  0.00    -0.006 A 
ATOM     11  C   UNL     1       0.900  -2.022   1.139  0.00  0.00    -0.036 A 
ATOM     12  C   UNL     1       1.173  -2.831   2.235  0.00  0.00    +0.024 A 
ATOM     13  C   UNL     1       1.306  -4.192   2.058  0.00  0.00    +0.076 A 
ATOM     14  S   UNL     1       1.042  -4.358   0.298  0.00  0.00    -0.088 S 
ATOM     15  C   UNL     1       0.737  -0.508   1.244  0.00  0.00    +0.039 C 
ENDBRANCH   1  13
BRANCH   4  16
ATOM     16  S   UNL     1       2.227  -8.855   4.299  0.00  0.00    -0.058 S 
BRANCH  16  17
ATOM     17  C   UNL     1       2.520  -8.958   6.086  0.00  0.00    +0.153 C 
BRANCH  17  18
ATOM     18  C   UNL     1       2.757 -10.394   6.475  0.00  0.00    +0.121 A 
ATOM     19  N   UNL     1       2.991 -10.680   7.782  0.00  0.00    -0.309 N 
ATOM     20  H   UNL     1       3.003  -9.970   8.444  0.00  0.00    +0.170 HD
ATOM     21  C   UNL     1       3.206 -11.965   8.153  0.00  0.00    +0.266 A 
ATOM     22  O   UNL     1       3.419 -12.254   9.319  0.00  0.00    -0.267 OA
ATOM     23  C   UNL     1       3.178 -12.948   7.165  0.00  0.00    +0.102 A 
ATOM     24  C   UNL     1       2.933 -12.626   5.818  0.00  0.00    +0.085 A 
ATOM     25  N   UNL     1       2.722 -11.297   5.547  0.00  0.00    -0.232 NA
ATOM     26  C   UNL     1       2.932 -13.710   4.929  0.00  0.00    +0.036 A 
ATOM     27  C   UNL     1       3.155 -14.962   5.383  0.00  0.00    +0.048 A 
ATOM     28  S   UNL     1       3.391 -14.709   7.135  0.00  0.00    -0.090 S 
ENDBRANCH  17  18
ENDBRANCH  16  17
ENDBRANCH   4  16
TORSDOF 4
