REMARK  Name = ZINC20731719
REMARK  10 active torsions:
REMARK  status: ('A' for Active; 'I' for Inactive)
REMARK    1  A    between atoms: C_1  and  O_2
REMARK    2  A    between atoms: O_2  and  C_3
REMARK    3  A    between atoms: C_3  and  C_5
REMARK    4  A    between atoms: C_5  and  C_6
REMARK    5  A    between atoms: C_6  and  C_7
REMARK    6  A    between atoms: C_7  and  C_9
REMARK    7  A    between atoms: C_7  and  N_13
REMARK    8  A    between atoms: C_9  and  O_11
REMARK    9  A    between atoms: O_11  and  C_12
REMARK   10  A    between atoms: C_25  and  C_27
REMARK                            x       y       z     vdW  Elec       q    Type
REMARK                         _______ _______ _______ _____ _____    ______ ____
ROOT
ATOM      1  N   UNL     1      -1.700  -6.610  -0.237  0.00  0.00    -0.286 N 
ATOM      2  C   UNL     1      -1.689  -5.841  -1.344  0.00  0.00    +0.304 C 
ATOM      3  O   UNL     1      -2.225  -4.749  -1.331  0.00  0.00    -0.253 OA
ATOM      4  N   UNL     1      -1.084  -6.282  -2.464  0.00  0.00    -0.273 N 
ATOM      5  C   UNL     1      -0.962  -5.416  -3.647  0.00  0.00    +0.116 C 
ATOM      6  C   UNL     1       0.521  -5.135  -3.915  0.00  0.00    +0.076 C 
ATOM      7  C   UNL     1       1.289  -6.429  -3.806  0.00  0.00    +0.066 A 
ATOM      8  C   UNL     1       0.828  -7.540  -3.192  0.00  0.00    +0.064 A 
ATOM      9  N   UNL     1       1.796  -8.489  -3.294  0.00  0.00    -0.346 N 
ATOM     10  H   UNL     1       1.757  -9.394  -2.946  0.00  0.00    +0.167 HD
ATOM     11  C   UNL     1       2.825  -7.931  -3.973  0.00  0.00    +0.197 A 
ATOM     12  N   UNL     1       2.511  -6.699  -4.275  0.00  0.00    -0.240 NA
ATOM     13  C   UNL     1      -0.522  -7.643  -2.535  0.00  0.00    +0.158 C 
ATOM     14  H   UNL     1      -1.344  -7.511  -0.269  0.00  0.00    +0.151 HD
ENDROOT
BRANCH  13  15
ATOM     15  C   UNL     1      -1.422  -8.528  -3.357  0.00  0.00    -0.003 A 
ATOM     16  C   UNL     1      -1.617  -8.259  -4.699  0.00  0.00    +0.009 A 
ATOM     17  C   UNL     1      -2.442  -9.071  -5.455  0.00  0.00    +0.020 A 
ATOM     18  C   UNL     1      -3.074 -10.153  -4.868  0.00  0.00    +0.042 A 
ATOM     19  C   UNL     1      -2.880 -10.423  -3.525  0.00  0.00    +0.040 A 
ATOM     20  C   UNL     1      -2.049  -9.613  -2.771  0.00  0.00    +0.048 A 
ATOM     21 CL   UNL     1      -1.799  -9.954  -1.087  0.00  0.00    -0.083 Cl
ATOM     22 CL   UNL     1      -4.112 -11.172  -5.816  0.00  0.00    -0.083 Cl
ENDBRANCH  13  15
BRANCH   1  23
ATOM     23  C   UNL     1      -2.250  -6.083   1.015  0.00  0.00    +0.184 C 
BRANCH  23  24
ATOM     24  C   UNL     1      -1.185  -5.304   1.743  0.00  0.00    +0.327 C 
ATOM     25  O   UNL     1      -0.080  -5.198   1.264  0.00  0.00    -0.249 OA
BRANCH  24  26
ATOM     26  O   UNL     1      -1.464  -4.726   2.922  0.00  0.00    -0.467 OA
ATOM     27  C   UNL     1      -0.407  -4.003   3.556  0.00  0.00    +0.280 C 
ENDBRANCH  24  26
ENDBRANCH  23  24
BRANCH  23  28
ATOM     28  C   UNL     1      -2.721  -7.244   1.893  0.00  0.00    +0.045 C 
BRANCH  28  29
ATOM     29  C   UNL     1      -3.887  -7.961   1.208  0.00  0.00    +0.123 C 
BRANCH  29  30
ATOM     30  C   UNL     1      -4.351  -9.104   2.073  0.00  0.00    +0.307 C 
ATOM     31  O   UNL     1      -3.806  -9.324   3.129  0.00  0.00    -0.251 OA
BRANCH  30  33
ATOM     32  C   UNL     1      -5.759 -10.945   2.540  0.00  0.00    +0.280 C 
ATOM     33  O   UNL     1      -5.371  -9.879   1.671  0.00  0.00    -0.468 OA
ENDBRANCH  30  33
ENDBRANCH  29  30
ENDBRANCH  28  29
ENDBRANCH  23  28
ENDBRANCH   1  23
TORSDOF 8
