REMARK  Name = ZINC56327178
REMARK  12 active torsions:
REMARK  status: ('A' for Active; 'I' for Inactive)
REMARK    1  A    between atoms: C_1  and  C_2
REMARK    2  A    between atoms: C_2  and  C_3
REMARK    3  A    between atoms: C_2  and  C_4
REMARK    4  A    between atoms: C_4  and  C_6
REMARK    5  A    between atoms: C_4  and  N_16
REMARK    6  A    between atoms: C_9  and  C_12
REMARK    7  A    between atoms: C_12  and  C_13
REMARK    8  A    between atoms: C_12  and  C_14
REMARK    9  A    between atoms: C_12  and  C_15
REMARK   10  A    between atoms: C_17  and  C_19
REMARK   11  A    between atoms: C_22  and  S_24
REMARK   12  A    between atoms: S_24  and  N_27
REMARK                            x       y       z     vdW  Elec       q    Type
REMARK                         _______ _______ _______ _____ _____    ______ ____
ROOT
ATOM      1  N   UNL     1       0.762  -1.976   1.234  0.00  0.00    -0.302 N 
ATOM      2  C   UNL     1      -0.282  -2.667   1.733  0.00  0.00    +0.280 C 
ATOM      3  O   UNL     1      -1.241  -2.074   2.191  0.00  0.00    -0.267 OA
ATOM      4  H   UNL     1       1.526  -2.448   0.869  0.00  0.00    +0.150 HD
ENDROOT
BRANCH   2   5
ATOM      5  C   UNL     1      -0.262  -4.133   1.725  0.00  0.00    +0.192 A 
ATOM      6  C   UNL     1      -1.250  -4.951   2.192  0.00  0.00    +0.057 A 
ATOM      7  C   UNL     1      -0.814  -6.269   1.986  0.00  0.00    +0.072 A 
ATOM      8  C   UNL     1       0.407  -6.199   1.410  0.00  0.00    +0.258 A 
ATOM      9  O   UNL     1       0.733  -4.910   1.250  0.00  0.00    -0.432 OA
BRANCH   8  10
ATOM     10  S   UNL     1       1.402  -7.575   0.941  0.00  0.00    +0.089 S 
ATOM     11  O   UNL     1       2.746  -7.115   0.915  0.00  0.00    -0.150 OA
ATOM     12  O   UNL     1       0.987  -8.669   1.748  0.00  0.00    -0.150 OA
BRANCH  10  13
ATOM     13  N   UNL     1       1.002  -7.959  -0.619  0.00  0.00    -0.201 NA
ATOM     14  H   UNL     1       0.326  -7.445  -1.087  0.00  0.00    +0.144 HD
ATOM     15  H   UNL     1       1.445  -8.699  -1.065  0.00  0.00    +0.144 HD
ENDBRANCH  10  13
ENDBRANCH   8  10
ENDBRANCH   2   5
BRANCH   1  16
ATOM     16  C   UNL     1       0.742  -0.511   1.242  0.00  0.00    +0.106 C 
BRANCH  16  17
ATOM     17  C   UNL     1       2.156   0.011   1.231  0.00  0.00    -0.027 A 
ATOM     18  C   UNL     1       3.113  -0.603   0.445  0.00  0.00    +0.006 A 
ATOM     19  C   UNL     1       4.410  -0.124   0.435  0.00  0.00    +0.004 A 
ATOM     20  C   UNL     1       4.750   0.968   1.211  0.00  0.00    -0.042 A 
ATOM     21  C   UNL     1       3.792   1.582   1.996  0.00  0.00    +0.004 A 
ATOM     22  C   UNL     1       2.494   1.106   2.003  0.00  0.00    +0.006 A 
BRANCH  20  23
ATOM     23  C   UNL     1       6.163   1.489   1.201  0.00  0.00    -0.013 C 
ATOM     24  C   UNL     1       6.541   1.913  -0.220  0.00  0.00    +0.015 C 
ATOM     25  C   UNL     1       6.270   2.693   2.138  0.00  0.00    +0.015 C 
ATOM     26  C   UNL     1       7.116   0.389   1.674  0.00  0.00    +0.015 C 
ENDBRANCH  20  23
ENDBRANCH  16  17
BRANCH  16  28
ATOM     27  C   UNL     1      -0.019   1.526   0.010  0.00  0.00    +0.009 C 
ATOM     28  C   UNL     1       0.002  -0.004   0.002  0.00  0.00    +0.008 C 
ATOM     29  C   UNL     1       0.718  -0.497  -1.257  0.00  0.00    +0.009 C 
ENDBRANCH  16  28
ENDBRANCH   1  16
TORSDOF 7
