REMARK  Name = ZINC21355684
REMARK  6 active torsions:
REMARK  status: ('A' for Active; 'I' for Inactive)
REMARK    1  A    between atoms: C_1  and  C_2
REMARK    2  A    between atoms: C_7  and  C_9
REMARK    3  A    between atoms: C_7  and  C_10
REMARK    4  A    between atoms: N_13  and  C_17
REMARK    5  A    between atoms: C_17  and  C_18
REMARK    6  A    between atoms: C_23  and  C_26
REMARK                            x       y       z     vdW  Elec       q    Type
REMARK                         _______ _______ _______ _____ _____    ______ ____
ROOT
ATOM      1  C   UNL     1      -2.295  -3.328  -4.359  0.00  0.00    +0.237 C 
ATOM      2  O   UNL     1      -1.953  -2.188  -4.591  0.00  0.00    -0.274 OA
ATOM      3  N   UNL     1      -3.321  -3.876  -5.040  0.00  0.00    -0.263 N 
ATOM      4  C   UNL     1      -3.987  -3.133  -6.007  0.00  0.00    +0.165 A 
ATOM      5  N   UNL     1      -5.003  -3.498  -6.757  0.00  0.00    -0.225 NA
ATOM      6  C   UNL     1      -5.535  -2.667  -7.644  0.00  0.00    +0.082 A 
ATOM      7  C   UNL     1      -4.972  -1.424  -7.731  0.00  0.00    +0.077 A 
ATOM      8  S   UNL     1      -3.692  -1.550  -6.493  0.00  0.00    -0.060 S 
ATOM      9  H   UNL     1      -3.595  -4.788  -4.855  0.00  0.00    +0.157 HD
ENDROOT
BRANCH   6  10
ATOM     10  C   UNL     1      -6.681  -3.065  -8.498  0.00  0.00    +0.026 A 
ATOM     11  C   UNL     1      -7.294  -2.304  -9.434  0.00  0.00    +0.093 A 
ATOM     12  N   UNL     1      -8.309  -3.014 -10.015  0.00  0.00    -0.360 N 
ATOM     13  H   UNL     1      -8.892  -2.679 -10.714  0.00  0.00    +0.165 HD
ATOM     14  C   UNL     1      -8.382  -4.273  -9.462  0.00  0.00    +0.047 A 
ATOM     15  C   UNL     1      -7.367  -4.367  -8.495  0.00  0.00    +0.009 A 
ATOM     16  C   UNL     1      -7.200  -5.547  -7.771  0.00  0.00    +0.010 A 
ATOM     17  C   UNL     1      -8.024  -6.611  -8.008  0.00  0.00    +0.001 A 
ATOM     18  C   UNL     1      -9.027  -6.526  -8.964  0.00  0.00    +0.002 A 
ATOM     19  C   UNL     1      -9.213  -5.367  -9.685  0.00  0.00    +0.026 A 
ENDBRANCH   6  10
BRANCH   1  20
ATOM     20  C   UNL     1      -1.572  -4.133  -3.310  0.00  0.00    +0.214 C 
BRANCH  20  32
ATOM     21  C   UNL     1      -0.019   1.528   0.010  0.00  0.00    +0.007 C 
ATOM     22  C   UNL     1       0.002  -0.004   0.002  0.00  0.00    -0.011 C 
ATOM     23  C   UNL     1       0.727  -0.492  -1.254  0.00  0.00    +0.038 C 
ATOM     24  C   UNL     1       0.711  -2.014  -1.298  0.00  0.00    +0.113 C 
ATOM     25  C   UNL     1       1.263  -2.646  -0.036  0.00  0.00    +0.041 C 
ATOM     26  C   UNL     1       0.787  -2.030   1.268  0.00  0.00    -0.032 C 
ATOM     27  C   UNL     1       0.763  -0.507   1.227  0.00  0.00    +0.009 C 
ATOM     28  C   UNL     1       1.769  -2.455   2.382  0.00  0.00    +0.011 C 
ATOM     29  C   UNL     1      -0.596  -2.567   1.648  0.00  0.00    +0.011 C 
ATOM     30  C   UNL     1      -0.666  -2.529  -1.638  0.00  0.00    +0.247 C 
ATOM     31  O   UNL     1      -1.717  -2.280  -1.086  0.00  0.00    -0.273 OA
ATOM     32  N   UNL     1      -0.505  -3.321  -2.720  0.00  0.00    -0.215 N 
ATOM     33  C   UNL     1       0.748  -3.270  -3.183  0.00  0.00    +0.310 C 
ATOM     34  O   UNL     1       1.136  -3.886  -4.157  0.00  0.00    -0.252 OA
ATOM     35  N   UNL     1       1.531  -2.463  -2.446  0.00  0.00    -0.285 N 
ATOM     36  H   UNL     1       2.451  -2.215  -2.619  0.00  0.00    +0.151 HD
ENDBRANCH  20  32
ENDBRANCH   1  20
TORSDOF 3
