REMARK  Name = ZINC06616992
REMARK  8 active torsions:
REMARK  status: ('A' for Active; 'I' for Inactive)
REMARK    1  A    between atoms: C_1  and  C_2
REMARK    2  A    between atoms: C_2  and  C_3
REMARK    3  A    between atoms: C_2  and  C_4
REMARK    4  A    between atoms: C_7  and  C_10
REMARK    5  A    between atoms: N_25  and  C_26
REMARK    6  A    between atoms: C_26  and  C_27
REMARK    7  A    between atoms: C_27  and  C_28
REMARK    8  A    between atoms: C_28  and  O_29
REMARK                            x       y       z     vdW  Elec       q    Type
REMARK                         _______ _______ _______ _____ _____    ______ ____
ROOT
ATOM      1  C   UNL     1       2.064  -0.335   5.949  0.00  0.00    +0.144 C 
ATOM      2  C   UNL     1       3.449  -0.797   5.575  0.00  0.00    +0.072 A 
ATOM      3  C   UNL     1       4.600  -0.109   4.984  0.00  0.00    +0.199 A 
ATOM      4  O   UNL     1       4.557   1.073   4.691  0.00  0.00    -0.287 OA
ATOM      5  C   UNL     1       5.813  -0.919   4.762  0.00  0.00    +0.066 A 
ATOM      6  C   UNL     1       6.965  -0.365   4.205  0.00  0.00    +0.035 A 
ATOM      7  C   UNL     1       8.076  -1.157   4.013  0.00  0.00    +0.042 A 
ATOM      8  C   UNL     1       8.047  -2.499   4.374  0.00  0.00    +0.023 A 
ATOM      9  C   UNL     1       6.915  -3.057   4.925  0.00  0.00    +0.048 A 
ATOM     10  C   UNL     1       5.780  -2.275   5.127  0.00  0.00    +0.140 A 
ATOM     11  O   UNL     1       4.669  -2.810   5.665  0.00  0.00    -0.450 OA
ATOM     12  C   UNL     1       3.537  -2.114   5.887  0.00  0.00    +0.199 A 
ATOM     13  C   UNL     1       2.239  -2.545   6.463  0.00  0.00    +0.283 C 
ATOM     14  O   UNL     1       1.988  -3.670   6.846  0.00  0.00    -0.267 OA
ATOM     15  N   UNL     1       1.380  -1.511   6.500  0.00  0.00    -0.284 N 
ATOM     16 CL   UNL     1       9.516  -0.478   3.321  0.00  0.00    -0.084 Cl
ENDROOT
BRANCH   1  20
ATOM     17  C   UNL     1       0.000   1.080   2.488  0.00  0.00    -0.045 A 
ATOM     18  C   UNL     1       0.142  -0.278   2.701  0.00  0.00    +0.004 A 
ATOM     19  C   UNL     1       0.815  -0.736   3.818  0.00  0.00    +0.006 A 
ATOM     20  C   UNL     1       1.337   0.164   4.728  0.00  0.00    -0.022 A 
ATOM     21  C   UNL     1       1.190   1.523   4.518  0.00  0.00    +0.006 A 
ATOM     22  C   UNL     1       0.522   1.980   3.397  0.00  0.00    +0.004 A 
BRANCH  17  24
ATOM     23  C   UNL     1      -0.013   1.086   0.008  0.00  0.00    +0.012 C 
ATOM     24  C   UNL     1      -0.729   1.579   1.267  0.00  0.00    +0.013 C 
ATOM     25  C   UNL     1      -2.164   1.050   1.278  0.00  0.00    +0.012 C 
ENDBRANCH  17  24
ENDBRANCH   1  20
BRANCH  15  26
ATOM     26  C   UNL     1       0.005  -1.551   7.003  0.00  0.00    +0.111 C 
BRANCH  26  27
ATOM     27  C   UNL     1      -0.946  -1.909   5.859  0.00  0.00    +0.047 C 
BRANCH  27  28
ATOM     28  C   UNL     1      -2.383  -1.950   6.383  0.00  0.00    +0.157 C 
BRANCH  28  29
ATOM     29  O   UNL     1      -3.271  -2.284   5.314  0.00  0.00    -0.395 OA
ATOM     30  H   UNL     1      -4.201  -2.328   5.575  0.00  0.00    +0.209 HD
ENDBRANCH  28  29
ENDBRANCH  27  28
ENDBRANCH  26  27
ENDBRANCH  15  26
TORSDOF 6
