REMARK  Name = ZINC34834350
REMARK  12 active torsions:
REMARK  status: ('A' for Active; 'I' for Inactive)
REMARK    1  A    between atoms: C_1  and  C_2
REMARK    2  A    between atoms: C_3  and  C_20
REMARK    3  A    between atoms: C_4  and  N_13
REMARK    4  A    between atoms: N_5  and  C_7
REMARK    5  A    between atoms: N_16  and  C_19
REMARK    6  A    between atoms: C_20  and  N_21
REMARK    7  A    between atoms: N_21  and  C_22
REMARK    8  A    between atoms: C_22  and  C_23
REMARK    9  A    between atoms: C_23  and  C_24
REMARK   10  A    between atoms: C_23  and  C_25
REMARK   11  A    between atoms: C_26  and  C_28
REMARK   12  A    between atoms: C_32  and  N_34
REMARK                            x       y       z     vdW  Elec       q    Type
REMARK                         _______ _______ _______ _____ _____    ______ ____
ROOT
ATOM      1  C   UNL     1      -0.782   0.856  -1.257  0.00  0.00    +0.068 C 
ATOM      2  C   UNL     1      -0.657  -0.641  -1.382  0.00  0.00    +0.067 A 
ATOM      3  C   UNL     1       0.110  -1.320  -2.334  0.00  0.00    +0.032 A 
ATOM      4  C   UNL     1      -0.041  -2.656  -2.115  0.00  0.00    +0.130 A 
ATOM      5  N   UNL     1      -0.881  -2.804  -1.055  0.00  0.00    -0.218 N 
ATOM      6  N   UNL     1      -1.245  -1.524  -0.616  0.00  0.00    -0.170 NA
ENDROOT
BRANCH   4   7
ATOM      7  N   UNL     1       0.555  -3.681  -2.843  0.00  0.00    -0.318 N 
ATOM      8  C   UNL     1       1.772  -4.348  -2.355  0.00  0.00    +0.088 C 
ATOM      9  C   UNL     1       1.547  -5.863  -2.399  0.00  0.00    -0.060 C 
ATOM     10  N   UNL     1       1.143  -6.257  -3.754  0.00  0.00    +0.380 N 
ATOM     11  C   UNL     1      -0.155  -5.655  -4.084  0.00  0.00    -0.060 C 
ATOM     12  C   UNL     1      -0.018  -4.134  -4.120  0.00  0.00    +0.088 C 
ATOM     13  C   UNL     1       1.034  -7.721  -3.825  0.00  0.00    -0.096 C 
ATOM     14  H   UNL     1       1.836  -5.942  -4.416  0.00  0.00    -0.082 HD
ENDBRANCH   4   7
BRANCH   5  15
ATOM     15  C   UNL     1      -1.302  -4.019  -0.498  0.00  0.00    +0.067 A 
ATOM     16  C   UNL     1      -1.841  -5.006  -1.311  0.00  0.00    +0.028 A 
ATOM     17  C   UNL     1      -2.256  -6.203  -0.760  0.00  0.00    +0.002 A 
ATOM     18  C   UNL     1      -2.134  -6.418   0.601  0.00  0.00    +0.000 A 
ATOM     19  C   UNL     1      -1.598  -5.436   1.413  0.00  0.00    +0.002 A 
ATOM     20  C   UNL     1      -1.177  -4.239   0.867  0.00  0.00    +0.028 A 
ENDBRANCH   5  15
BRANCH   3  21
ATOM     21  C   UNL     1       0.953  -0.686  -3.410  0.00  0.00    +0.148 C 
BRANCH  21  22
ATOM     22  N   UNL     1       2.262  -0.329  -2.857  0.00  0.00    -0.293 N 
ATOM     23  C   UNL     1       2.487   0.924  -2.414  0.00  0.00    +0.247 C 
ATOM     24  O   UNL     1       1.567   1.716  -2.337  0.00  0.00    -0.270 OA
BRANCH  23  25
ATOM     25  C   UNL     1       3.852   1.336  -2.021  0.00  0.00    +0.039 A 
ATOM     26  C   UNL     1       4.918   0.444  -2.153  0.00  0.00    +0.013 A 
ATOM     27  C   UNL     1       6.189   0.835  -1.785  0.00  0.00    +0.003 A 
ATOM     28  C   UNL     1       6.408   2.107  -1.286  0.00  0.00    +0.033 A 
ATOM     29  C   UNL     1       5.356   2.995  -1.153  0.00  0.00    +0.127 A 
ATOM     30  C   UNL     1       4.080   2.619  -1.523  0.00  0.00    +0.045 A 
BRANCH  29  31
ATOM     31  N   UNL     1       5.599   4.353  -0.618  0.00  0.00    +0.056 N 
ATOM     32  O   UNL     1       6.717   4.686  -0.298  0.00  0.00    -0.126 OA
ATOM     33  O   UNL     1       4.680   5.130  -0.500  0.00  0.00    -0.126 OA
ENDBRANCH  29  31
ENDBRANCH  23  25
BRANCH  22  34
ATOM     34  C   UNL     1       3.326  -1.333  -2.786  0.00  0.00    +0.111 C 
BRANCH  34  35
ATOM     35  C   UNL     1       4.290  -1.139  -3.959  0.00  0.00    +0.000 C 
ATOM     36  C   UNL     1       5.241  -2.334  -4.040  0.00  0.00    +0.009 C 
ATOM     37  C   UNL     1       3.493  -1.031  -5.261  0.00  0.00    +0.009 C 
ENDBRANCH  34  35
ENDBRANCH  22  34
ENDBRANCH  21  22
ENDBRANCH   3  21
TORSDOF 8
