REMARK  Name = ZINC08678186
REMARK  9 active torsions:
REMARK  status: ('A' for Active; 'I' for Inactive)
REMARK    1  A    between atoms: C_1  and  C_2
REMARK    2  A    between atoms: C_5  and  C_8
REMARK    3  A    between atoms: C_8  and  C_10
REMARK    4  A    between atoms: C_8  and  N_19
REMARK    5  A    between atoms: N_12  and  C_13
REMARK    6  A    between atoms: N_19  and  C_20
REMARK    7  A    between atoms: C_20  and  C_21
REMARK    8  A    between atoms: C_26  and  C_28
REMARK    9  A    between atoms: C_28  and  N_29
REMARK                            x       y       z     vdW  Elec       q    Type
REMARK                         _______ _______ _______ _____ _____    ______ ____
ROOT
ATOM      1  N   UNL     1      -0.769  -4.770   1.051  0.00  0.00    -0.277 N 
ATOM      2  C   UNL     1      -2.108  -4.808   0.897  0.00  0.00    +0.237 C 
ATOM      3  O   UNL     1      -2.626  -4.242  -0.042  0.00  0.00    -0.274 OA
ENDROOT
BRANCH   1   4
ATOM      4  C   UNL     1       0.059  -4.045   0.084  0.00  0.00    +0.193 C 
BRANCH   4   9
ATOM      5  C   UNL     1      -1.320   1.565   0.193  0.00  0.00    +0.044 C 
ATOM      6  C   UNL     1      -0.960   0.102   0.165  0.00  0.00    -0.050 A 
ATOM      7  C   UNL     1      -0.598  -0.497  -1.027  0.00  0.00    +0.004 A 
ATOM      8  C   UNL     1      -0.268  -1.839  -1.053  0.00  0.00    +0.006 A 
ATOM      9  C   UNL     1      -0.300  -2.582   0.113  0.00  0.00    -0.018 A 
ATOM     10  C   UNL     1      -0.661  -1.982   1.304  0.00  0.00    +0.006 A 
ATOM     11  C   UNL     1      -0.987  -0.639   1.331  0.00  0.00    +0.004 A 
ENDBRANCH   4   9
BRANCH   4  12
ATOM     12  C   UNL     1       1.513  -4.213   0.443  0.00  0.00    +0.238 C 
ATOM     13  O   UNL     1       1.831  -4.932   1.366  0.00  0.00    -0.273 OA
ATOM     14  N   UNL     1       2.461  -3.564  -0.263  0.00  0.00    -0.311 N 
ATOM     15  H   UNL     1       2.206  -2.990  -1.002  0.00  0.00    +0.149 HD
BRANCH  14  16
ATOM     16  C   UNL     1       3.874  -3.728   0.085  0.00  0.00    +0.073 C 
ATOM     17  C   UNL     1       4.241  -2.746   1.200  0.00  0.00    +0.022 C 
ATOM     18  C   UNL     1       5.717  -2.917   1.565  0.00  0.00    +0.002 C 
ATOM     19  C   UNL     1       6.582  -2.636   0.334  0.00  0.00    +0.000 C 
ATOM     20  C   UNL     1       6.215  -3.618  -0.781  0.00  0.00    +0.002 C 
ATOM     21  C   UNL     1       4.739  -3.447  -1.145  0.00  0.00    +0.022 C 
ENDBRANCH  14  16
ENDBRANCH   4  12
ENDBRANCH   1   4
BRANCH   1  22
ATOM     22  C   UNL     1      -0.143  -5.454   2.185  0.00  0.00    +0.183 C 
BRANCH  22  23
ATOM     23  C   UNL     1       0.313  -4.434   3.197  0.00  0.00    +0.122 A 
ATOM     24  C   UNL     1      -0.381  -4.035   4.278  0.00  0.00    +0.046 A 
ATOM     25  C   UNL     1       0.415  -3.074   4.943  0.00  0.00    +0.041 A 
ATOM     26  C   UNL     1       1.547  -2.944   4.229  0.00  0.00    +0.195 A 
ATOM     27  O   UNL     1       1.482  -3.775   3.175  0.00  0.00    -0.466 OA
ENDBRANCH  22  23
ENDBRANCH   1  22
BRANCH   2  28
ATOM     28  C   UNL     1      -2.960  -5.554   1.891  0.00  0.00    +0.219 C 
BRANCH  28  29
ATOM     29  N   UNL     1      -4.369  -5.446   1.505  0.00  0.00    -0.321 N 
ATOM     30  C   UNL     1      -5.262  -4.528   1.963  0.00  0.00    +0.200 A 
ATOM     31  N   UNL     1      -6.424  -4.720   1.411  0.00  0.00    -0.236 NA
ATOM     32  C   UNL     1      -6.356  -5.776   0.559  0.00  0.00    +0.089 A 
ATOM     33  C   UNL     1      -5.035  -6.253   0.604  0.00  0.00    +0.069 A 
ATOM     34  C   UNL     1      -4.665  -7.338  -0.177  0.00  0.00    +0.028 A 
ATOM     35  C   UNL     1      -5.598  -7.939  -0.996  0.00  0.00    +0.002 A 
ATOM     36  C   UNL     1      -6.902  -7.466  -1.042  0.00  0.00    +0.002 A 
ATOM     37  C   UNL     1      -7.285  -6.403  -0.274  0.00  0.00    +0.030 A 
ENDBRANCH  28  29
ENDBRANCH   2  28
TORSDOF 8
