REMARK  Name = ZINC08299197
REMARK  6 active torsions:
REMARK  status: ('A' for Active; 'I' for Inactive)
REMARK    1  A    between atoms: C_4  and  C_7
REMARK    2  A    between atoms: C_10  and  C_13
REMARK    3  A    between atoms: N_15  and  C_18
REMARK    4  A    between atoms: C_18  and  C_19
REMARK    5  A    between atoms: C_27  and  C_29
REMARK    6  A    between atoms: C_34  and  C_37
REMARK                            x       y       z     vdW  Elec       q    Type
REMARK                         _______ _______ _______ _____ _____    ______ ____
ROOT
ATOM      1  C   UNL     1      -1.206   7.622  -4.397  0.00  0.00    -0.046 C 
ATOM      2  C   UNL     1       0.043   6.992  -5.022  0.00  0.00    -0.010 C 
ATOM      3  C   UNL     1       0.955   6.482  -3.899  0.00  0.00    -0.004 C 
ATOM      4  C   UNL     1       1.326   7.664  -2.995  0.00  0.00    -0.015 C 
ATOM      5  C   UNL     1       0.041   8.274  -2.427  0.00  0.00    -0.078 C 
ATOM      6  C   UNL     1      -1.075   6.125  -2.497  0.00  0.00    -0.065 C 
ATOM      7  C   UNL     1       0.177   5.454  -3.067  0.00  0.00    +0.062 C 
ATOM      8  N   UNL     1      -1.142   7.540  -2.923  0.00  0.00    +0.383 N 
ATOM      9  H   UNL     1      -1.989   7.967  -2.528  0.00  0.00    -0.081 HD
ENDROOT
BRANCH   7  10
ATOM     10  C   UNL     1       1.044   4.960  -1.937  0.00  0.00    +0.217 C 
ATOM     11  O   UNL     1       2.176   5.376  -1.815  0.00  0.00    -0.275 OA
ATOM     12  N   UNL     1       0.561   4.055  -1.063  0.00  0.00    -0.301 N 
ATOM     13  C   UNL     1       1.393   3.563   0.043  0.00  0.00    +0.108 C 
ATOM     14  C   UNL     1       1.417   2.032  -0.001  0.00  0.00    +0.032 C 
ATOM     15  C   UNL     1      -0.018   1.503   0.010  0.00  0.00    +0.078 C 
ATOM     16  C   UNL     1      -0.760   2.009  -1.229  0.00  0.00    +0.032 C 
ATOM     17  C   UNL     1      -0.809   3.540  -1.199  0.00  0.00    +0.108 C 
BRANCH  15  18
ATOM     18  C   UNL     1       0.002  -0.004   0.002  0.00  0.00    +0.214 C 
ATOM     19  O   UNL     1       1.060  -0.596  -0.011  0.00  0.00    -0.276 OA
ATOM     20  N   UNL     1      -1.156  -0.694   0.009  0.00  0.00    -0.329 N 
ATOM     21  H   UNL     1      -2.002  -0.220   0.020  0.00  0.00    +0.145 HD
ATOM     22  H   UNL     1      -1.143  -1.664   0.004  0.00  0.00    +0.145 HD
ENDBRANCH  15  18
ENDBRANCH   7  10
BRANCH   1  23
ATOM     23  C   UNL     1      -1.297   9.092  -4.810  0.00  0.00    +0.130 C 
BRANCH  23  26
ATOM     24  C   UNL     1      -3.997  10.933  -3.308  0.00  0.00    +0.113 A 
ATOM     25  C   UNL     1      -2.661  10.765  -3.534  0.00  0.00    +0.138 A 
ATOM     26  N   UNL     1      -2.550   9.663  -4.309  0.00  0.00    -0.253 N 
ATOM     27  N   UNL     1      -3.729   9.204  -4.538  0.00  0.00    -0.065 NA
ATOM     28  N   UNL     1      -4.616   9.930  -3.955  0.00  0.00    -0.130 NA
BRANCH  24  32
ATOM     29  C   UNL     1      -5.834  14.013  -1.015  0.00  0.00    -0.018 A 
ATOM     30  C   UNL     1      -6.619  13.038  -1.629  0.00  0.00    +0.009 A 
ATOM     31  C   UNL     1      -6.025  12.041  -2.371  0.00  0.00    +0.011 A 
ATOM     32  C   UNL     1      -4.638  12.007  -2.508  0.00  0.00    +0.004 A 
ATOM     33  C   UNL     1      -3.852  12.978  -1.890  0.00  0.00    +0.011 A 
ATOM     34  C   UNL     1      -4.446  13.979  -1.152  0.00  0.00    +0.009 A 
BRANCH  29  38
ATOM     35  C   UNL     1      -7.668  17.090   1.273  0.00  0.00    +0.000 A 
ATOM     36  C   UNL     1      -6.292  17.059   1.139  0.00  0.00    +0.001 A 
ATOM     37  C   UNL     1      -5.691  16.062   0.398  0.00  0.00    +0.008 A 
ATOM     38  C   UNL     1      -6.474  15.086  -0.217  0.00  0.00    -0.018 A 
ATOM     39  C   UNL     1      -7.861  15.127  -0.083  0.00  0.00    +0.008 A 
ATOM     40  C   UNL     1      -8.450  16.125   0.665  0.00  0.00    +0.001 A 
ENDBRANCH  29  38
ENDBRANCH  24  32
ENDBRANCH  23  26
ENDBRANCH   1  23
TORSDOF 6
