REMARK  Name = ZINC35778950
REMARK  13 active torsions:
REMARK  status: ('A' for Active; 'I' for Inactive)
REMARK    1  A    between atoms: C_1  and  C_2
REMARK    2  A    between atoms: C_2  and  C_3
REMARK    3  A    between atoms: C_3  and  N_4
REMARK    4  A    between atoms: N_4  and  C_5
REMARK    5  A    between atoms: N_4  and  C_15
REMARK    6  A    between atoms: C_5  and  C_6
REMARK    7  A    between atoms: C_6  and  C_8
REMARK    8  A    between atoms: C_6  and  O_14
REMARK    9  A    between atoms: C_15  and  C_16
REMARK   10  A    between atoms: C_26  and  C_28
REMARK   11  A    between atoms: C_28  and  O_29
REMARK   12  A    between atoms: O_29  and  C_30
REMARK   13  A    between atoms: C_34  and  C_36
REMARK                            x       y       z     vdW  Elec       q    Type
REMARK                         _______ _______ _______ _____ _____    ______ ____
ROOT
ATOM      1  C   UNL     1       3.134  -1.933  -1.986  0.00  0.00    +0.200 C 
ATOM      2  O   UNL     1       3.338  -1.189  -1.050  0.00  0.00    -0.278 OA
ATOM      3  N   UNL     1       4.146  -2.277  -2.807  0.00  0.00    -0.292 N 
ATOM      4  C   UNL     1       3.909  -3.174  -3.948  0.00  0.00    +0.113 C 
ATOM      5  C   UNL     1       4.167  -2.386  -5.242  0.00  0.00    +0.061 C 
ATOM      6  C   UNL     1       5.409  -1.574  -5.069  0.00  0.00    -0.004 A 
ATOM      7  C   UNL     1       6.046  -1.257  -3.909  0.00  0.00    -0.014 A 
ATOM      8  C   UNL     1       7.192  -0.472  -4.019  0.00  0.00    +0.013 A 
ATOM      9  C   UNL     1       7.622  -0.069  -5.237  0.00  0.00    +0.046 A 
ATOM     10  S   UNL     1       6.399  -0.795  -6.317  0.00  0.00    -0.101 S 
ATOM     11  C   UNL     1       5.501  -1.757  -2.577  0.00  0.00    +0.144 C 
ENDROOT
BRANCH   1  12
ATOM     12  C   UNL     1       1.748  -2.473  -2.231  0.00  0.00    +0.019 C 
BRANCH  12  13
ATOM     13  N   UNL     1       0.832  -1.953  -1.207  0.00  0.00    +0.387 N 
ATOM     14  H   UNL     1       1.193  -2.173  -0.291  0.00  0.00    -0.081 HD
BRANCH  13  15
ATOM     15  C   UNL     1       0.713  -0.496  -1.350  0.00  0.00    -0.078 C 
BRANCH  15  17
ATOM     16  C   UNL     1      -0.133   1.591  -0.269  0.00  0.00    +0.002 C 
ATOM     17  C   UNL     1      -0.122   0.063  -0.196  0.00  0.00    -0.022 C 
ENDBRANCH  15  17
ENDBRANCH  13  15
BRANCH  13  18
ATOM     18  C   UNL     1      -0.490  -2.572  -1.374  0.00  0.00    -0.042 C 
BRANCH  18  19
ATOM     19  C   UNL     1      -0.393  -4.070  -1.078  0.00  0.00    +0.128 C 
BRANCH  19  20
ATOM     20  C   UNL     1      -1.748  -4.705  -1.255  0.00  0.00    -0.021 A 
ATOM     21  C   UNL     1      -2.697  -4.599  -0.255  0.00  0.00    +0.006 A 
ATOM     22  C   UNL     1      -3.940  -5.182  -0.417  0.00  0.00    +0.000 A 
ATOM     23  C   UNL     1      -4.234  -5.870  -1.579  0.00  0.00    +0.000 A 
ATOM     24  C   UNL     1      -3.286  -5.976  -2.579  0.00  0.00    +0.000 A 
ATOM     25  C   UNL     1      -2.045  -5.389  -2.419  0.00  0.00    +0.006 A 
ENDBRANCH  19  20
BRANCH  19  26
ATOM     26  O   UNL     1       0.052  -4.263   0.266  0.00  0.00    -0.389 OA
ATOM     27  H   UNL     1      -0.567  -3.940   0.935  0.00  0.00    +0.210 HD
ENDBRANCH  19  26
ENDBRANCH  18  19
ENDBRANCH  13  18
ENDBRANCH  12  13
ENDBRANCH   1  12
BRANCH  11  28
ATOM     28  C   UNL     1       6.400  -2.873  -2.040  0.00  0.00    +0.256 C 
BRANCH  28  29
ATOM     29  O   UNL     1       6.551  -3.884  -3.038  0.00  0.00    -0.490 OA
BRANCH  29  30
ATOM     30  C   UNL     1       7.326  -4.955  -2.719  0.00  0.00    +0.121 A 
ATOM     31  C   UNL     1       7.923  -5.032  -1.469  0.00  0.00    +0.045 A 
ATOM     32  C   UNL     1       8.710  -6.121  -1.148  0.00  0.00    +0.004 A 
ATOM     33  C   UNL     1       8.902  -7.133  -2.070  0.00  0.00    +0.003 A 
ATOM     34  C   UNL     1       8.308  -7.058  -3.316  0.00  0.00    -0.047 A 
ATOM     35  C   UNL     1       7.516  -5.974  -3.641  0.00  0.00    +0.049 A 
ATOM     36  C   UNL     1       8.520  -8.163  -4.319  0.00  0.00    +0.044 C 
ENDBRANCH  29  30
ENDBRANCH  28  29
ENDBRANCH  11  28
TORSDOF 11
