REMARK  Name = ZINC09231882
REMARK  7 active torsions:
REMARK  status: ('A' for Active; 'I' for Inactive)
REMARK    1  A    between atoms: C_1  and  C_2
REMARK    2  A    between atoms: C_2  and  C_3
REMARK    3  A    between atoms: C_2  and  C_4
REMARK    4  A    between atoms: C_7  and  N_10
REMARK    5  A    between atoms: C_12  and  C_17
REMARK    6  A    between atoms: N_19  and  C_20
REMARK    7  A    between atoms: C_23  and  N_27
REMARK                            x       y       z     vdW  Elec       q    Type
REMARK                         _______ _______ _______ _____ _____    ______ ____
ROOT
ATOM      1  N   UNL     1      -2.333   1.629  -0.601  0.00  0.00    -0.271 N 
ATOM      2  C   UNL     1      -2.404   1.468   0.856  0.00  0.00    +0.127 C 
ATOM      3  C   UNL     1      -0.933   1.416   1.337  0.00  0.00    +0.102 C 
ATOM      4  C   UNL     1      -0.209   0.901   0.072  0.00  0.00    +0.110 C 
ATOM      5  C   UNL     1      -1.114   1.312  -1.069  0.00  0.00    +0.221 C 
ATOM      6  O   UNL     1      -0.786   1.351  -2.236  0.00  0.00    -0.275 OA
ENDROOT
BRANCH   1  10
ATOM      7  C   UNL     1      -5.505   2.907  -2.981  0.00  0.00    -0.045 A 
ATOM      8  C   UNL     1      -5.705   2.673  -1.633  0.00  0.00    +0.006 A 
ATOM      9  C   UNL     1      -4.655   2.249  -0.841  0.00  0.00    +0.024 A 
ATOM     10  C   UNL     1      -3.399   2.058  -1.401  0.00  0.00    +0.036 A 
ATOM     11  C   UNL     1      -3.200   2.298  -2.754  0.00  0.00    +0.024 A 
ATOM     12  C   UNL     1      -4.255   2.717  -3.541  0.00  0.00    +0.006 A 
BRANCH   7  14
ATOM     13  C   UNL     1      -6.312   4.729  -4.458  0.00  0.00    +0.012 C 
ATOM     14  C   UNL     1      -6.652   3.370  -3.842  0.00  0.00    +0.013 C 
ATOM     15  C   UNL     1      -6.897   2.352  -4.957  0.00  0.00    +0.012 C 
ENDBRANCH   7  14
ENDBRANCH   1  10
BRANCH   3  16
ATOM     16  C   UNL     1      -0.772   0.448   2.482  0.00  0.00    +0.222 C 
ATOM     17  O   UNL     1      -1.748  -0.076   2.974  0.00  0.00    -0.275 OA
ATOM     18  N   UNL     1       0.457   0.166   2.957  0.00  0.00    -0.284 N 
ATOM     19  H   UNL     1       1.230   0.646   2.620  0.00  0.00    +0.155 HD
BRANCH  18  20
ATOM     20  C   UNL     1       0.619  -0.819   3.938  0.00  0.00    +0.048 A 
ATOM     21  C   UNL     1      -0.204  -1.938   3.943  0.00  0.00    +0.026 A 
ATOM     22  C   UNL     1      -0.038  -2.911   4.909  0.00  0.00    +0.034 A 
ATOM     23  C   UNL     1       0.938  -2.768   5.877  0.00  0.00    +0.127 A 
ATOM     24  C   UNL     1       1.755  -1.652   5.880  0.00  0.00    +0.049 A 
ATOM     25  C   UNL     1       1.599  -0.677   4.913  0.00  0.00    +0.041 A 
ATOM     26 BR   UNL     1       2.717   0.847   4.916  0.00  0.00    -0.048 Br
BRANCH  23  27
ATOM     27  N   UNL     1       1.108  -3.810   6.914  0.00  0.00    +0.056 N 
ATOM     28  O   UNL     1       1.968  -3.685   7.769  0.00  0.00    -0.126 OA
ATOM     29  O   UNL     1       0.389  -4.793   6.914  0.00  0.00    -0.126 OA
ENDBRANCH  23  27
ENDBRANCH  18  20
ENDBRANCH   3  16
TORSDOF 5
