REMARK  Name = ZINC09205351
REMARK  9 active torsions:
REMARK  status: ('A' for Active; 'I' for Inactive)
REMARK    1  A    between atoms: C_1  and  C_2
REMARK    2  A    between atoms: C_4  and  C_24
REMARK    3  A    between atoms: N_8  and  C_20
REMARK    4  A    between atoms: N_10  and  C_11
REMARK    5  A    between atoms: C_11  and  C_13
REMARK    6  A    between atoms: C_15  and  C_18
REMARK    7  A    between atoms: C_20  and  C_21
REMARK    8  A    between atoms: C_21  and  O_22
REMARK    9  A    between atoms: O_22  and  C_23
REMARK                            x       y       z     vdW  Elec       q    Type
REMARK                         _______ _______ _______ _____ _____    ______ ____
ROOT
ATOM      1  C   UNL     1      -0.184   0.454   0.429  0.00  0.00    +0.044 C 
ATOM      2  C   UNL     1      -0.812   1.231   1.557  0.00  0.00    -0.048 A 
ATOM      3  C   UNL     1      -2.072   1.779   1.386  0.00  0.00    +0.008 A 
ATOM      4  C   UNL     1      -2.648   2.488   2.426  0.00  0.00    -0.034 A 
ATOM      5  C   UNL     1      -1.957   2.645   3.604  0.00  0.00    +0.042 A 
ATOM      6  C   UNL     1      -0.678   2.107   3.804  0.00  0.00    +0.058 A 
ATOM      7  C   UNL     1      -0.120   1.388   2.735  0.00  0.00    +0.030 A 
ATOM      8  N   UNL     1      -0.128   2.359   5.047  0.00  0.00    -0.319 N 
ATOM      9  C   UNL     1      -0.823   3.081   5.967  0.00  0.00    +0.167 A 
ATOM     10  N   UNL     1      -0.456   3.417   7.199  0.00  0.00    -0.151 NA
ATOM     11  S   UNL     1      -2.303   3.457   5.145  0.00  0.00    -0.052 S 
ATOM     12  C   UNL     1      -4.021   3.088   2.266  0.00  0.00    +0.045 C 
ENDROOT
BRANCH  10  13
ATOM     13  C   UNL     1       0.805   3.228   7.596  0.00  0.00    +0.291 C 
ATOM     14  O   UNL     1       1.711   3.846   7.064  0.00  0.00    -0.266 OA
BRANCH  13  15
ATOM     15  C   UNL     1       1.104   2.263   8.684  0.00  0.00    +0.170 A 
ATOM     16  C   UNL     1       2.369   2.019   9.287  0.00  0.00    +0.080 A 
ATOM     17  C   UNL     1       2.111   1.065  10.211  0.00  0.00    +0.135 A 
ATOM     18  O   UNL     1       0.801   0.796  10.131  0.00  0.00    -0.359 OA
ATOM     19  N   UNL     1       0.255   1.468   9.287  0.00  0.00    -0.073 NA
ATOM     20  C   UNL     1       3.104   0.429  11.149  0.00  0.00    +0.089 C 
ENDBRANCH  13  15
ENDBRANCH  10  13
BRANCH   8  21
ATOM     21  C   UNL     1       1.205   1.847   5.375  0.00  0.00    +0.152 C 
BRANCH  21  22
ATOM     22  C   UNL     1       1.243   0.335   5.141  0.00  0.00    +0.181 C 
BRANCH  22  23
ATOM     23  O   UNL     1       2.501  -0.183   5.578  0.00  0.00    -0.381 OA
ATOM     24  C   UNL     1       2.599  -1.607   5.508  0.00  0.00    +0.194 C 
ENDBRANCH  22  23
ENDBRANCH  21  22
ENDBRANCH   8  21
TORSDOF 5
