REMARK  Name = ZINC08995407
REMARK  11 active torsions:
REMARK  status: ('A' for Active; 'I' for Inactive)
REMARK    1  A    between atoms: C_1  and  N_2
REMARK    2  A    between atoms: N_2  and  C_3
REMARK    3  A    between atoms: N_2  and  C_4
REMARK    4  A    between atoms: C_7  and  C_10
REMARK    5  A    between atoms: C_10  and  C_12
REMARK    6  A    between atoms: C_10  and  N_22
REMARK    7  A    between atoms: N_14  and  C_15
REMARK    8  A    between atoms: C_15  and  C_16
REMARK    9  A    between atoms: N_22  and  C_23
REMARK   10  A    between atoms: C_30  and  C_32
REMARK   11  A    between atoms: C_32  and  N_33
REMARK                            x       y       z     vdW  Elec       q    Type
REMARK                         _______ _______ _______ _____ _____    ______ ____
ROOT
ATOM      1  C   UNL     1      -1.614   6.687  -3.063  0.00  0.00    +0.197 C 
ENDROOT
BRANCH   1   5
ATOM      2  C   UNL     1      -1.855  10.952  -3.205  0.00  0.00    +0.029 A 
ATOM      3  C   UNL     1      -1.698  10.224  -4.378  0.00  0.00    +0.023 A 
ATOM      4  C   UNL     1      -1.621   8.846  -4.328  0.00  0.00    +0.008 A 
ATOM      5  C   UNL     1      -1.699   8.191  -3.113  0.00  0.00    -0.018 A 
ATOM      6  C   UNL     1      -1.861   8.912  -1.944  0.00  0.00    +0.008 A 
ATOM      7  C   UNL     1      -1.933  10.291  -1.986  0.00  0.00    +0.023 A 
BRANCH   2   9
ATOM      8  C   UNL     1      -1.981  13.034  -4.544  0.00  0.00    +0.129 C 
ATOM      9  N   UNL     1      -1.934  12.346  -3.252  0.00  0.00    -0.336 N 
ATOM     10  C   UNL     1      -1.969  13.119  -2.008  0.00  0.00    +0.129 C 
ENDBRANCH   2   9
ENDBRANCH   1   5
BRANCH   1  11
ATOM     11  C   UNL     1      -2.905   6.129  -2.522  0.00  0.00    +0.239 C 
ATOM     12  O   UNL     1      -2.901   5.464  -1.508  0.00  0.00    -0.273 OA
ATOM     13  N   UNL     1      -4.065   6.369  -3.166  0.00  0.00    -0.311 N 
ATOM     14  H   UNL     1      -4.069   6.900  -3.977  0.00  0.00    +0.149 HD
BRANCH  13  15
ATOM     15  C   UNL     1      -5.320   5.826  -2.640  0.00  0.00    +0.135 C 
BRANCH  15  16
ATOM     16  C   UNL     1      -6.477   6.242  -3.551  0.00  0.00    +0.135 C 
ATOM     17  C   UNL     1      -7.822   5.753  -2.969  0.00  0.00    +0.035 C 
ATOM     18  C   UNL     1      -8.643   5.344  -4.213  0.00  0.00    +0.031 C 
ATOM     19  C   UNL     1      -7.697   5.634  -5.399  0.00  0.00    +0.160 C 
ATOM     20  O   UNL     1      -6.367   5.586  -4.833  0.00  0.00    -0.375 OA
ENDBRANCH  15  16
ENDBRANCH  13  15
ENDBRANCH   1  11
BRANCH   1  21
ATOM     21  N   UNL     1      -0.507   6.289  -2.191  0.00  0.00    -0.254 N 
ATOM     22  C   UNL     1      -0.157   4.991  -2.096  0.00  0.00    +0.242 C 
ATOM     23  O   UNL     1      -0.672   4.169  -2.823  0.00  0.00    -0.273 OA
BRANCH  21  24
ATOM     24  C   UNL     1       0.188   7.258  -1.455  0.00  0.00    +0.038 A 
ATOM     25  C   UNL     1       1.010   8.168  -2.107  0.00  0.00    +0.026 A 
ATOM     26  C   UNL     1       1.691   9.125  -1.380  0.00  0.00    +0.040 A 
ATOM     27  C   UNL     1       1.562   9.171  -0.002  0.00  0.00    +0.124 A 
ATOM     28  C   UNL     1       0.747   8.261   0.650  0.00  0.00    +0.040 A 
ATOM     29  C   UNL     1       0.060   7.305  -0.073  0.00  0.00    +0.026 A 
ATOM     30  F   UNL     1       2.233  10.104   0.707  0.00  0.00    -0.205 F 
ENDBRANCH  21  24
BRANCH  22  31
ATOM     31  C   UNL     1       0.876   4.561  -1.086  0.00  0.00    +0.242 C 
BRANCH  31  32
ATOM     32  N   UNL     1       1.025   3.105  -1.129  0.00  0.00    -0.235 N 
ATOM     33  C   UNL     1       0.320   2.183  -0.392  0.00  0.00    +0.090 A 
ATOM     34  C   UNL     1      -0.685   2.276   0.566  0.00  0.00    +0.029 A 
ATOM     35  C   UNL     1      -1.193   1.140   1.130  0.00  0.00    +0.002 A 
ATOM     36  C   UNL     1      -0.715  -0.109   0.756  0.00  0.00    +0.002 A 
ATOM     37  C   UNL     1       0.270  -0.228  -0.180  0.00  0.00    +0.032 A 
ATOM     38  C   UNL     1       0.808   0.922  -0.774  0.00  0.00    +0.113 A 
ATOM     39  N   UNL     1       1.764   1.118  -1.704  0.00  0.00    -0.129 NA
ATOM     40  N   UNL     1       1.914   2.375  -1.932  0.00  0.00    -0.064 NA
ENDBRANCH  31  32
ENDBRANCH  22  31
ENDBRANCH   1  21
TORSDOF 9
