REMARK  Name = ZINC37443681
REMARK  7 active torsions:
REMARK  status: ('A' for Active; 'I' for Inactive)
REMARK    1  A    between atoms: C_1  and  C_2
REMARK    2  A    between atoms: C_7  and  N_12
REMARK    3  A    between atoms: C_9  and  C_11
REMARK    4  A    between atoms: C_13  and  C_15
REMARK    5  A    between atoms: C_15  and  C_36
REMARK    6  A    between atoms: N_27  and  C_28
REMARK    7  A    between atoms: C_28  and  C_29
REMARK                            x       y       z     vdW  Elec       q    Type
REMARK                         _______ _______ _______ _____ _____    ______ ____
ROOT
ATOM      1  C   UNL     1       1.151  -0.554   5.877  0.00  0.00    +0.129 C 
ATOM      2  C   UNL     1       1.100   0.482   7.000  0.00  0.00    +0.157 C 
ATOM      3  N   UNL     1       2.121   1.505   6.757  0.00  0.00    -0.331 N 
ATOM      4  C   UNL     1       2.141   2.822   7.107  0.00  0.00    +0.088 A 
ATOM      5  C   UNL     1       1.444   3.880   7.738  0.00  0.00    +0.067 A 
ATOM      6  C   UNL     1       2.221   4.974   7.659  0.00  0.00    +0.198 A 
ATOM      7  O   UNL     1       3.361   4.667   7.018  0.00  0.00    -0.461 OA
ATOM      8  C   UNL     1       3.348   3.365   6.664  0.00  0.00    +0.153 A 
ATOM      9  C   UNL     1       4.064   2.342   6.025  0.00  0.00    +0.079 A 
ATOM     10  C   UNL     1       3.303   1.212   6.081  0.00  0.00    +0.109 A 
ATOM     11  C   UNL     1       3.553  -0.136   5.555  0.00  0.00    +0.264 C 
ATOM     12  O   UNL     1       4.640  -0.461   5.115  0.00  0.00    -0.268 OA
ATOM     13  N   UNL     1       2.509  -0.997   5.584  0.00  0.00    -0.276 N 
ATOM     14  C   UNL     1       0.313  -1.767   6.287  0.00  0.00    +0.043 C 
ENDROOT
BRANCH   1  16
ATOM     15  N   UNL     1       1.337   0.740   3.777  0.00  0.00    -0.310 N 
ATOM     16  C   UNL     1       0.556   0.049   4.631  0.00  0.00    +0.238 C 
ATOM     17  O   UNL     1      -0.626  -0.086   4.396  0.00  0.00    -0.273 OA
ATOM     18  H   UNL     1       2.265   0.911   3.999  0.00  0.00    +0.149 HD
BRANCH  15  24
ATOM     19  C   UNL     1      -0.447   3.366   0.928  0.00  0.00    +0.008 C 
ATOM     20  C   UNL     1       1.013   2.959   0.721  0.00  0.00    -0.009 C 
ATOM     21  C   UNL     1       1.089   1.853  -0.334  0.00  0.00    +0.003 C 
ATOM     22  C   UNL     1       0.283   0.641   0.138  0.00  0.00    +0.002 C 
ATOM     23  C   UNL     1       0.860   0.127   1.458  0.00  0.00    +0.022 C 
ATOM     24  C   UNL     1       0.784   1.232   2.513  0.00  0.00    +0.076 C 
ATOM     25  C   UNL     1       1.590   2.444   2.041  0.00  0.00    +0.009 C 
ATOM     26  C   UNL     1       1.514   3.550   3.096  0.00  0.00    +0.009 C 
ENDBRANCH  15  24
ENDBRANCH   1  16
BRANCH  13  27
ATOM     27  C   UNL     1       2.751  -2.416   5.313  0.00  0.00    +0.147 C 
BRANCH  27  28
ATOM     28  C   UNL     1       2.498  -2.699   3.854  0.00  0.00    +0.005 A 
ATOM     29  C   UNL     1       1.296  -3.252   3.455  0.00  0.00    +0.008 A 
ATOM     30  C   UNL     1       1.065  -3.511   2.117  0.00  0.00    +0.000 A 
ATOM     31  C   UNL     1       2.035  -3.219   1.177  0.00  0.00    +0.003 A 
ATOM     32  C   UNL     1       3.238  -2.666   1.573  0.00  0.00    +0.038 A 
ATOM     33  C   UNL     1       3.469  -2.400   2.913  0.00  0.00    +0.128 A 
ATOM     34  F   UNL     1       4.642  -1.855   3.301  0.00  0.00    -0.205 F 
ENDBRANCH  27  28
ENDBRANCH  13  27
TORSDOF 4
