REMARK  Name = ZINC09946386
REMARK  9 active torsions:
REMARK  status: ('A' for Active; 'I' for Inactive)
REMARK    1  A    between atoms: C_2  and  C_3
REMARK    2  A    between atoms: C_3  and  N_4
REMARK    3  A    between atoms: C_8  and  C_10
REMARK    4  A    between atoms: C_10  and  S_11
REMARK    5  A    between atoms: S_11  and  C_12
REMARK    6  A    between atoms: C_15  and  C_27
REMARK    7  A    between atoms: N_16  and  C_17
REMARK    8  A    between atoms: C_22  and  C_23
REMARK    9  A    between atoms: C_27  and  N_58
REMARK                            x       y       z     vdW  Elec       q    Type
REMARK                         _______ _______ _______ _____ _____    ______ ____
ROOT
ATOM      1  C   UNL     1      -1.734   2.748  -2.691  0.00  0.00    +0.197 A 
ATOM      2  N   UNL     1      -2.249   1.541  -2.709  0.00  0.00    -0.122 NA
ATOM      3  N   UNL     1      -1.603   0.777  -1.902  0.00  0.00    -0.135 NA
ATOM      4  C   UNL     1      -0.650   1.446  -1.317  0.00  0.00    +0.122 A 
ATOM      5  N   UNL     1      -0.695   2.726  -1.801  0.00  0.00    -0.275 N 
ENDROOT
BRANCH   5   6
ATOM      6  C   UNL     1       0.147   3.793  -1.455  0.00  0.00    +0.062 A 
ATOM      7  C   UNL     1      -0.245   4.703  -0.482  0.00  0.00    +0.027 A 
ATOM      8  C   UNL     1       0.586   5.752  -0.144  0.00  0.00    +0.002 A 
ATOM      9  C   UNL     1       1.810   5.896  -0.772  0.00  0.00    +0.001 A 
ATOM     10  C   UNL     1       2.204   4.992  -1.741  0.00  0.00    +0.014 A 
ATOM     11  C   UNL     1       1.378   3.938  -2.080  0.00  0.00    +0.079 A 
BRANCH  11  12
ATOM     12  C   UNL     1       1.811   2.950  -3.132  0.00  0.00    +0.419 C 
ATOM     13  F   UNL     1       3.022   3.367  -3.694  0.00  0.00    -0.166 F 
ATOM     14  F   UNL     1       1.977   1.689  -2.548  0.00  0.00    -0.166 F 
ATOM     15  F   UNL     1       0.835   2.875  -4.132  0.00  0.00    -0.166 F 
ENDBRANCH  11  12
ENDBRANCH   5   6
BRANCH   1  16
ATOM     16  S   UNL     1      -2.277   4.134  -3.633  0.00  0.00    -0.076 S 
BRANCH  16  17
ATOM     17  C   UNL     1      -3.651   3.380  -4.539  0.00  0.00    +0.173 C 
BRANCH  17  22
ATOM     18  N   UNL     1      -6.955   4.655  -7.789  0.00  0.00    -0.296 N 
ATOM     19  C   UNL     1      -5.906   4.992  -7.014  0.00  0.00    +0.306 C 
ATOM     20  O   UNL     1      -5.472   6.128  -7.039  0.00  0.00    -0.252 OA
ATOM     21  N   UNL     1      -5.337   4.072  -6.211  0.00  0.00    -0.239 N 
ATOM     22  C   UNL     1      -4.287   4.409  -5.436  0.00  0.00    +0.231 C 
ATOM     23  O   UNL     1      -3.854   5.542  -5.462  0.00  0.00    -0.274 OA
ATOM     24  H   UNL     1      -7.301   3.749  -7.769  0.00  0.00    +0.151 HD
ATOM     25  H   UNL     1      -5.683   3.166  -6.191  0.00  0.00    +0.159 HD
BRANCH  18  26
ATOM     26  C   UNL     1      -7.574   5.656  -8.662  0.00  0.00    +0.132 C 
BRANCH  26  28
ATOM     27  C   UNL     1      -9.913   5.559  -9.354  0.00  0.00    +0.005 C 
ATOM     28  C   UNL     1      -8.718   5.027  -9.415  0.00  0.00    -0.016 C 
ENDBRANCH  26  28
ENDBRANCH  18  26
ENDBRANCH  17  22
ENDBRANCH  16  17
ENDBRANCH   1  16
BRANCH   4  29
ATOM     29  C   UNL     1       0.325   0.908  -0.302  0.00  0.00    -0.001 C 
BRANCH  29  35
ATOM     30  C   UNL     1      -0.606   2.295   1.450  0.00  0.00    -0.078 C 
ATOM     31  C   UNL     1      -1.381   2.263   2.770  0.00  0.00    -0.019 C 
ATOM     32  C   UNL     1      -0.534   1.562   3.835  0.00  0.00    -0.004 C 
ATOM     33  C   UNL     1      -0.184   0.151   3.352  0.00  0.00    -0.019 C 
ATOM     34  C   UNL     1       0.556   0.245   2.015  0.00  0.00    -0.078 C 
ATOM     35  N   UNL     1      -0.322   0.907   1.027  0.00  0.00    +0.384 N 
ATOM     36  H   UNL     1      -1.206   0.390   0.967  0.00  0.00    -0.081 HD
ENDBRANCH  29  35
ENDBRANCH   4  29
TORSDOF 9
