REMARK  Name = ZINC42107858
REMARK  5 active torsions:
REMARK  status: ('A' for Active; 'I' for Inactive)
REMARK    1  A    between atoms: C_1  and  C_2
REMARK    2  A    between atoms: C_5  and  C_21
REMARK    3  A    between atoms: C_8  and  N_13
REMARK    4  A    between atoms: N_13  and  C_14
REMARK    5  A    between atoms: C_14  and  C_15
REMARK                            x       y       z     vdW  Elec       q    Type
REMARK                         _______ _______ _______ _____ _____    ______ ____
ROOT
ATOM      1  C   UNL     1      -0.018   1.503   0.010  0.00  0.00    +0.044 C 
ATOM      2  C   UNL     1       0.002  -0.004   0.002  0.00  0.00    -0.047 A 
ATOM      3  C   UNL     1       0.006  -0.691  -1.200  0.00  0.00    +0.004 A 
ATOM      4  C   UNL     1       0.025  -2.073  -1.202  0.00  0.00    +0.005 A 
ATOM      5  C   UNL     1       0.040  -2.773  -0.013  0.00  0.00    -0.029 A 
ATOM      6  C   UNL     1       0.036  -2.089   1.200  0.00  0.00    +0.039 A 
ATOM      7  C   UNL     1       0.023  -0.700   1.190  0.00  0.00    -0.028 A 
ATOM      8  C   UNL     1       0.030  -0.263   2.636  0.00  0.00    +0.050 C 
ATOM      9  C   UNL     1       0.055  -1.562   3.413  0.00  0.00    +0.208 C 
ATOM     10  O   UNL     1       0.068  -1.680   4.620  0.00  0.00    -0.277 OA
ATOM     11  N   UNL     1       0.048  -2.561   2.514  0.00  0.00    -0.286 N 
ATOM     12  C   UNL     1       0.061  -4.279  -0.028  0.00  0.00    +0.045 C 
ATOM     13  H   UNL     1       0.061  -3.501   2.750  0.00  0.00    +0.155 HD
ENDROOT
BRANCH   8  14
ATOM     14  N   UNL     1      -1.184   0.503   2.949  0.00  0.00    +0.392 N 
ATOM     15  H   UNL     1      -1.269   1.276   2.306  0.00  0.00    -0.084 HD
ATOM     16  H   UNL     1      -1.991  -0.096   2.864  0.00  0.00    -0.084 HD
BRANCH  14  17
ATOM     17  C   UNL     1      -1.098   1.017   4.323  0.00  0.00    -0.038 C 
BRANCH  17  18
ATOM     18  C   UNL     1      -2.344   1.803   4.643  0.00  0.00    -0.026 A 
ATOM     19  C   UNL     1      -3.508   1.372   5.187  0.00  0.00    +0.010 A 
ATOM     20  C   UNL     1      -4.528   2.282   5.394  0.00  0.00    +0.023 A 
ATOM     21  C   UNL     1      -4.333   3.579   5.047  0.00  0.00    +0.055 A 
ATOM     22  S   UNL     1      -2.664   3.544   4.413  0.00  0.00    -0.088 S 
ATOM     23 BR   UNL     1      -5.518   5.044   5.202  0.00  0.00    -0.043 Br
ENDBRANCH  17  18
ENDBRANCH  14  17
ENDBRANCH   8  14
TORSDOF 3
