REMARK  Name = ZINC36510460
REMARK  21 active torsions:
REMARK  status: ('A' for Active; 'I' for Inactive)
REMARK    1  A    between atoms: C_1  and  C_2
REMARK    2  A    between atoms: C_2  and  C_3
REMARK    3  A    between atoms: C_3  and  C_4
REMARK    4  A    between atoms: C_4  and  C_5
REMARK    5  A    between atoms: C_5  and  C_6
REMARK    6  A    between atoms: C_6  and  N_7
REMARK    7  A    between atoms: N_7  and  C_8
REMARK    8  A    between atoms: C_8  and  C_10
REMARK    9  A    between atoms: C_8  and  C_20
REMARK   10  A    between atoms: C_13  and  C_16
REMARK   11  A    between atoms: N_22  and  C_23
REMARK   12  A    between atoms: C_23  and  C_24
REMARK   13  A    between atoms: C_23  and  C_25
REMARK   14  A    between atoms: C_23  and  C_26
REMARK   15  A    between atoms: C_27  and  C_29
REMARK   16  A    between atoms: C_29  and  C_31
REMARK   17  A    between atoms: C_29  and  C_33
REMARK   18  A    between atoms: C_31  and  C_32
REMARK   19  A    between atoms: C_33  and  C_34
REMARK   20  A    between atoms: C_34  and  C_35
REMARK   21  A    between atoms: C_35  and  C_36
REMARK                            x       y       z     vdW  Elec       q    Type
REMARK                         _______ _______ _______ _____ _____    ______ ____
ROOT
ATOM      1  C   UNL     1       1.416  -5.418   3.901  0.00  0.00    +0.192 C 
ENDROOT
BRANCH   1   2
ATOM      2  C   UNL     1       1.757  -6.871   4.107  0.00  0.00    -0.018 A 
ATOM      3  C   UNL     1       2.233  -7.625   3.051  0.00  0.00    +0.006 A 
ATOM      4  C   UNL     1       2.546  -8.958   3.239  0.00  0.00    +0.013 A 
ATOM      5  C   UNL     1       2.384  -9.537   4.484  0.00  0.00    +0.055 A 
ATOM      6  C   UNL     1       1.909  -8.783   5.541  0.00  0.00    +0.013 A 
ATOM      7  C   UNL     1       1.600  -7.448   5.353  0.00  0.00    +0.006 A 
BRANCH   5   8
ATOM      8  C   UNL     1       2.724 -10.991   4.690  0.00  0.00    +0.417 C 
ATOM      9  F   UNL     1       4.066 -11.106   5.070  0.00  0.00    -0.166 F 
ATOM     10  F   UNL     1       1.908 -11.524   5.693  0.00  0.00    -0.166 F 
ATOM     11  F   UNL     1       2.516 -11.692   3.497  0.00  0.00    -0.166 F 
ENDBRANCH   5   8
ENDBRANCH   1   2
BRANCH   1  12
ATOM     12  C   UNL     1       0.069  -5.308   3.234  0.00  0.00    +0.238 C 
ATOM     13  O   UNL     1      -0.026  -4.785   2.144  0.00  0.00    -0.273 OA
ATOM     14  N   UNL     1      -1.029  -5.790   3.848  0.00  0.00    -0.309 N 
ATOM     15  H   UNL     1      -0.953  -6.209   4.720  0.00  0.00    +0.149 HD
BRANCH  14  16
ATOM     16  C   UNL     1      -2.338  -5.683   3.199  0.00  0.00    +0.026 C 
ATOM     17  C   UNL     1      -2.306  -6.426   1.861  0.00  0.00    +0.031 C 
ATOM     18  C   UNL     1      -3.407  -6.304   4.101  0.00  0.00    +0.031 C 
ATOM     19  C   UNL     1      -2.668  -4.209   2.957  0.00  0.00    +0.031 C 
ENDBRANCH  14  16
ENDBRANCH   1  12
BRANCH   1  20
ATOM     20  N   UNL     1       2.434  -4.792   3.054  0.00  0.00    -0.286 N 
ATOM     21  C   UNL     1       3.562  -4.303   3.605  0.00  0.00    +0.220 C 
ATOM     22  O   UNL     1       3.703  -4.315   4.809  0.00  0.00    -0.275 OA
BRANCH  20  23
ATOM     23  C   UNL     1       2.225  -4.698   1.606  0.00  0.00    +0.109 C 
BRANCH  23  24
ATOM     24  C   UNL     1       1.751  -3.288   1.250  0.00  0.00    +0.019 C 
BRANCH  24  25
ATOM     25  C   UNL     1       1.488  -3.203  -0.255  0.00  0.00    +0.002 C 
BRANCH  25  26
ATOM     26  C   UNL     1       1.014  -1.793  -0.611  0.00  0.00    -0.000 C 
BRANCH  26  28
ATOM     27  C   UNL     1       0.278  -0.298  -2.473  0.00  0.00    +0.004 C 
ATOM     28  C   UNL     1       0.751  -1.708  -2.116  0.00  0.00    -0.003 C 
ENDBRANCH  26  28
ENDBRANCH  25  26
ENDBRANCH  24  25
ENDBRANCH  23  24
ENDBRANCH  20  23
BRANCH  21  29
ATOM     29  C   UNL     1       4.649  -3.741   2.724  0.00  0.00    +0.075 C 
BRANCH  29  30
ATOM     30  C   UNL     1       5.893  -4.627   2.821  0.00  0.00    +0.009 C 
ATOM     31  C   UNL     1       5.521  -6.068   2.467  0.00  0.00    +0.004 C 
ENDBRANCH  29  30
BRANCH  29  32
ATOM     32  C   UNL     1       4.995  -2.323   3.184  0.00  0.00    +0.013 C 
BRANCH  32  33
ATOM     33  C   UNL     1       6.007  -1.706   2.216  0.00  0.00    +0.000 C 
BRANCH  33  34
ATOM     34  C   UNL     1       6.353  -0.289   2.676  0.00  0.00    -0.003 C 
ATOM     35  C   UNL     1       7.365   0.328   1.708  0.00  0.00    +0.004 C 
ENDBRANCH  33  34
ENDBRANCH  32  33
ENDBRANCH  29  32
ENDBRANCH  21  29
ENDBRANCH   1  20
TORSDOF 15
