REMARK  Name = ZINC02408200
REMARK  5 active torsions:
REMARK  status: ('A' for Active; 'I' for Inactive)
REMARK    1  A    between atoms: C_4  and  C_7
REMARK    2  A    between atoms: C_7  and  C_8
REMARK    3  A    between atoms: C_8  and  C_9
REMARK    4  A    between atoms: C_17  and  C_29
REMARK    5  A    between atoms: C_20  and  C_23
REMARK                            x       y       z     vdW  Elec       q    Type
REMARK                         _______ _______ _______ _____ _____    ______ ____
ROOT
ATOM      1  C   UNL     1       5.487  -1.699   1.381  0.00  0.00    +0.220 C 
ATOM      2  O   UNL     1       6.005  -1.990   0.324  0.00  0.00    -0.275 OA
ATOM      3  N   UNL     1       6.087  -2.034   2.541  0.00  0.00    -0.253 N 
ATOM      4  C   UNL     1       7.307  -2.716   2.525  0.00  0.00    +0.242 A 
ATOM      5  N   UNL     1       7.978  -3.086   1.424  0.00  0.00    -0.180 NA
ATOM      6  C   UNL     1       9.076  -3.702   1.769  0.00  0.00    +0.216 A 
ATOM      7  N   UNL     1       9.132  -3.738   3.123  0.00  0.00    -0.224 N 
ATOM      8  N   UNL     1       7.984  -3.094   3.586  0.00  0.00    -0.131 NA
ATOM      9  C   UNL     1      10.221  -4.346   3.886  0.00  0.00    +0.143 C 
ATOM     10  C   UNL     1      11.447  -4.485   2.975  0.00  0.00    +0.058 C 
ATOM     11  C   UNL     1      11.036  -5.138   1.651  0.00  0.00    +0.106 C 
ATOM     12  N   UNL     1      10.068  -4.256   0.971  0.00  0.00    -0.307 N 
ATOM     13  H   UNL     1       5.672  -1.801   3.386  0.00  0.00    +0.158 HD
ATOM     14  H   UNL     1      10.122  -4.073   0.020  0.00  0.00    +0.149 HD
ENDROOT
BRANCH   9  15
ATOM     15  C   UNL     1      10.562  -3.470   5.065  0.00  0.00    -0.023 A 
ATOM     16  C   UNL     1      10.979  -2.168   4.861  0.00  0.00    +0.007 A 
ATOM     17  C   UNL     1      11.291  -1.365   5.941  0.00  0.00    +0.020 A 
ATOM     18  C   UNL     1      11.186  -1.864   7.227  0.00  0.00    +0.041 A 
ATOM     19  C   UNL     1      10.768  -3.167   7.431  0.00  0.00    +0.020 A 
ATOM     20  C   UNL     1      10.451  -3.968   6.350  0.00  0.00    +0.007 A 
ATOM     21 CL   UNL     1      11.578  -0.855   8.585  0.00  0.00    -0.084 Cl
ENDBRANCH   9  15
BRANCH  11  22
ATOM     22  C   UNL     1      10.400  -6.478   1.923  0.00  0.00    -0.027 A 
ATOM     23  C   UNL     1       9.078  -6.547   2.320  0.00  0.00    +0.005 A 
ATOM     24  C   UNL     1       8.495  -7.775   2.570  0.00  0.00    +0.000 A 
ATOM     25  C   UNL     1       9.235  -8.934   2.423  0.00  0.00    +0.000 A 
ATOM     26  C   UNL     1      10.557  -8.864   2.025  0.00  0.00    +0.000 A 
ATOM     27  C   UNL     1      11.138  -7.636   1.771  0.00  0.00    +0.005 A 
ENDBRANCH  11  22
BRANCH   1  28
ATOM     28  C   UNL     1       4.171  -0.963   1.399  0.00  0.00    +0.101 C 
BRANCH  28  29
ATOM     29  C   UNL     1       3.711  -0.707  -0.038  0.00  0.00    +0.044 C 
BRANCH  29  33
ATOM     30  C   UNL     1      -0.017   1.378   0.010  0.00  0.00    +0.000 A 
ATOM     31  C   UNL     1       1.171   2.086   0.002  0.00  0.00    +0.000 A 
ATOM     32  C   UNL     1       2.377   1.411  -0.013  0.00  0.00    +0.003 A 
ATOM     33  C   UNL     1       2.396   0.029  -0.020  0.00  0.00    -0.047 A 
ATOM     34  C   UNL     1       1.208  -0.679  -0.012  0.00  0.00    +0.003 A 
ATOM     35  C   UNL     1       0.002  -0.004   0.002  0.00  0.00    +0.000 A 
ENDBRANCH  29  33
ENDBRANCH  28  29
ENDBRANCH   1  28
TORSDOF 5
