REMARK  Name = ZINC63907569
REMARK  9 active torsions:
REMARK  status: ('A' for Active; 'I' for Inactive)
REMARK    1  A    between atoms: C_1  and  C_2
REMARK    2  A    between atoms: C_5  and  C_9
REMARK    3  A    between atoms: C_7  and  C_8
REMARK    4  A    between atoms: C_12  and  S_15
REMARK    5  A    between atoms: S_15  and  C_16
REMARK    6  A    between atoms: C_16  and  C_18
REMARK    7  A    between atoms: C_16  and  C_19
REMARK    8  A    between atoms: C_24  and  C_31
REMARK    9  A    between atoms: C_25  and  C_30
REMARK                            x       y       z     vdW  Elec       q    Type
REMARK                         _______ _______ _______ _____ _____    ______ ____
ROOT
ATOM      1  S   UNL     1      -1.390  -7.235  -1.371  0.00  0.00    -0.086 S 
ENDROOT
BRANCH   1   5
ATOM      2  C   UNL     1       0.059  -4.250  -0.021  0.00  0.00    +0.239 C 
ATOM      3  N   UNL     1       0.069  -4.976   1.048  0.00  0.00    -0.145 NA
ATOM      4  N   UNL     1       0.087  -6.338   0.713  0.00  0.00    -0.219 N 
ATOM      5  C   UNL     1       0.087  -6.379  -0.759  0.00  0.00    +0.340 C 
ATOM      6  O   UNL     1       0.064  -4.998  -1.151  0.00  0.00    -0.442 OA
ATOM      7  H   UNL     1       0.097  -7.092   1.323  0.00  0.00    +0.173 HD
BRANCH   2  12
ATOM      8  C   UNL     1      -0.018   1.503   0.010  0.00  0.00    +0.044 C 
ATOM      9  C   UNL     1       0.002  -0.004   0.002  0.00  0.00    -0.047 A 
ATOM     10  C   UNL     1       0.006  -0.686  -1.202  0.00  0.00    +0.004 A 
ATOM     11  C   UNL     1       0.024  -2.065  -1.217  0.00  0.00    +0.013 A 
ATOM     12  C   UNL     1       0.040  -2.773  -0.013  0.00  0.00    +0.038 A 
ATOM     13  C   UNL     1       0.036  -2.079   1.198  0.00  0.00    +0.016 A 
ATOM     14  C   UNL     1       0.023  -0.699   1.198  0.00  0.00    -0.047 A 
ATOM     15  C   UNL     1       0.025   0.052   2.504  0.00  0.00    +0.044 C 
ENDBRANCH   2  12
ENDBRANCH   1   5
BRANCH   1  16
ATOM     16  C   UNL     1      -2.768  -6.246  -0.729  0.00  0.00    +0.114 C 
ATOM     17  C   UNL     1      -2.737  -4.854  -1.364  0.00  0.00    +0.027 C 
BRANCH  16  18
ATOM     18  C   UNL     1      -4.072  -6.922  -1.066  0.00  0.00    +0.136 C 
ATOM     19  N   UNL     1      -4.161  -7.569  -2.203  0.00  0.00    -0.160 NA
ATOM     20  C   UNL     1      -5.273  -8.200  -2.592  0.00  0.00    +0.271 C 
ATOM     21  O   UNL     1      -5.322  -8.792  -3.657  0.00  0.00    -0.268 OA
ATOM     22  C   UNL     1      -6.458  -8.158  -1.677  0.00  0.00    +0.071 C 
ATOM     23  C   UNL     1      -7.666  -8.713  -1.854  0.00  0.00    -0.045 C 
ATOM     24  C   UNL     1      -8.697  -8.519  -0.765  0.00  0.00    +0.076 C 
ATOM     25  S   UNL     1      -7.763  -7.507   0.455  0.00  0.00    -0.098 S 
ATOM     26  C   UNL     1      -6.228  -7.399  -0.429  0.00  0.00    +0.111 C 
ATOM     27  N   UNL     1      -5.066  -6.837  -0.195  0.00  0.00    -0.226 NA
ATOM     28  C   UNL     1      -9.914  -7.757  -1.292  0.00  0.00    +0.024 C 
ATOM     29  C   UNL     1      -7.986  -9.503  -3.097  0.00  0.00    +0.041 C 
ENDBRANCH  16  18
ENDBRANCH   1  16
TORSDOF 4
