REMARK  Name = ZINC63039293
REMARK  7 active torsions:
REMARK  status: ('A' for Active; 'I' for Inactive)
REMARK    1  A    between atoms: C_1  and  C_2
REMARK    2  A    between atoms: C_2  and  C_3
REMARK    3  A    between atoms: C_2  and  C_4
REMARK    4  A    between atoms: C_4  and  C_6
REMARK    5  A    between atoms: C_4  and  O_17
REMARK    6  A    between atoms: C_6  and  C_7
REMARK    7  A    between atoms: C_8  and  N_14
REMARK                            x       y       z     vdW  Elec       q    Type
REMARK                         _______ _______ _______ _____ _____    ______ ____
ROOT
ATOM      1  C   UNL     1      -2.802  -2.638   0.133  0.00  0.00    +0.074 A 
ATOM      2  C   UNL     1      -3.308  -2.920   1.388  0.00  0.00    +0.148 A 
ATOM      3  C   UNL     1      -4.621  -3.347   1.508  0.00  0.00    +0.051 A 
ATOM      4  C   UNL     1      -5.381  -3.475   0.354  0.00  0.00    +0.038 A 
ATOM      5  C   UNL     1      -4.807  -3.174  -0.868  0.00  0.00    +0.126 A 
ATOM      6  N   UNL     1      -3.555  -2.766  -0.942  0.00  0.00    -0.256 NA
ATOM      7 BR   UNL     1      -7.179  -4.054   0.450  0.00  0.00    -0.049 Br
ENDROOT
BRANCH   2   8
ATOM      8  N   UNL     1      -2.457  -2.769   2.590  0.00  0.00    +0.058 N 
ATOM      9  O   UNL     1      -2.548  -3.561   3.499  0.00  0.00    -0.126 OA
ATOM     10  O   UNL     1      -1.671  -1.853   2.663  0.00  0.00    -0.126 OA
ENDBRANCH   2   8
BRANCH   1  11
ATOM     11  C   UNL     1      -1.376  -2.173  -0.008  0.00  0.00    +0.089 C 
BRANCH  11  12
ATOM     12  C   UNL     1      -1.339  -0.644  -0.043  0.00  0.00    +0.123 C 
BRANCH  12  14
ATOM     13  C   UNL     1       0.153   1.360  -0.095  0.00  0.00    +0.010 C 
ATOM     14  C   UNL     1       0.116  -0.169  -0.060  0.00  0.00    +0.012 C 
ATOM     15  C   UNL     1       0.830  -0.668   1.197  0.00  0.00    +0.010 C 
ENDBRANCH  12  14
BRANCH  12  16
ATOM     16  O   UNL     1      -2.006  -0.178  -1.218  0.00  0.00    -0.391 OA
ATOM     17  H   UNL     1      -1.613  -0.492  -2.044  0.00  0.00    +0.210 HD
ENDBRANCH  12  16
ENDBRANCH  11  12
ENDBRANCH   1  11
TORSDOF 5
