REMARK  Name = ZINC08843018
REMARK  11 active torsions:
REMARK  status: ('A' for Active; 'I' for Inactive)
REMARK    1  A    between atoms: C_1  and  C_2
REMARK    2  A    between atoms: C_2  and  C_4
REMARK    3  A    between atoms: C_6  and  C_10
REMARK    4  A    between atoms: C_12  and  C_15
REMARK    5  A    between atoms: N_16  and  N_17
REMARK    6  A    between atoms: C_18  and  C_20
REMARK    7  A    between atoms: N_22  and  N_23
REMARK    8  A    between atoms: C_24  and  C_25
REMARK    9  A    between atoms: C_27  and  C_30
REMARK   10  A    between atoms: C_32  and  C_36
REMARK   11  A    between atoms: C_36  and  C_38
REMARK                            x       y       z     vdW  Elec       q    Type
REMARK                         _______ _______ _______ _____ _____    ______ ____
ROOT
ATOM      1  N   UNL     1       0.076  -8.507   1.177  0.00  0.00    -0.199 N 
ATOM      2  C   UNL     1       0.077  -8.344   2.515  0.00  0.00    +0.320 C 
ATOM      3  O   UNL     1       0.067  -7.226   2.991  0.00  0.00    -0.263 OA
ATOM      4  H   UNL     1       0.084  -9.399   0.797  0.00  0.00    +0.178 HD
ENDROOT
BRANCH   2   5
ATOM      5  C   UNL     1       0.092  -9.533   3.408  0.00  0.00    +0.320 C 
ATOM      6  O   UNL     1       0.102 -10.651   2.932  0.00  0.00    -0.263 OA
ATOM      7  N   UNL     1       0.093  -9.370   4.746  0.00  0.00    -0.199 N 
ATOM      8  H   UNL     1       0.086  -8.478   5.126  0.00  0.00    +0.178 HD
BRANCH   7   9
ATOM      9  N   UNL     1       0.107 -10.490   5.588  0.00  0.00    -0.184 NA
ATOM     10  C   UNL     1       0.109 -10.332   6.882  0.00  0.00    +0.176 C 
BRANCH  10  11
ATOM     11  C   UNL     1       0.123 -11.502   7.761  0.00  0.00    +0.148 A 
ATOM     12  O   UNL     1       0.141 -12.790   7.364  0.00  0.00    -0.454 OA
ATOM     13  C   UNL     1       0.150 -13.591   8.447  0.00  0.00    +0.136 A 
ATOM     14  C   UNL     1       0.139 -12.812   9.566  0.00  0.00    +0.050 A 
ATOM     15  C   UNL     1       0.126 -11.478   9.140  0.00  0.00    +0.051 A 
BRANCH  13  16
ATOM     16  C   UNL     1       0.170 -15.067   8.426  0.00  0.00    +0.018 A 
ATOM     17  C   UNL     1       0.186 -15.748   7.210  0.00  0.00    +0.023 A 
ATOM     18  C   UNL     1       0.205 -17.143   7.200  0.00  0.00    +0.018 A 
ATOM     19  C   UNL     1       0.207 -17.848   8.409  0.00  0.00    +0.011 A 
ATOM     20  C   UNL     1       0.190 -17.165   9.609  0.00  0.00    +0.001 A 
ATOM     21  C   UNL     1       0.178 -15.785   9.626  0.00  0.00    +0.011 A 
BRANCH  18  22
ATOM     22  C   UNL     1       0.222 -17.872   5.921  0.00  0.00    +0.160 C 
ATOM     23  O   UNL     1       0.220 -17.260   4.874  0.00  0.00    -0.292 OA
ATOM     24  C   UNL     1       0.242 -19.379   5.913  0.00  0.00    +0.091 C 
ENDBRANCH  18  22
ENDBRANCH  13  16
ENDBRANCH  10  11
ENDBRANCH   7   9
ENDBRANCH   2   5
BRANCH   1  26
ATOM     25  C   UNL     1       0.060  -7.545  -0.959  0.00  0.00    +0.176 C 
ATOM     26  N   UNL     1       0.062  -7.387   0.335  0.00  0.00    -0.184 NA
BRANCH  25  29
ATOM     27  C   UNL     1       0.025  -4.286  -2.524  0.00  0.00    +0.136 A 
ATOM     28  O   UNL     1       0.035  -5.086  -1.441  0.00  0.00    -0.454 OA
ATOM     29  C   UNL     1       0.046  -6.375  -1.838  0.00  0.00    +0.148 A 
ATOM     30  C   UNL     1       0.043  -6.399  -3.217  0.00  0.00    +0.051 A 
ATOM     31  C   UNL     1       0.024  -5.065  -3.643  0.00  0.00    +0.050 A 
BRANCH  27  34
ATOM     32  C   UNL     1      -0.000  -0.733  -1.277  0.00  0.00    +0.018 A 
ATOM     33  C   UNL     1       0.013  -2.129  -1.287  0.00  0.00    +0.023 A 
ATOM     34  C   UNL     1       0.010  -2.810  -2.503  0.00  0.00    +0.018 A 
ATOM     35  C   UNL     1      -0.005  -2.092  -3.703  0.00  0.00    +0.011 A 
ATOM     36  C   UNL     1      -0.018  -0.712  -3.686  0.00  0.00    +0.001 A 
ATOM     37  C   UNL     1      -0.021  -0.029  -2.486  0.00  0.00    +0.011 A 
BRANCH  32  39
ATOM     38  C   UNL     1      -0.018   1.503   0.010  0.00  0.00    +0.091 C 
ATOM     39  C   UNL     1       0.002  -0.004   0.002  0.00  0.00    +0.160 C 
ATOM     40  O   UNL     1       0.020  -0.616   1.049  0.00  0.00    -0.292 OA
ENDBRANCH  32  39
ENDBRANCH  27  34
ENDBRANCH  25  29
ENDBRANCH   1  26
TORSDOF 9
