REMARK  Name = ZINC65742840
REMARK  22 active torsions:
REMARK  status: ('A' for Active; 'I' for Inactive)
REMARK    1  A    between atoms: C_1  and  C_2
REMARK    2  A    between atoms: C_3  and  C_31
REMARK    3  A    between atoms: C_4  and  O_30
REMARK    4  A    between atoms: C_5  and  O_28
REMARK    5  A    between atoms: C_6  and  O_26
REMARK    6  A    between atoms: C_7  and  O_8
REMARK    7  A    between atoms: O_8  and  C_9
REMARK    8  A    between atoms: C_11  and  O_25
REMARK    9  A    between atoms: C_13  and  O_24
REMARK   10  A    between atoms: C_15  and  O_23
REMARK   11  A    between atoms: C_17  and  C_20
REMARK   12  A    between atoms: O_26  and  C_27
REMARK   13  A    between atoms: O_28  and  C_29
REMARK   14  A    between atoms: C_31  and  C_32
REMARK   15  A    between atoms: C_32  and  C_33
REMARK   16  A    between atoms: C_33  and  C_34
REMARK   17  A    between atoms: C_34  and  C_35
REMARK   18  A    between atoms: C_35  and  C_36
REMARK   19  A    between atoms: C_36  and  C_37
REMARK   20  A    between atoms: C_37  and  C_38
REMARK   21  A    between atoms: C_38  and  C_39
REMARK   22  A    between atoms: C_39  and  C_40
REMARK                            x       y       z     vdW  Elec       q    Type
REMARK                         _______ _______ _______ _____ _____    ______ ____
ROOT
ATOM      1  C   UNL     1       0.161   1.454   0.470  0.00  0.00    +0.048 C 
ATOM      2  C   UNL     1       0.110  -0.033   0.231  0.00  0.00    +0.002 A 
ATOM      3  C   UNL     1       0.106  -0.525  -1.061  0.00  0.00    +0.004 A 
ATOM      4  C   UNL     1       0.059  -1.891  -1.285  0.00  0.00    +0.166 A 
ATOM      5  C   UNL     1       0.017  -2.771  -0.209  0.00  0.00    +0.207 A 
ATOM      6  C   UNL     1       0.021  -2.277   1.088  0.00  0.00    +0.208 A 
ATOM      7  C   UNL     1       0.073  -0.905   1.307  0.00  0.00    +0.172 A 
ENDROOT
BRANCH   6   8
ATOM      8  O   UNL     1      -0.022  -3.135   2.144  0.00  0.00    -0.488 OA
ATOM      9  C   UNL     1       1.227  -3.490   2.742  0.00  0.00    +0.277 C 
ENDBRANCH   6   8
BRANCH   5  10
ATOM     10  O   UNL     1      -0.030  -4.113  -0.428  0.00  0.00    -0.488 OA
ATOM     11  C   UNL     1       1.216  -4.779  -0.646  0.00  0.00    +0.277 C 
ENDBRANCH   5  10
BRANCH   4  12
ATOM     12  O   UNL     1       0.055  -2.372  -2.558  0.00  0.00    -0.503 OA
ATOM     13  H   UNL     1       0.937  -2.543  -2.917  0.00  0.00    +0.292 HD
ENDBRANCH   4  12
BRANCH   3  14
ATOM     14  C   UNL     1       0.153   0.428  -2.228  0.00  0.00    +0.039 C 
BRANCH  14  15
ATOM     15  C   UNL     1       1.610   0.699  -2.608  0.00  0.00    +0.005 C 
BRANCH  15  16
ATOM     16  C   UNL     1       1.657   1.665  -3.793  0.00  0.00    +0.000 C 
BRANCH  16  17
ATOM     17  C   UNL     1       3.115   1.936  -4.172  0.00  0.00    +0.000 C 
BRANCH  17  18
ATOM     18  C   UNL     1       3.162   2.903  -5.357  0.00  0.00    +0.000 C 
BRANCH  18  19
ATOM     19  C   UNL     1       4.619   3.174  -5.737  0.00  0.00    +0.000 C 
BRANCH  19  20
ATOM     20  C   UNL     1       4.666   4.141  -6.922  0.00  0.00    +0.001 C 
BRANCH  20  21
ATOM     21  C   UNL     1       6.123   4.411  -7.301  0.00  0.00    +0.011 C 
BRANCH  21  22
ATOM     22  C   UNL     1       6.171   5.378  -8.486  0.00  0.00    +0.125 C 
BRANCH  22  23
ATOM     23  C   UNL     1       7.606   5.645  -8.860  0.00  0.00    +0.356 C 
ATOM     24  O   UNL     1       8.508   5.111  -8.236  0.00  0.00    -0.246 OA
ATOM     25  O   UNL     1       7.866   6.394  -9.786  0.00  0.00    -0.246 OA
ENDBRANCH  22  23
ENDBRANCH  21  22
ENDBRANCH  20  21
ENDBRANCH  19  20
ENDBRANCH  18  19
ENDBRANCH  17  18
ENDBRANCH  16  17
ENDBRANCH  15  16
ENDBRANCH  14  15
ENDBRANCH   3  14
BRANCH   7  26
ATOM     26  O   UNL     1       0.083  -0.419   2.578  0.00  0.00    -0.457 OA
BRANCH  26  27
ATOM     27  C   UNL     1      -1.185  -0.142   3.176  0.00  0.00    +0.340 C 
ATOM     28  C   UNL     1      -0.976   0.620   4.487  0.00  0.00    +0.214 C 
ATOM     29  C   UNL     1      -2.335   0.859   5.152  0.00  0.00    +0.180 C 
ATOM     30  C   UNL     1      -3.030  -0.489   5.368  0.00  0.00    +0.186 C 
ATOM     31  C   UNL     1      -3.160  -1.208   4.023  0.00  0.00    +0.266 C 
ATOM     32  O   UNL     1      -1.864  -1.371   3.444  0.00  0.00    -0.322 OA
BRANCH  31  33
ATOM     33  C   UNL     1      -3.790  -2.561   4.235  0.00  0.00    +0.387 C 
ATOM     34  O   UNL     1      -4.939  -2.642   4.637  0.00  0.00    -0.243 OA
ATOM     35  O   UNL     1      -3.152  -3.573   4.005  0.00  0.00    -0.243 OA
ENDBRANCH  31  33
BRANCH  30  36
ATOM     36  O   UNL     1      -2.256  -1.287   6.265  0.00  0.00    -0.386 OA
ATOM     37  H   UNL     1      -2.638  -2.157   6.447  0.00  0.00    +0.210 HD
ENDBRANCH  30  36
BRANCH  29  38
ATOM     38  O   UNL     1      -2.144   1.507   6.411  0.00  0.00    -0.386 OA
ATOM     39  H   UNL     1      -2.965   1.690   6.889  0.00  0.00    +0.210 HD
ENDBRANCH  29  38
BRANCH  28  40
ATOM     40  O   UNL     1      -0.145  -0.149   5.360  0.00  0.00    -0.383 OA
ATOM     41  H   UNL     1       0.731  -0.342   4.999  0.00  0.00    +0.210 HD
ENDBRANCH  28  40
ENDBRANCH  26  27
ENDBRANCH   7  26
TORSDOF 19
