REMARK  Name = ZINC35969697
REMARK  11 active torsions:
REMARK  status: ('A' for Active; 'I' for Inactive)
REMARK    1  A    between atoms: C_1  and  C_2
REMARK    2  A    between atoms: C_2  and  C_3
REMARK    3  A    between atoms: C_4  and  C_31
REMARK    4  A    between atoms: C_5  and  C_25
REMARK    5  A    between atoms: C_8  and  C_13
REMARK    6  A    between atoms: C_14  and  N_16
REMARK    7  A    between atoms: N_16  and  C_17
REMARK    8  A    between atoms: N_16  and  C_18
REMARK    9  A    between atoms: N_22  and  C_24
REMARK   10  A    between atoms: C_31  and  O_33
REMARK   11  A    between atoms: O_33  and  C_34
REMARK                            x       y       z     vdW  Elec       q    Type
REMARK                         _______ _______ _______ _____ _____    ______ ____
ROOT
ATOM      1  C   UNL     1       0.651  -1.000   1.377  0.00  0.00    +0.056 C 
ATOM      2  C   UNL     1       0.052  -1.143   2.615  0.00  0.00    +0.083 C 
ATOM      3  C   UNL     1       0.952  -1.235   3.827  0.00  0.00    +0.150 C 
ATOM      4  N   UNL     1       2.419  -1.165   3.588  0.00  0.00    -0.267 N 
ATOM      5  C   UNL     1       3.419  -1.228   4.537  0.00  0.00    +0.048 C 
ATOM      6  C   UNL     1       4.697  -1.145   4.107  0.00  0.00    +0.072 C 
ATOM      7  S   UNL     1       4.484  -0.975   2.346  0.00  0.00    -0.060 S 
ATOM      8  C   UNL     1       2.807  -1.022   2.285  0.00  0.00    +0.166 C 
ATOM      9  N   UNL     1       1.969  -0.953   1.272  0.00  0.00    -0.229 NA
ENDROOT
BRANCH   3  10
ATOM     10  C   UNL     1       0.582  -0.117   4.766  0.00  0.00    -0.022 A 
ATOM     11  C   UNL     1       0.906   1.189   4.448  0.00  0.00    +0.006 A 
ATOM     12  C   UNL     1       0.566   2.215   5.310  0.00  0.00    +0.000 A 
ATOM     13  C   UNL     1      -0.099   1.935   6.489  0.00  0.00    +0.000 A 
ATOM     14  C   UNL     1      -0.424   0.630   6.806  0.00  0.00    +0.000 A 
ATOM     15  C   UNL     1      -0.088  -0.396   5.943  0.00  0.00    +0.006 A 
ENDBRANCH   3  10
BRANCH   5  16
ATOM     16  C   UNL     1       3.105  -1.380   5.965  0.00  0.00    +0.091 C 
ATOM     17  C   UNL     1       4.091  -1.623   6.849  0.00  0.00    +0.241 C 
ATOM     18  O   UNL     1       5.385  -1.596   6.446  0.00  0.00    -0.271 OA
BRANCH  17  19
ATOM     19  N   UNL     1       3.784  -1.902   8.170  0.00  0.00    -0.300 N 
ATOM     20  C   UNL     1       2.384  -1.995   8.592  0.00  0.00    +0.132 C 
BRANCH  19  21
ATOM     21  C   UNL     1       4.858  -2.102   9.146  0.00  0.00    +0.058 C 
ATOM     22  C   UNL     1       4.719  -3.486   9.821  0.00  0.00    +0.002 C 
ATOM     23  C   UNL     1       5.098  -3.193  11.294  0.00  0.00    -0.077 C 
ATOM     24  N   UNL     1       4.509  -1.851  11.536  0.00  0.00    +0.379 N 
ATOM     25  C   UNL     1       4.737  -1.080  10.291  0.00  0.00    -0.057 C 
ATOM     26  C   UNL     1       5.184  -1.198  12.665  0.00  0.00    -0.096 C 
ATOM     27  H   UNL     1       3.521  -1.932  11.719  0.00  0.00    -0.082 HD
ENDBRANCH  19  21
ENDBRANCH  17  19
ENDBRANCH   5  16
BRANCH   1  29
ATOM     28  C   UNL     1      -0.625   0.550  -0.078  0.00  0.00    +0.010 C 
ATOM     29  C   UNL     1      -0.203  -0.904   0.140  0.00  0.00    +0.053 C 
ENDBRANCH   1  29
BRANCH   2  30
ATOM     30  C   UNL     1      -1.341  -1.200   2.742  0.00  0.00    +0.339 C 
ATOM     31  O   UNL     1      -2.050  -1.011   1.769  0.00  0.00    -0.245 OA
BRANCH  30  32
ATOM     32  O   UNL     1      -1.899  -1.463   3.944  0.00  0.00    -0.465 OA
ATOM     33  C   UNL     1      -3.326  -1.506   4.001  0.00  0.00    +0.280 C 
ENDBRANCH  30  32
ENDBRANCH   2  30
TORSDOF 7
