REMARK  Name = ZINC08595169
REMARK  9 active torsions:
REMARK  status: ('A' for Active; 'I' for Inactive)
REMARK    1  A    between atoms: C_1  and  C_2
REMARK    2  A    between atoms: C_5  and  N_9
REMARK    3  A    between atoms: C_6  and  C_8
REMARK    4  A    between atoms: C_10  and  C_12
REMARK    5  A    between atoms: C_13  and  C_40
REMARK    6  A    between atoms: C_16  and  C_31
REMARK    7  A    between atoms: C_20  and  C_22
REMARK    8  A    between atoms: C_27  and  N_28
REMARK    9  A    between atoms: N_33  and  C_34
REMARK                            x       y       z     vdW  Elec       q    Type
REMARK                         _______ _______ _______ _____ _____    ______ ____
ROOT
ATOM      1  C   UNL     1       1.011  -4.726  -0.958  0.00  0.00    +0.060 C 
ATOM      2  C   UNL     1       0.993  -5.112  -2.242  0.00  0.00    +0.017 C 
ATOM      3  N   UNL     1       0.482  -6.327  -2.630  0.00  0.00    -0.302 N 
ATOM      4  C   UNL     1      -0.253  -7.034  -1.696  0.00  0.00    +0.134 A 
ATOM      5  C   UNL     1      -1.067  -8.138  -1.857  0.00  0.00    +0.096 A 
ATOM      6  C   UNL     1      -1.583  -8.457  -0.576  0.00  0.00    +0.149 A 
ATOM      7  N   UNL     1      -1.103  -7.599   0.284  0.00  0.00    -0.176 NA
ATOM      8  N   UNL     1      -0.270  -6.703  -0.381  0.00  0.00    -0.238 N 
ATOM      9  C   UNL     1       0.499  -5.583   0.168  0.00  0.00    +0.178 C 
ATOM     10  C   UNL     1       1.551  -4.185  -3.291  0.00  0.00    +0.061 C 
ATOM     11  H   UNL     1       0.630  -6.674  -3.524  0.00  0.00    +0.153 HD
ENDROOT
BRANCH   9  12
ATOM     12  C   UNL     1       1.662  -6.110   0.968  0.00  0.00    +0.012 A 
ATOM     13  C   UNL     1       2.811  -6.528   0.324  0.00  0.00    +0.008 A 
ATOM     14  C   UNL     1       3.878  -7.011   1.057  0.00  0.00    +0.000 A 
ATOM     15  C   UNL     1       3.797  -7.076   2.436  0.00  0.00    +0.002 A 
ATOM     16  C   UNL     1       2.648  -6.657   3.080  0.00  0.00    +0.033 A 
ATOM     17  C   UNL     1       1.582  -6.169   2.347  0.00  0.00    +0.132 A 
BRANCH  17  18
ATOM     18  N   UNL     1       0.354  -5.716   3.037  0.00  0.00    +0.057 N 
ATOM     19  O   UNL     1       0.436  -5.105   4.077  0.00  0.00    -0.126 OA
ATOM     20  O   UNL     1      -0.731  -5.957   2.562  0.00  0.00    -0.126 OA
ENDBRANCH  17  18
ENDBRANCH   9  12
BRANCH   1  22
ATOM     21  N   UNL     1       2.878  -3.285  -0.555  0.00  0.00    -0.281 N 
ATOM     22  C   UNL     1       1.544  -3.453  -0.645  0.00  0.00    +0.248 C 
ATOM     23  O   UNL     1       0.797  -2.510  -0.459  0.00  0.00    -0.270 OA
ATOM     24  H   UNL     1       3.475  -4.018  -0.771  0.00  0.00    +0.155 HD
BRANCH  21  29
ATOM     25  C   UNL     1       4.999   1.711   1.094  0.00  0.00    +0.044 C 
ATOM     26  C   UNL     1       4.436   0.384   0.656  0.00  0.00    -0.050 A 
ATOM     27  C   UNL     1       3.206   0.331   0.025  0.00  0.00    +0.005 A 
ATOM     28  C   UNL     1       2.687  -0.884  -0.377  0.00  0.00    +0.024 A 
ATOM     29  C   UNL     1       3.401  -2.053  -0.148  0.00  0.00    +0.037 A 
ATOM     30  C   UNL     1       4.636  -1.996   0.485  0.00  0.00    -0.029 A 
ATOM     31  C   UNL     1       5.152  -0.777   0.880  0.00  0.00    +0.008 A 
ATOM     32  C   UNL     1       5.414  -3.262   0.735  0.00  0.00    +0.045 C 
ENDBRANCH  21  29
ENDBRANCH   1  22
BRANCH   5  33
ATOM     33  C   UNL     1      -1.346  -8.845  -3.114  0.00  0.00    +0.253 C 
ATOM     34  O   UNL     1      -0.836  -8.465  -4.152  0.00  0.00    -0.270 OA
ATOM     35  N   UNL     1      -2.166  -9.914  -3.119  0.00  0.00    -0.281 N 
ATOM     36  H   UNL     1      -2.641 -10.164  -2.311  0.00  0.00    +0.155 HD
BRANCH  35  37
ATOM     37  C   UNL     1      -2.333 -10.663  -4.288  0.00  0.00    +0.034 A 
ATOM     38  C   UNL     1      -1.279 -10.800  -5.183  0.00  0.00    +0.023 A 
ATOM     39  C   UNL     1      -1.446 -11.540  -6.336  0.00  0.00    +0.002 A 
ATOM     40  C   UNL     1      -2.662 -12.144  -6.602  0.00  0.00    +0.000 A 
ATOM     41  C   UNL     1      -3.713 -12.009  -5.713  0.00  0.00    +0.002 A 
ATOM     42  C   UNL     1      -3.550 -11.275  -4.555  0.00  0.00    +0.023 A 
ENDBRANCH  35  37
ENDBRANCH   5  33
TORSDOF 6
