REMARK  Name = ZINC24056216
REMARK  2 active torsions:
REMARK  status: ('A' for Active; 'I' for Inactive)
REMARK    1  A    between atoms: N_9  and  C_10
REMARK    2  A    between atoms: C_10  and  C_11
REMARK                            x       y       z     vdW  Elec       q    Type
REMARK                         _______ _______ _______ _____ _____    ______ ____
ROOT
ATOM      1  C   UNL     1       0.937   0.436   2.590  0.00  0.00    +0.083 A 
ATOM      2  C   UNL     1      -0.209   1.223   2.465  0.00  0.00    +0.125 A 
ATOM      3  N   UNL     1      -0.820   1.651   3.565  0.00  0.00    -0.200 NA
ATOM      4  C   UNL     1      -0.358   1.329   4.764  0.00  0.00    +0.216 A 
ATOM      5  N   UNL     1       0.727   0.583   4.913  0.00  0.00    -0.203 NA
ATOM      6  C   UNL     1       1.390   0.127   3.859  0.00  0.00    +0.136 A 
ATOM      7 CL   UNL     1       2.811  -0.848   4.071  0.00  0.00    -0.062 Cl
ATOM      8  N   UNL     1      -1.022   1.786   5.889  0.00  0.00    -0.327 N 
ATOM      9  N   UNL     1      -0.698   1.558   1.213  0.00  0.00    -0.326 N 
ATOM     10  H   UNL     1      -0.650   1.526   6.891  0.00  0.00    +0.145 HD
ATOM     11  H   UNL     1      -1.922   2.409   5.781  0.00  0.00    +0.145 HD
ATOM     12  H   UNL     1      -1.602   2.179   1.124  0.00  0.00    +0.148 HD
ENDROOT
BRANCH   9  13
ATOM     13  C   UNL     1      -0.013   1.086   0.008  0.00  0.00    +0.134 C 
BRANCH  13  14
ATOM     14  C   UNL     1      -0.753   1.593  -1.232  0.00  0.00    +0.135 C 
ATOM     15  C   UNL     1      -0.121   1.004  -2.513  0.00  0.00    +0.035 C 
ATOM     16  C   UNL     1      -0.201   2.160  -3.535  0.00  0.00    +0.031 C 
ATOM     17  C   UNL     1      -0.872   3.309  -2.751  0.00  0.00    +0.160 C 
ATOM     18  O   UNL     1      -0.592   3.022  -1.364  0.00  0.00    -0.375 OA
ENDBRANCH  13  14
ENDBRANCH   9  13
TORSDOF 2
