REMARK  Name = ZINC35056635
REMARK  9 active torsions:
REMARK  status: ('A' for Active; 'I' for Inactive)
REMARK    1  A    between atoms: C_1  and  C_2
REMARK    2  A    between atoms: N_4  and  C_5
REMARK    3  A    between atoms: C_7  and  O_44
REMARK    4  A    between atoms: C_15  and  C_18
REMARK    5  A    between atoms: C_25  and  O_27
REMARK    6  A    between atoms: O_27  and  C_28
REMARK    7  A    between atoms: C_31  and  C_34
REMARK    8  A    between atoms: C_34  and  C_36
REMARK    9  A    between atoms: C_37  and  C_38
REMARK                            x       y       z     vdW  Elec       q    Type
REMARK                         _______ _______ _______ _____ _____    ______ ____
ROOT
ATOM      1  C   UNL     1      -1.136  -2.159   0.001  0.00  0.00    +0.173 C 
ATOM      2  C   UNL     1      -2.374  -2.692   0.728  0.00  0.00    +0.172 C 
ATOM      3  C   UNL     1      -3.630  -2.254  -0.027  0.00  0.00    +0.183 C 
ATOM      4  C   UNL     1      -3.550  -2.733  -1.480  0.00  0.00    +0.179 C 
ATOM      5  C   UNL     1      -4.760  -2.180  -2.245  0.00  0.00    +0.197 C 
ATOM      6  O   UNL     1      -4.791  -0.757  -2.091  0.00  0.00    -0.345 OA
ATOM      7  C   UNL     1      -4.859  -0.323  -0.731  0.00  0.00    +0.282 C 
ATOM      8  O   UNL     1      -3.731  -0.828  -0.011  0.00  0.00    -0.339 OA
ATOM      9  O   UNL     1      -2.344  -2.250  -2.076  0.00  0.00    -0.332 OA
ATOM     10  C   UNL     1      -1.148  -2.663  -1.444  0.00  0.00    +0.331 C 
ENDROOT
BRANCH   7  11
ATOM     11  C   UNL     1      -4.851   1.183  -0.684  0.00  0.00    +0.008 A 
ATOM     12  C   UNL     1      -3.841   1.848  -0.015  0.00  0.00    +0.008 A 
ATOM     13  C   UNL     1      -3.833   3.230   0.028  0.00  0.00    +0.000 A 
ATOM     14  C   UNL     1      -4.837   3.946  -0.597  0.00  0.00    +0.000 A 
ATOM     15  C   UNL     1      -5.847   3.281  -1.266  0.00  0.00    +0.000 A 
ATOM     16  C   UNL     1      -5.852   1.899  -1.313  0.00  0.00    +0.008 A 
ENDBRANCH   7  11
BRANCH   1  20
ATOM     17  C   UNL     1      -0.382   1.493   0.868  0.00  0.00    +0.109 C 
ATOM     18  C   UNL     1      -0.362  -0.014   0.860  0.00  0.00    +0.210 C 
ATOM     19  O   UNL     1       0.369  -0.614   1.619  0.00  0.00    -0.276 OA
ATOM     20  N   UNL     1      -1.156  -0.694   0.009  0.00  0.00    -0.304 N 
ATOM     21  H   UNL     1      -1.740  -0.213  -0.597  0.00  0.00    +0.149 HD
ENDBRANCH   1  20
BRANCH   2  22
ATOM     22  O   UNL     1      -2.410  -2.170   2.057  0.00  0.00    -0.387 OA
ATOM     23  H   UNL     1      -1.641  -2.406   2.594  0.00  0.00    +0.210 HD
ENDBRANCH   2  22
BRANCH  10  24
ATOM     24  O   UNL     1      -1.087  -4.091  -1.452  0.00  0.00    -0.462 OA
BRANCH  24  25
ATOM     25  C   UNL     1      -0.879  -4.693  -2.650  0.00  0.00    +0.124 A 
ATOM     26  C   UNL     1      -0.730  -3.921  -3.797  0.00  0.00    +0.046 A 
ATOM     27  C   UNL     1      -0.518  -4.527  -5.015  0.00  0.00    +0.015 A 
ATOM     28  C   UNL     1      -0.454  -5.921  -5.097  0.00  0.00    +0.022 A 
ATOM     29  C   UNL     1      -0.604  -6.694  -3.942  0.00  0.00    +0.015 A 
ATOM     30  C   UNL     1      -0.809  -6.079  -2.727  0.00  0.00    +0.046 A 
BRANCH  28  31
ATOM     31  C   UNL     1      -0.227  -6.576  -6.401  0.00  0.00    +0.186 C 
ATOM     32  O   UNL     1      -0.097  -5.901  -7.407  0.00  0.00    -0.287 OA
BRANCH  31  33
ATOM     33  C   UNL     1      -0.160  -8.035  -6.486  0.00  0.00    +0.052 C 
ATOM     34  C   UNL     1       0.047  -8.633  -7.678  0.00  0.00    +0.011 C 
BRANCH  34  35
ATOM     35  C   UNL     1       0.115 -10.101  -7.763  0.00  0.00    -0.025 A 
ATOM     36  C   UNL     1      -0.040 -10.879  -6.611  0.00  0.00    +0.008 A 
ATOM     37  C   UNL     1       0.025 -12.254  -6.699  0.00  0.00    +0.001 A 
ATOM     38  C   UNL     1       0.242 -12.863  -7.922  0.00  0.00    +0.000 A 
ATOM     39  C   UNL     1       0.397 -12.100  -9.066  0.00  0.00    +0.001 A 
ATOM     40  C   UNL     1       0.329 -10.725  -8.996  0.00  0.00    +0.008 A 
ENDBRANCH  34  35
ENDBRANCH  31  33
ENDBRANCH  28  31
ENDBRANCH  24  25
ENDBRANCH  10  24
TORSDOF 8
