REMARK  Name = ZINC13640717
REMARK  8 active torsions:
REMARK  status: ('A' for Active; 'I' for Inactive)
REMARK    1  A    between atoms: C_1  and  O_2
REMARK    2  A    between atoms: O_2  and  C_3
REMARK    3  A    between atoms: C_5  and  C_13
REMARK    4  A    between atoms: C_7  and  O_11
REMARK    5  A    between atoms: C_8  and  O_9
REMARK    6  A    between atoms: O_9  and  C_10
REMARK    7  A    between atoms: O_11  and  C_12
REMARK    8  A    between atoms: C_24  and  C_29
REMARK                            x       y       z     vdW  Elec       q    Type
REMARK                         _______ _______ _______ _____ _____    ______ ____
ROOT
ATOM      1  C   UNL     1      -2.487   8.053   0.079  0.00  0.00    +0.105 C 
ATOM      2  C   UNL     1      -3.482   7.223   0.869  0.00  0.00    +0.029 C 
ATOM      3  C   UNL     1      -4.933   7.720   0.909  0.00  0.00    +0.033 C 
ATOM      4  C   UNL     1      -5.704   6.408   1.065  0.00  0.00    -0.030 C 
ATOM      5  C   UNL     1      -4.995   5.403   0.566  0.00  0.00    -0.023 C 
ATOM      6  C   UNL     1      -3.705   5.932   0.026  0.00  0.00    +0.049 C 
ATOM      7  C   UNL     1      -2.445   5.158   0.039  0.00  0.00    -0.019 A 
ATOM      8  C   UNL     1      -2.425   3.785   0.028  0.00  0.00    +0.019 A 
ATOM      9  C   UNL     1      -1.207   3.099   0.025  0.00  0.00    +0.037 A 
ATOM     10  C   UNL     1      -0.008   3.818   0.023  0.00  0.00    +0.015 A 
ATOM     11  C   UNL     1      -0.031   5.192   0.036  0.00  0.00    +0.024 A 
ATOM     12  C   UNL     1      -1.242   5.880   0.045  0.00  0.00    +0.031 A 
ATOM     13  N   UNL     1      -1.230   7.274   0.076  0.00  0.00    -0.336 N 
ATOM     14  H   UNL     1      -0.381   7.742   0.095  0.00  0.00    +0.147 HD
ENDROOT
BRANCH   1  17
ATOM     15  C   UNL     1      -2.665  11.750   0.844  0.00  0.00    +0.165 A 
ATOM     16  C   UNL     1      -2.861  10.523   0.230  0.00  0.00    +0.055 A 
ATOM     17  C   UNL     1      -2.271   9.386   0.750  0.00  0.00    -0.020 A 
ATOM     18  C   UNL     1      -1.489   9.466   1.887  0.00  0.00    +0.055 A 
ATOM     19  C   UNL     1      -1.284  10.691   2.504  0.00  0.00    +0.165 A 
ATOM     20  C   UNL     1      -1.875  11.836   1.984  0.00  0.00    +0.204 A 
BRANCH  15  22
ATOM     21  C   UNL     1      -4.045  12.705  -0.842  0.00  0.00    +0.277 C 
ATOM     22  O   UNL     1      -3.245  12.868   0.332  0.00  0.00    -0.491 OA
ENDBRANCH  15  22
BRANCH  20  23
ATOM     23  O   UNL     1      -1.679  13.040   2.590  0.00  0.00    -0.488 OA
ATOM     24  C   UNL     1      -2.613  13.414   3.605  0.00  0.00    +0.277 C 
ENDBRANCH  20  23
BRANCH  19  25
ATOM     25  O   UNL     1      -0.510  10.770   3.619  0.00  0.00    -0.491 OA
ATOM     26  C   UNL     1       0.065   9.552   4.098  0.00  0.00    +0.277 C 
ENDBRANCH  19  25
ENDBRANCH   1  17
BRANCH   9  27
ATOM     27  C   UNL     1      -1.187   1.624   0.017  0.00  0.00    +0.242 C 
ATOM     28  O   UNL     1      -2.232   1.002   0.018  0.00  0.00    -0.270 OA
ATOM     29  N   UNL     1      -0.011   0.966   0.007  0.00  0.00    -0.325 N 
ATOM     30  H   UNL     1       0.002  -0.004   0.002  0.00  0.00    +0.145 HD
ATOM     31  H   UNL     1       0.822   1.462   0.002  0.00  0.00    +0.145 HD
ENDBRANCH   9  27
TORSDOF 5
