REMARK  Name = ZINC14236430
REMARK  5 active torsions:
REMARK  status: ('A' for Active; 'I' for Inactive)
REMARK    1  A    between atoms: N_14  and  C_18
REMARK    2  A    between atoms: C_18  and  C_19
REMARK    3  A    between atoms: N_21  and  C_22
REMARK    4  A    between atoms: C_22  and  C_24
REMARK    5  A    between atoms: C_22  and  C_31
REMARK                            x       y       z     vdW  Elec       q    Type
REMARK                         _______ _______ _______ _____ _____    ______ ____
ROOT
ATOM      1  C   UNL     1      -6.378   3.112  -9.133  0.00  0.00    +0.000 A 
ATOM      2  C   UNL     1      -5.403   2.133  -9.076  0.00  0.00    +0.000 A 
ATOM      3  C   UNL     1      -4.348   2.269  -8.197  0.00  0.00    +0.006 A 
ATOM      4  C   UNL     1      -4.265   3.381  -7.369  0.00  0.00    -0.012 A 
ATOM      5  C   UNL     1      -5.240   4.341  -7.408  0.00  0.00    -0.042 A 
ATOM      6  C   UNL     1      -6.295   4.213  -8.307  0.00  0.00    +0.004 A 
ATOM      7  C   UNL     1      -5.249   5.559  -6.511  0.00  0.00    +0.035 C 
ATOM      8  C   UNL     1      -4.061   6.470  -6.790  0.00  0.00    +0.005 C 
ATOM      9  C   UNL     1      -2.778   5.959  -6.156  0.00  0.00    +0.003 C 
ATOM     10  C   UNL     1      -2.255   4.713  -6.858  0.00  0.00    +0.040 C 
ATOM     11  C   UNL     1      -3.080   3.489  -6.445  0.00  0.00    +0.138 C 
ATOM     12  C   UNL     1      -3.481   3.512  -4.999  0.00  0.00    +0.251 C 
ATOM     13  O   UNL     1      -4.083   4.349  -4.364  0.00  0.00    -0.272 OA
ATOM     14  N   UNL     1      -3.021   2.352  -4.466  0.00  0.00    -0.215 N 
ATOM     15  C   UNL     1      -2.286   1.670  -5.348  0.00  0.00    +0.310 C 
ATOM     16  O   UNL     1      -1.747   0.607  -5.106  0.00  0.00    -0.252 OA
ATOM     17  N   UNL     1      -2.213   2.297  -6.534  0.00  0.00    -0.281 N 
ATOM     18  H   UNL     1      -1.693   2.032  -7.309  0.00  0.00    +0.152 HD
ENDROOT
BRANCH  14  19
ATOM     19  C   UNL     1      -3.285   1.922  -3.092  0.00  0.00    +0.213 C 
BRANCH  19  20
ATOM     20  C   UNL     1      -2.212   2.461  -2.182  0.00  0.00    +0.232 C 
ATOM     21  O   UNL     1      -1.314   3.138  -2.637  0.00  0.00    -0.274 OA
ATOM     22  N   UNL     1      -2.249   2.190  -0.862  0.00  0.00    -0.303 N 
ATOM     23  H   UNL     1      -2.966   1.648  -0.498  0.00  0.00    +0.150 HD
BRANCH  22  24
ATOM     24  C   UNL     1      -1.206   2.714   0.023  0.00  0.00    +0.140 C 
BRANCH  24  25
ATOM     25  C   UNL     1      -1.745   2.824   1.425  0.00  0.00    -0.022 A 
ATOM     26  C   UNL     1      -2.571   1.835   1.928  0.00  0.00    +0.008 A 
ATOM     27  C   UNL     1      -3.062   1.933   3.215  0.00  0.00    +0.038 A 
ATOM     28  C   UNL     1      -2.737   3.027   3.999  0.00  0.00    +0.123 A 
ATOM     29  C   UNL     1      -1.914   4.019   3.494  0.00  0.00    +0.038 A 
ATOM     30  C   UNL     1      -1.419   3.917   2.207  0.00  0.00    +0.008 A 
ATOM     31  F   UNL     1      -3.221   3.125   5.257  0.00  0.00    -0.205 F 
ENDBRANCH  24  25
BRANCH  24  32
ATOM     32  C   UNL     1      -0.022   1.781   0.012  0.00  0.00    +0.014 A 
ATOM     33  C   UNL     1       1.300   2.079   0.001  0.00  0.00    +0.013 A 
ATOM     34  C   UNL     1       2.220   1.048  -0.013  0.00  0.00    +0.008 A 
ATOM     35  C   UNL     1       1.773  -0.232  -0.016  0.00  0.00    +0.045 A 
ATOM     36  S   UNL     1       0.002  -0.004   0.002  0.00  0.00    -0.099 S 
ENDBRANCH  24  32
ENDBRANCH  22  24
ENDBRANCH  19  20
ENDBRANCH  14  19
TORSDOF 5
