REMARK  Name = ZINC25505724
REMARK  6 active torsions:
REMARK  status: ('A' for Active; 'I' for Inactive)
REMARK    1  A    between atoms: C_1  and  C_2
REMARK    2  A    between atoms: C_2  and  C_4
REMARK    3  A    between atoms: C_2  and  N_17
REMARK    4  A    between atoms: C_10  and  C_12
REMARK    5  A    between atoms: N_20  and  C_23
REMARK    6  A    between atoms: C_26  and  O_29
REMARK                            x       y       z     vdW  Elec       q    Type
REMARK                         _______ _______ _______ _____ _____    ______ ____
ROOT
ATOM      1  N   UNL     1      -0.700   1.560   1.217  0.00  0.00    +0.389 N 
ATOM      2  C   UNL     1      -0.715   3.028   1.273  0.00  0.00    -0.059 C 
ATOM      3  C   UNL     1      -1.506   3.481   2.502  0.00  0.00    +0.086 C 
ATOM      4  N   UNL     1      -0.893   2.916   3.712  0.00  0.00    -0.333 N 
ATOM      5  C   UNL     1      -0.879   1.448   3.656  0.00  0.00    +0.086 C 
ATOM      6  C   UNL     1      -0.087   0.995   2.427  0.00  0.00    -0.059 C 
ATOM      7  H   UNL     1      -1.743   1.211   1.169  0.00  0.00    -0.081 HD
ENDROOT
BRANCH   4   8
ATOM      8  C   UNL     1      -1.548   3.368   4.864  0.00  0.00    +0.030 A 
ATOM      9  C   UNL     1      -2.082   2.454   5.763  0.00  0.00    +0.026 A 
ATOM     10  C   UNL     1      -2.724   2.900   6.901  0.00  0.00    +0.047 A 
ATOM     11  C   UNL     1      -2.844   4.260   7.142  0.00  0.00    +0.117 A 
ATOM     12  C   UNL     1      -2.317   5.174   6.241  0.00  0.00    +0.047 A 
ATOM     13  C   UNL     1      -1.670   4.729   5.105  0.00  0.00    +0.026 A 
BRANCH  11  14
ATOM     14  O   UNL     1      -3.481   4.699   8.261  0.00  0.00    -0.507 OA
ATOM     15  H   UNL     1      -3.577   5.778   8.452  0.00  0.00    +0.292 HD
ENDBRANCH  11  14
ENDBRANCH   4   8
BRANCH   1  17
ATOM     16  C   UNL     1       1.423   1.615  -0.003  0.00  0.00    -0.004 C 
ATOM     17  C   UNL     1      -0.013   1.086   0.008  0.00  0.00    +0.016 C 
BRANCH  17  18
ATOM     18  C   UNL     1      -0.742   1.585  -1.213  0.00  0.00    +0.202 C 
ATOM     19  O   UNL     1      -1.736   2.268  -1.088  0.00  0.00    -0.277 OA
ATOM     20  N   UNL     1      -0.288   1.272  -2.443  0.00  0.00    -0.295 N 
ATOM     21  C   UNL     1       0.902   0.454  -2.738  0.00  0.00    +0.108 C 
ATOM     22  C   UNL     1       0.649  -0.118  -4.155  0.00  0.00    +0.021 C 
ATOM     23  C   UNL     1      -0.057   1.076  -4.851  0.00  0.00    +0.029 C 
ATOM     24  C   UNL     1      -0.903   1.686  -3.713  0.00  0.00    +0.113 C 
BRANCH  24  25
ATOM     25  C   UNL     1      -0.895   3.189  -3.821  0.00  0.00    +0.010 A 
ATOM     26  C   UNL     1      -1.856   4.015  -4.301  0.00  0.00    +0.013 A 
ATOM     27  C   UNL     1      -1.629   5.379  -4.302  0.00  0.00    +0.008 A 
ATOM     28  C   UNL     1      -0.451   5.849  -3.823  0.00  0.00    +0.045 A 
ATOM     29  S   UNL     1       0.380   4.344  -3.342  0.00  0.00    -0.100 S 
ENDBRANCH  24  25
ENDBRANCH  17  18
ENDBRANCH   1  17
TORSDOF 5
