REMARK  Name = ZINC23432730
REMARK  4 active torsions:
REMARK  status: ('A' for Active; 'I' for Inactive)
REMARK    1  A    between atoms: C_3  and  C_6
REMARK    2  A    between atoms: C_8  and  C_11
REMARK    3  A    between atoms: C_11  and  C_12
REMARK    4  A    between atoms: C_12  and  C_13
REMARK                            x       y       z     vdW  Elec       q    Type
REMARK                         _______ _______ _______ _____ _____    ______ ____
ROOT
ATOM      1  C   UNL     1      -0.762   2.720   3.398  0.00  0.00    +0.105 C 
ENDROOT
BRANCH   1   2
ATOM      2  C   UNL     1      -0.037   2.238   2.168  0.00  0.00    +0.216 C 
ATOM      3  O   UNL     1       1.149   2.459   2.037  0.00  0.00    -0.276 OA
ATOM      4  N   UNL     1      -0.705   1.562   1.213  0.00  0.00    -0.301 N 
ATOM      5  C   UNL     1      -2.144   1.286   1.351  0.00  0.00    +0.108 C 
ATOM      6  C   UNL     1      -2.867   1.797   0.101  0.00  0.00    +0.023 C 
ATOM      7  C   UNL     1      -2.228   1.176  -1.144  0.00  0.00    -0.005 C 
ATOM      8  C   UNL     1      -2.973   1.664  -2.389  0.00  0.00    +0.004 C 
ATOM      9  C   UNL     1      -2.337   1.054  -3.639  0.00  0.00    +0.000 C 
ATOM     10  C   UNL     1      -0.871   1.482  -3.724  0.00  0.00    +0.000 C 
ATOM     11  C   UNL     1      -0.125   0.989  -2.483  0.00  0.00    +0.005 C 
ATOM     12  C   UNL     1      -0.759   1.596  -1.230  0.00  0.00    +0.010 C 
ATOM     13  C   UNL     1      -0.013   1.086   0.008  0.00  0.00    +0.111 C 
ENDBRANCH   1   2
BRANCH   1  14
ATOM     14  C   UNL     1       0.220   3.453   4.315  0.00  0.00    +0.108 C 
BRANCH  14  17
ATOM     15  C   UNL     1      -1.367   4.094   7.476  0.00  0.00    +0.209 A 
ATOM     16  N   UNL     1      -0.657   3.275   6.666  0.00  0.00    -0.191 NA
ATOM     17  C   UNL     1      -0.505   3.934   5.545  0.00  0.00    +0.228 A 
ATOM     18  O   UNL     1      -1.110   5.117   5.697  0.00  0.00    -0.338 OA
ATOM     19  N   UNL     1      -1.603   5.193   6.803  0.00  0.00    -0.056 NA
BRANCH  15  22
ATOM     20  C   UNL     1      -2.798   4.101  10.979  0.00  0.00    +0.008 A 
ATOM     21  C   UNL     1      -2.513   4.588   9.724  0.00  0.00    +0.019 A 
ATOM     22  C   UNL     1      -1.796   3.803   8.860  0.00  0.00    +0.060 A 
ATOM     23  S   UNL     1      -1.522   2.335   9.838  0.00  0.00    -0.093 S 
ATOM     24  C   UNL     1      -2.362   2.860  11.323  0.00  0.00    +0.046 A 
ENDBRANCH  15  22
ENDBRANCH  14  17
ENDBRANCH   1  14
TORSDOF 4
