REMARK  Name = ZINC00056866
REMARK  8 active torsions:
REMARK  status: ('A' for Active; 'I' for Inactive)
REMARK    1  A    between atoms: C_1  and  C_2
REMARK    2  A    between atoms: C_4  and  S_10
REMARK    3  A    between atoms: C_6  and  C_9
REMARK    4  A    between atoms: C_7  and  O_8
REMARK    5  A    between atoms: S_10  and  C_13
REMARK    6  A    between atoms: C_15  and  C_21
REMARK    7  A    between atoms: C_16  and  O_20
REMARK    8  A    between atoms: C_17  and  C_19
REMARK                            x       y       z     vdW  Elec       q    Type
REMARK                         _______ _______ _______ _____ _____    ______ ____
ROOT
ATOM      1  S   UNL     1       2.712   0.920  -0.018  0.00  0.00    +0.025 S 
ATOM      2  O   UNL     1       3.681   1.805   0.528  0.00  0.00    -0.164 OA
ATOM      3  O   UNL     1       2.462  -0.367   0.528  0.00  0.00    -0.164 OA
ENDROOT
BRANCH   1   7
ATOM      4  C   UNL     1      -2.513   0.979   0.020  0.00  0.00    +0.047 C 
ATOM      5  C   UNL     1      -1.218   1.750   0.017  0.00  0.00    -0.007 A 
ATOM      6  C   UNL     1      -0.013   1.076   0.008  0.00  0.00    +0.034 A 
ATOM      7  C   UNL     1       1.176   1.783   0.000  0.00  0.00    +0.094 A 
ATOM      8  C   UNL     1       1.160   3.165   0.008  0.00  0.00    +0.034 A 
ATOM      9  C   UNL     1      -0.043   3.844   0.022  0.00  0.00    -0.007 A 
ATOM     10  C   UNL     1      -1.237   3.137   0.029  0.00  0.00    +0.123 A 
ATOM     11  C   UNL     1      -0.059   5.351   0.029  0.00  0.00    +0.047 C 
BRANCH  10  12
ATOM     12  O   UNL     1      -2.422   3.802   0.044  0.00  0.00    -0.506 OA
ATOM     13  H   UNL     1      -2.773   3.999  -0.835  0.00  0.00    +0.292 HD
ENDBRANCH  10  12
ENDBRANCH   1   7
BRANCH   1  14
ATOM     14  C   UNL     1       3.151   0.674  -1.707  0.00  0.00    +0.094 A 
ATOM     15  C   UNL     1       2.741  -0.470  -2.366  0.00  0.00    +0.034 A 
ATOM     16  C   UNL     1       3.079  -0.663  -3.692  0.00  0.00    -0.007 A 
ATOM     17  C   UNL     1       3.840   0.286  -4.358  0.00  0.00    +0.123 A 
ATOM     18  C   UNL     1       4.254   1.431  -3.692  0.00  0.00    -0.007 A 
ATOM     19  C   UNL     1       3.909   1.622  -2.369  0.00  0.00    +0.034 A 
ATOM     20  C   UNL     1       5.081   2.465  -4.413  0.00  0.00    +0.047 C 
ATOM     21  C   UNL     1       2.627  -1.908  -4.412  0.00  0.00    +0.047 C 
BRANCH  17  22
ATOM     22  O   UNL     1       4.178   0.096  -5.660  0.00  0.00    -0.506 OA
ATOM     23  H   UNL     1       5.014  -0.373  -5.785  0.00  0.00    +0.292 HD
ENDBRANCH  17  22
ENDBRANCH   1  14
TORSDOF 4
