REMARK  Name = ZINC06542320
REMARK  7 active torsions:
REMARK  status: ('A' for Active; 'I' for Inactive)
REMARK    1  A    between atoms: C_1  and  C_2
REMARK    2  A    between atoms: C_3  and  C_18
REMARK    3  A    between atoms: C_4  and  C_10
REMARK    4  A    between atoms: C_18  and  O_20
REMARK    5  A    between atoms: O_20  and  C_21
REMARK    6  A    between atoms: C_21  and  C_22
REMARK    7  A    between atoms: C_21  and  C_23
REMARK                            x       y       z     vdW  Elec       q    Type
REMARK                         _______ _______ _______ _____ _____    ______ ____
ROOT
ATOM      1  C   UNL     1      -0.472   1.594  -0.242  0.00  0.00    +0.061 C 
ATOM      2  C   UNL     1      -0.269   0.105  -0.126  0.00  0.00    +0.019 C 
ATOM      3  C   UNL     1      -1.344  -0.712  -0.105  0.00  0.00    +0.078 C 
ATOM      4  C   UNL     1      -1.094  -2.202   0.012  0.00  0.00    +0.142 C 
ATOM      5  N   UNL     1       0.310  -2.639   0.094  0.00  0.00    -0.315 N 
ATOM      6  C   UNL     1       1.276  -1.700   0.060  0.00  0.00    +0.135 C 
ATOM      7  S   UNL     1       2.913  -2.193   0.154  0.00  0.00    -0.019 S 
ATOM      8  N   UNL     1       0.999  -0.395  -0.051  0.00  0.00    -0.300 N 
ATOM      9  H   UNL     1       0.534  -3.579   0.170  0.00  0.00    +0.149 HD
ATOM     10  H   UNL     1       1.740   0.231  -0.074  0.00  0.00    +0.154 HD
ENDROOT
BRANCH   4  11
ATOM     11  C   UNL     1      -1.806  -2.697   1.245  0.00  0.00    -0.004 A 
ATOM     12  C   UNL     1      -2.193  -1.803   2.225  0.00  0.00    +0.008 A 
ATOM     13  C   UNL     1      -2.846  -2.256   3.356  0.00  0.00    +0.020 A 
ATOM     14  C   UNL     1      -3.113  -3.606   3.507  0.00  0.00    +0.042 A 
ATOM     15  C   UNL     1      -2.726  -4.501   2.526  0.00  0.00    +0.040 A 
ATOM     16  C   UNL     1      -2.077  -4.046   1.392  0.00  0.00    +0.048 A 
ATOM     17 CL   UNL     1      -1.596  -5.168   0.158  0.00  0.00    -0.083 Cl
ATOM     18 CL   UNL     1      -3.933  -4.175   4.927  0.00  0.00    -0.083 Cl
ENDBRANCH   4  11
BRANCH   3  19
ATOM     19  C   UNL     1      -2.658  -0.196  -0.189  0.00  0.00    +0.339 C 
ATOM     20  O   UNL     1      -2.840   1.008  -0.177  0.00  0.00    -0.245 OA
BRANCH  19  21
ATOM     21  O   UNL     1      -3.709  -1.036  -0.281  0.00  0.00    -0.459 OA
BRANCH  21  22
ATOM     22  C   UNL     1      -5.007  -0.445  -0.362  0.00  0.00    +0.171 C 
ATOM     23  C   UNL     1      -5.933  -1.357  -1.171  0.00  0.00    +0.052 C 
ATOM     24  C   UNL     1      -5.574  -0.264   1.047  0.00  0.00    +0.052 C 
ENDBRANCH  21  22
ENDBRANCH  19  21
ENDBRANCH   3  19
TORSDOF 4
