REMARK  Name = ZINC29397727
REMARK  8 active torsions:
REMARK  status: ('A' for Active; 'I' for Inactive)
REMARK    1  A    between atoms: C_1  and  O_2
REMARK    2  A    between atoms: O_2  and  C_3
REMARK    3  A    between atoms: C_11  and  N_22
REMARK    4  A    between atoms: C_13  and  C_15
REMARK    5  A    between atoms: C_15  and  C_16
REMARK    6  A    between atoms: C_23  and  C_25
REMARK    7  A    between atoms: C_25  and  N_26
REMARK    8  A    between atoms: C_29  and  N_32
REMARK                            x       y       z     vdW  Elec       q    Type
REMARK                         _______ _______ _______ _____ _____    ______ ____
ROOT
ATOM      1  N   UNL     1       0.387   1.406   0.366  0.00  0.00    -0.313 N 
ATOM      2  C   UNL     1      -0.636   2.267   0.199  0.00  0.00    +0.197 C 
ATOM      3  O   UNL     1      -0.412   3.439  -0.018  0.00  0.00    -0.278 OA
ATOM      4  H   UNL     1       0.183   0.343   0.568  0.00  0.00    +0.149 HD
ENDROOT
BRANCH   1  13
ATOM      5  C   UNL     1       6.827   1.834   0.452  0.00  0.00    +0.120 A 
ATOM      6  C   UNL     1       6.414   1.081   1.542  0.00  0.00    +0.046 A 
ATOM      7  C   UNL     1       5.074   0.813   1.720  0.00  0.00    +0.008 A 
ATOM      8  C   UNL     1       4.131   1.291   0.818  0.00  0.00    -0.039 A 
ATOM      9  C   UNL     1       4.537   2.042  -0.262  0.00  0.00    -0.040 A 
ATOM     10  C   UNL     1       5.887   2.311  -0.445  0.00  0.00    +0.049 A 
ATOM     11  C   UNL     1       3.568   2.604  -1.270  0.00  0.00    +0.037 C 
ATOM     12  C   UNL     1       2.225   1.882  -1.183  0.00  0.00    +0.027 C 
ATOM     13  C   UNL     1       1.769   1.884   0.280  0.00  0.00    +0.081 C 
ATOM     14  C   UNL     1       2.685   0.954   1.073  0.00  0.00    +0.044 C 
BRANCH   5  16
ATOM     15  C   UNL     1       9.057   1.576   1.234  0.00  0.00    +0.277 C 
ATOM     16  O   UNL     1       8.146   2.102   0.267  0.00  0.00    -0.495 OA
ENDBRANCH   5  16
BRANCH  14  17
ATOM     17  C   UNL     1       2.387   1.104   2.566  0.00  0.00    +0.046 C 
BRANCH  17  18
ATOM     18  C   UNL     1       2.503   2.555   2.957  0.00  0.00    -0.029 A 
ATOM     19  C   UNL     1       1.379   3.367   2.983  0.00  0.00    +0.006 A 
ATOM     20  C   UNL     1       1.533   4.695   3.349  0.00  0.00    +0.020 A 
ATOM     21  C   UNL     1       2.792   5.162   3.675  0.00  0.00    +0.111 A 
ATOM     22  N   UNL     1       3.839   4.361   3.639  0.00  0.00    -0.263 NA
ATOM     23  C   UNL     1       3.729   3.091   3.301  0.00  0.00    +0.114 A 
ENDBRANCH  17  18
ENDBRANCH  14  17
ENDBRANCH   1  13
BRANCH   2  24
ATOM     24  C   UNL     1      -2.058   1.774   0.281  0.00  0.00    +0.019 C 
BRANCH  24  25
ATOM     25  N   UNL     1      -2.978   2.917   0.205  0.00  0.00    +0.386 N 
ATOM     26  C   UNL     1      -4.365   2.466   0.040  0.00  0.00    -0.076 C 
ATOM     27  C   UNL     1      -5.274   3.677  -0.181  0.00  0.00    +0.006 C 
ATOM     28  C   UNL     1      -5.164   4.618   1.022  0.00  0.00    +0.089 C 
ATOM     29  C   UNL     1      -3.701   5.035   1.202  0.00  0.00    +0.006 C 
ATOM     30  C   UNL     1      -2.838   3.784   1.383  0.00  0.00    -0.076 C 
ATOM     31  H   UNL     1      -2.710   3.510  -0.681  0.00  0.00    -0.081 HD
BRANCH  28  32
ATOM     32  N   UNL     1      -5.987   5.808   0.792  0.00  0.00    -0.289 N 
ATOM     33  C   UNL     1      -7.047   6.236   1.573  0.00  0.00    +0.070 A 
ATOM     34  C   UNL     1      -7.643   5.760   2.732  0.00  0.00    +0.028 A 
ATOM     35  C   UNL     1      -8.710   6.438   3.283  0.00  0.00    +0.002 A 
ATOM     36  C   UNL     1      -9.190   7.596   2.689  0.00  0.00    +0.002 A 
ATOM     37  C   UNL     1      -8.607   8.086   1.541  0.00  0.00    +0.028 A 
ATOM     38  C   UNL     1      -7.525   7.411   0.970  0.00  0.00    +0.067 A 
ATOM     39  N   UNL     1      -6.758   7.636  -0.129  0.00  0.00    -0.306 N 
ATOM     40  C   UNL     1      -5.856   6.696  -0.234  0.00  0.00    +0.328 A 
ATOM     41  O   UNL     1      -4.929   6.616  -1.216  0.00  0.00    -0.247 OA
ATOM     42  H   UNL     1      -6.955   8.511  -0.767  0.00  0.00    +0.170 HD
ENDBRANCH  28  32
ENDBRANCH  24  25
ENDBRANCH   2  24
TORSDOF 7
