REMARK  Name = ZINC57531074
REMARK  11 active torsions:
REMARK  status: ('A' for Active; 'I' for Inactive)
REMARK    1  A    between atoms: C_1  and  O_2
REMARK    2  A    between atoms: O_2  and  C_3
REMARK    3  A    between atoms: C_3  and  C_4
REMARK    4  A    between atoms: C_4  and  N_5
REMARK    5  A    between atoms: C_6  and  C_10
REMARK    6  A    between atoms: C_10  and  C_12
REMARK    7  A    between atoms: C_10  and  N_27
REMARK    8  A    between atoms: N_27  and  C_28
REMARK    9  A    between atoms: N_27  and  C_35
REMARK   10  A    between atoms: C_28  and  C_29
REMARK   11  A    between atoms: C_35  and  C_36
REMARK                            x       y       z     vdW  Elec       q    Type
REMARK                         _______ _______ _______ _____ _____    ______ ____
ROOT
ATOM      1  C   UNL     1      -3.598  -2.822   2.962  0.00  0.00    +0.163 C 
ENDROOT
BRANCH   1   2
ATOM      2  C   UNL     1      -3.226  -3.962   3.876  0.00  0.00    +0.042 A 
ATOM      3  C   UNL     1      -1.951  -4.078   4.327  0.00  0.00    +0.021 A 
ATOM      4  C   UNL     1      -1.621  -5.195   5.211  0.00  0.00    +0.003 A 
ATOM      5  C   UNL     1      -0.322  -5.366   5.706  0.00  0.00    +0.059 A 
ATOM      6  C   UNL     1      -0.042  -6.428   6.537  0.00  0.00    +0.167 A 
ATOM      7  C   UNL     1      -1.050  -7.335   6.888  0.00  0.00    +0.168 A 
ATOM      8  C   UNL     1      -2.336  -7.174   6.404  0.00  0.00    +0.075 A 
ATOM      9  C   UNL     1      -2.634  -6.108   5.565  0.00  0.00    +0.053 A 
ATOM     10  N   UNL     1      -3.912  -5.932   5.072  0.00  0.00    -0.322 N 
ATOM     11  H   UNL     1      -4.609  -6.560   5.316  0.00  0.00    +0.169 HD
ATOM     12  C   UNL     1      -4.205  -4.899   4.263  0.00  0.00    +0.254 A 
ATOM     13  O   UNL     1      -5.345  -4.773   3.850  0.00  0.00    -0.268 OA
ATOM     14  O   UNL     1      -0.513  -8.281   7.711  0.00  0.00    -0.453 OA
ATOM     15  C   UNL     1       0.912  -8.185   7.531  0.00  0.00    +0.466 C 
ATOM     16  O   UNL     1       1.119  -6.814   7.143  0.00  0.00    -0.453 OA
ENDBRANCH   1   2
BRANCH   1  18
ATOM     17  N   UNL     1      -3.409  -3.221   0.450  0.00  0.00    -0.225 N 
ATOM     18  C   UNL     1      -4.040  -3.370   1.630  0.00  0.00    +0.173 A 
ATOM     19  N   UNL     1      -5.113  -4.085   1.395  0.00  0.00    -0.111 NA
ATOM     20  N   UNL     1      -5.140  -4.360   0.136  0.00  0.00    -0.023 NA
ATOM     21  N   UNL     1      -4.114  -3.835  -0.438  0.00  0.00    -0.044 NA
BRANCH  17  22
ATOM     22  C   UNL     1      -2.159  -2.493   0.218  0.00  0.00    +0.175 C 
BRANCH  22  23
ATOM     23  C   UNL     1      -2.473  -1.030  -0.104  0.00  0.00    +0.183 C 
BRANCH  23  25
ATOM     24  C   UNL     1      -1.436   1.063  -0.642  0.00  0.00    +0.194 C 
ATOM     25  O   UNL     1      -1.254  -0.320  -0.331  0.00  0.00    -0.381 OA
ENDBRANCH  23  25
ENDBRANCH  22  23
ENDBRANCH  17  22
ENDBRANCH   1  18
BRANCH   1  26
ATOM     26  N   UNL     1      -4.694  -2.051   3.563  0.00  0.00    -0.277 NA
BRANCH  26  27
ATOM     27  C   UNL     1      -4.293  -1.486   4.858  0.00  0.00    +0.122 C 
BRANCH  27  28
ATOM     28  C   UNL     1      -4.413  -2.543   5.926  0.00  0.00    -0.015 A 
ATOM     29  C   UNL     1      -5.655  -3.054   6.272  0.00  0.00    +0.008 A 
ATOM     30  C   UNL     1      -5.717  -4.025   7.260  0.00  0.00    +0.020 A 
ATOM     31  C   UNL     1      -4.548  -4.448   7.862  0.00  0.00    +0.111 A 
ATOM     32  N   UNL     1      -3.384  -3.940   7.508  0.00  0.00    -0.263 NA
ATOM     33  C   UNL     1      -3.286  -3.019   6.568  0.00  0.00    +0.115 A 
ENDBRANCH  27  28
ENDBRANCH  26  27
BRANCH  26  34
ATOM     34  C   UNL     1      -5.158  -0.998   2.650  0.00  0.00    +0.160 C 
BRANCH  34  35
ATOM     35  C   UNL     1      -6.113  -1.589   1.645  0.00  0.00    +0.119 A 
ATOM     36  C   UNL     1      -7.425  -1.811   1.842  0.00  0.00    +0.046 A 
ATOM     37  C   UNL     1      -7.929  -2.372   0.646  0.00  0.00    +0.041 A 
ATOM     38  C   UNL     1      -6.895  -2.458  -0.210  0.00  0.00    +0.195 A 
ATOM     39  O   UNL     1      -5.799  -1.977   0.398  0.00  0.00    -0.467 OA
ENDBRANCH  34  35
ENDBRANCH  26  34
ENDBRANCH   1  26
TORSDOF 10
