REMARK  Name = ZINC03313849
REMARK  7 active torsions:
REMARK  status: ('A' for Active; 'I' for Inactive)
REMARK    1  A    between atoms: C_1  and  C_2
REMARK    2  A    between atoms: C_7  and  N_8
REMARK    3  A    between atoms: C_12  and  S_14
REMARK    4  A    between atoms: S_14  and  C_15
REMARK    5  A    between atoms: C_15  and  C_16
REMARK    6  A    between atoms: C_16  and  C_18
REMARK    7  A    between atoms: C_18  and  C_28
REMARK                            x       y       z     vdW  Elec       q    Type
REMARK                         _______ _______ _______ _____ _____    ______ ____
ROOT
ATOM      1  C   UNL     1       0.255   1.560  -0.030  0.00  0.00    +0.156 C 
ENDROOT
BRANCH   1   2
ATOM      2  C   UNL     1      -0.443   2.058   1.209  0.00  0.00    +0.187 C 
ATOM      3  O   UNL     1      -1.559   2.533   1.129  0.00  0.00    -0.290 OA
BRANCH   2   4
ATOM      4  C   UNL     1       0.197   1.974   2.457  0.00  0.00    +0.131 C 
ATOM      5  C   UNL     1      -0.455   2.439   3.614  0.00  0.00    +0.114 C 
ATOM      6  N   UNL     1      -1.694   2.992   3.650  0.00  0.00    -0.300 N 
ATOM      7  C   UNL     1      -1.987   3.321   4.968  0.00  0.00    +0.054 A 
ATOM      8  C   UNL     1      -3.091   3.900   5.578  0.00  0.00    +0.025 A 
ATOM      9  C   UNL     1      -3.091   4.113   6.942  0.00  0.00    +0.002 A 
ATOM     10  C   UNL     1      -1.993   3.752   7.705  0.00  0.00    +0.002 A 
ATOM     11  C   UNL     1      -0.889   3.176   7.109  0.00  0.00    +0.025 A 
ATOM     12  C   UNL     1      -0.880   2.957   5.738  0.00  0.00    +0.054 A 
ATOM     13  N   UNL     1       0.059   2.411   4.871  0.00  0.00    -0.300 N 
ATOM     14  H   UNL     1      -2.276   3.132   2.887  0.00  0.00    +0.153 HD
ATOM     15  H   UNL     1       0.932   2.068   5.121  0.00  0.00    +0.153 HD
BRANCH   4  16
ATOM     16  C   UNL     1       1.512   1.414   2.552  0.00  0.00    +0.106 C 
ATOM     17  N   UNL     1       2.555   0.970   2.627  0.00  0.00    -0.191 NA
ENDBRANCH   4  16
ENDBRANCH   2   4
ENDBRANCH   1   2
BRANCH   1  18
ATOM     18  S   UNL     1      -0.821   1.805  -1.470  0.00  0.00    -0.089 S 
BRANCH  18  23
ATOM     19  N   UNL     1       1.585  -0.020  -6.419  0.00  0.00    -0.292 N 
ATOM     20  C   UNL     1       1.216   0.343  -5.129  0.00  0.00    +0.187 A 
ATOM     21  N   UNL     1       1.892   0.224  -4.002  0.00  0.00    -0.125 NA
ATOM     22  N   UNL     1       1.335   0.658  -2.821  0.00  0.00    -0.133 NA
ATOM     23  C   UNL     1       0.124   1.181  -2.820  0.00  0.00    +0.160 A 
ATOM     24  S   UNL     1      -0.298   1.095  -4.553  0.00  0.00    -0.024 S 
ATOM     25  H   UNL     1       1.013   0.207  -7.169  0.00  0.00    +0.154 HD
BRANCH  19  32
ATOM     26  C   UNL     1       2.457  -0.384  -9.103  0.00  0.00    +0.045 C 
ATOM     27  C   UNL     1       3.242  -0.913  -7.931  0.00  0.00    -0.029 A 
ATOM     28  C   UNL     1       4.425  -1.593  -8.141  0.00  0.00    +0.005 A 
ATOM     29  C   UNL     1       5.143  -2.084  -7.066  0.00  0.00    +0.000 A 
ATOM     30  C   UNL     1       4.682  -1.891  -5.776  0.00  0.00    +0.002 A 
ATOM     31  C   UNL     1       3.503  -1.207  -5.558  0.00  0.00    +0.023 A 
ATOM     32  C   UNL     1       2.779  -0.712  -6.636  0.00  0.00    +0.036 A 
ENDBRANCH  19  32
ENDBRANCH  18  23
ENDBRANCH   1  18
TORSDOF 6
