REMARK  Name = ZINC19836399
REMARK  4 active torsions:
REMARK  status: ('A' for Active; 'I' for Inactive)
REMARK    1  A    between atoms: C_1  and  C_2
REMARK    2  A    between atoms: C_5  and  N_21
REMARK    3  A    between atoms: C_7  and  N_8
REMARK    4  A    between atoms: C_9  and  C_11
REMARK                            x       y       z     vdW  Elec       q    Type
REMARK                         _______ _______ _______ _____ _____    ______ ____
ROOT
ATOM      1  N   UNL     1       2.396   1.530  -0.012  0.00  0.00    -0.281 N 
ATOM      2  C   UNL     1       3.551   2.216  -0.121  0.00  0.00    +0.251 C 
ATOM      3  O   UNL     1       3.538   3.432  -0.115  0.00  0.00    -0.270 OA
ATOM      4  H   UNL     1       2.413   0.432   0.058  0.00  0.00    +0.155 HD
ENDROOT
BRANCH   2   5
ATOM      5  C   UNL     1       4.830   1.492  -0.247  0.00  0.00    +0.079 A 
ATOM      6  C   UNL     1       4.848   0.095  -0.248  0.00  0.00    +0.057 A 
ATOM      7  C   UNL     1       6.045  -0.580  -0.371  0.00  0.00    +0.163 A 
ATOM      8  C   UNL     1       7.236   0.126  -0.483  0.00  0.00    +0.208 A 
ATOM      9  C   UNL     1       7.228   1.515  -0.478  0.00  0.00    +0.252 A 
ATOM     10  C   UNL     1       6.030   2.202  -0.360  0.00  0.00    +0.185 A 
ATOM     11  F   UNL     1       6.021   3.553  -0.354  0.00  0.00    -0.201 F 
ATOM     12  O   UNL     1       8.397   2.201  -0.588  0.00  0.00    -0.282 OA
ATOM     13  F   UNL     1       8.405  -0.540  -0.599  0.00  0.00    -0.198 F 
ATOM     14  F   UNL     1       6.061  -1.930  -0.377  0.00  0.00    -0.202 F 
ENDBRANCH   2   5
BRANCH   1  21
ATOM     15  C   UNL     1       0.146   0.300  -1.240  0.00  0.00    +0.045 C 
ATOM     16  C   UNL     1       0.051   1.649  -0.575  0.00  0.00    -0.029 A 
ATOM     17  C   UNL     1      -1.153   2.326  -0.556  0.00  0.00    +0.007 A 
ATOM     18  C   UNL     1      -1.246   3.560   0.057  0.00  0.00    +0.023 A 
ATOM     19  C   UNL     1      -0.124   4.131   0.647  0.00  0.00    +0.026 A 
ATOM     20  C   UNL     1       1.088   3.456   0.625  0.00  0.00    +0.046 A 
ATOM     21  C   UNL     1       1.176   2.214   0.013  0.00  0.00    +0.038 A 
BRANCH  19  22
ATOM     22  N   UNL     1      -0.217   5.381   1.262  0.00  0.00    -0.358 N 
ATOM     23  H   UNL     1       0.671   5.832   1.728  0.00  0.00    +0.142 HD
ATOM     24  H   UNL     1      -1.178   5.916   1.279  0.00  0.00    +0.142 HD
ENDBRANCH  19  22
ENDBRANCH   1  21
TORSDOF 3
