REMARK  Name = ZINC35032404
REMARK  15 active torsions:
REMARK  status: ('A' for Active; 'I' for Inactive)
REMARK    1  A    between atoms: C_1  and  C_2
REMARK    2  A    between atoms: C_2  and  C_3
REMARK    3  A    between atoms: C_3  and  C_4
REMARK    4  A    between atoms: C_4  and  C_5
REMARK    5  A    between atoms: N_7  and  C_8
REMARK    6  A    between atoms: N_7  and  C_13
REMARK    7  A    between atoms: C_8  and  C_9
REMARK    8  A    between atoms: C_9  and  N_10
REMARK    9  A    between atoms: N_10  and  C_11
REMARK   10  A    between atoms: N_10  and  C_12
REMARK   11  A    between atoms: C_13  and  C_15
REMARK   12  A    between atoms: C_13  and  C_16
REMARK   13  A    between atoms: N_26  and  C_27
REMARK   14  A    between atoms: C_27  and  C_28
REMARK   15  A    between atoms: C_28  and  C_29
REMARK                            x       y       z     vdW  Elec       q    Type
REMARK                         _______ _______ _______ _____ _____    ______ ____
ROOT
ATOM      1  C   UNL     1      -4.460  -4.197   0.027  0.00  0.00    +0.139 C 
ATOM      2  C   UNL     1      -4.676  -4.983   1.321  0.00  0.00    +0.036 C 
ENDROOT
BRANCH   1   3
ATOM      3  C   UNL     1      -4.674  -5.106  -1.155  0.00  0.00    +0.133 A 
ATOM      4  N   UNL     1      -3.687  -5.856  -1.542  0.00  0.00    -0.232 NA
ATOM      5  C   UNL     1      -3.806  -6.699  -2.598  0.00  0.00    +0.078 A 
ATOM      6  C   UNL     1      -2.745  -7.506  -3.015  0.00  0.00    +0.028 A 
ATOM      7  C   UNL     1      -2.911  -8.347  -4.092  0.00  0.00    +0.002 A 
ATOM      8  C   UNL     1      -4.121  -8.405  -4.771  0.00  0.00    +0.001 A 
ATOM      9  C   UNL     1      -5.182  -7.619  -4.378  0.00  0.00    +0.015 A 
ATOM     10  C   UNL     1      -5.036  -6.760  -3.291  0.00  0.00    +0.065 A 
ATOM     11  C   UNL     1      -6.133  -5.898  -2.827  0.00  0.00    +0.262 A 
ATOM     12  O   UNL     1      -7.218  -5.902  -3.380  0.00  0.00    -0.267 OA
ATOM     13  N   UNL     1      -5.892  -5.104  -1.758  0.00  0.00    -0.295 N 
BRANCH  13  14
ATOM     14  C   UNL     1      -6.951  -4.229  -1.250  0.00  0.00    +0.126 C 
BRANCH  14  15
ATOM     15  C   UNL     1      -6.940  -2.910  -2.025  0.00  0.00    +0.018 C 
ATOM     16  C   UNL     1      -8.046  -1.996  -1.494  0.00  0.00    +0.005 C 
ENDBRANCH  14  15
ENDBRANCH  13  14
ENDBRANCH   1   3
BRANCH   1  19
ATOM     17  C   UNL     1      -2.880  -2.357  -0.215  0.00  0.00    +0.216 C 
ATOM     18  O   UNL     1      -3.820  -1.610  -0.383  0.00  0.00    -0.276 OA
ATOM     19  N   UNL     1      -3.092  -3.671  -0.002  0.00  0.00    -0.293 N 
BRANCH  17  20
ATOM     20  C   UNL     1      -1.473  -1.817  -0.245  0.00  0.00    +0.096 C 
BRANCH  20  21
ATOM     21  C   UNL     1      -1.512  -0.309  -0.502  0.00  0.00    +0.009 C 
BRANCH  21  23
ATOM     22  C   UNL     1      -0.122   1.747  -0.790  0.00  0.00    +0.004 C 
ATOM     23  C   UNL     1      -0.084   0.239  -0.533  0.00  0.00    -0.003 C 
ENDBRANCH  21  23
ENDBRANCH  20  21
ENDBRANCH  17  20
BRANCH  19  24
ATOM     24  C   UNL     1      -1.956  -4.574   0.200  0.00  0.00    +0.090 C 
BRANCH  24  25
ATOM     25  C   UNL     1      -1.541  -4.549   1.672  0.00  0.00    -0.060 C 
BRANCH  25  26
ATOM     26  N   UNL     1      -0.402  -5.454   1.875  0.00  0.00    +0.377 N 
ATOM     27  C   UNL     1       0.762  -4.950   1.134  0.00  0.00    -0.097 C 
ATOM     28  C   UNL     1      -0.079  -5.523   3.306  0.00  0.00    -0.097 C 
ATOM     29  H   UNL     1      -0.641  -6.376   1.539  0.00  0.00    -0.083 HD
ENDBRANCH  25  26
ENDBRANCH  24  25
ENDBRANCH  19  24
ENDBRANCH   1  19
TORSDOF 10
