REMARK  Name = ZINC35882661
REMARK  5 active torsions:
REMARK  status: ('A' for Active; 'I' for Inactive)
REMARK    1  A    between atoms: C_1  and  C_2
REMARK    2  A    between atoms: C_2  and  C_3
REMARK    3  A    between atoms: N_7  and  C_25
REMARK    4  A    between atoms: C_11  and  N_16
REMARK    5  A    between atoms: C_17  and  C_19
REMARK                            x       y       z     vdW  Elec       q    Type
REMARK                         _______ _______ _______ _____ _____    ______ ____
ROOT
ATOM      1  C   UNL     1      -1.413  -0.512   0.013  0.00  0.00    +0.259 C 
ATOM      2  C   UNL     1      -1.391  -2.004   0.146  0.00  0.00    +0.257 C 
ATOM      3  O   UNL     1      -1.681  -2.396   1.256  0.00  0.00    -0.272 OA
ATOM      4  N   UNL     1      -1.130  -2.941  -0.672  0.00  0.00    -0.287 N 
ATOM      5  C   UNL     1      -0.985  -2.982  -2.088  0.00  0.00    +0.147 C 
ATOM      6  C   UNL     1      -1.222  -1.733  -2.880  0.00  0.00    +0.013 A 
ATOM      7  C   UNL     1      -0.979  -1.902  -4.252  0.00  0.00    +0.032 A 
ATOM      8  C   UNL     1      -1.089  -0.849  -5.137  0.00  0.00    +0.034 A 
ATOM      9  C   UNL     1      -1.441   0.403  -4.648  0.00  0.00    +0.027 A 
ATOM     10  C   UNL     1      -1.697   0.553  -3.311  0.00  0.00    +0.048 A 
ATOM     11  C   UNL     1      -1.618  -0.535  -2.408  0.00  0.00    +0.126 A 
ATOM     12  O   UNL     1      -2.063  -0.130  -1.182  0.00  0.00    -0.479 OA
ENDROOT
BRANCH   4  13
ATOM     13  C   UNL     1      -0.939  -4.243  -0.027  0.00  0.00    +0.107 C 
ATOM     14  C   UNL     1       0.235  -4.155   0.946  0.00  0.00    +0.027 C 
ATOM     15  C   UNL     1       0.281  -5.451   1.765  0.00  0.00    +0.007 C 
ATOM     16  C   UNL     1      -0.918  -5.466   2.711  0.00  0.00    +0.035 C 
ATOM     17  C   UNL     1      -2.192  -5.193   1.955  0.00  0.00    -0.042 A 
ATOM     18  C   UNL     1      -2.201  -4.627   0.700  0.00  0.00    -0.024 A 
ATOM     19  C   UNL     1      -3.412  -4.395   0.060  0.00  0.00    +0.006 A 
ATOM     20  C   UNL     1      -4.603  -4.730   0.671  0.00  0.00    +0.000 A 
ATOM     21  C   UNL     1      -4.593  -5.300   1.930  0.00  0.00    +0.000 A 
ATOM     22  C   UNL     1      -3.392  -5.531   2.566  0.00  0.00    +0.004 A 
ENDBRANCH   4  13
BRANCH   8  23
ATOM     23  N   UNL     1      -0.852  -1.039  -6.504  0.00  0.00    -0.281 N 
ATOM     24  C   UNL     1      -1.569  -0.351  -7.415  0.00  0.00    +0.248 C 
ATOM     25  O   UNL     1      -2.361   0.497  -7.051  0.00  0.00    -0.270 OA
ATOM     26  H   UNL     1      -0.172  -1.666  -6.795  0.00  0.00    +0.155 HD
BRANCH  24  27
ATOM     27  C   UNL     1      -1.391  -0.626  -8.856  0.00  0.00    +0.037 A 
ATOM     28  C   UNL     1      -0.487  -1.603  -9.277  0.00  0.00    +0.013 A 
ATOM     29  C   UNL     1      -0.327  -1.855 -10.624  0.00  0.00    +0.001 A 
ATOM     30  C   UNL     1      -1.060  -1.143 -11.556  0.00  0.00    +0.000 A 
ATOM     31  C   UNL     1      -1.958  -0.174 -11.146  0.00  0.00    +0.001 A 
ATOM     32  C   UNL     1      -2.132   0.085  -9.802  0.00  0.00    +0.013 A 
ENDBRANCH  24  27
ENDBRANCH   8  23
BRANCH   1  34
ATOM     33  C   UNL     1       0.006   1.544   0.000  0.00  0.00    +0.008 C 
ATOM     34  C   UNL     1       0.023   0.014  -0.004  0.00  0.00    +0.051 C 
ENDBRANCH   1  34
TORSDOF 4
