REMARK  Name = ZINC39468845
REMARK  5 active torsions:
REMARK  status: ('A' for Active; 'I' for Inactive)
REMARK    1  A    between atoms: C_4  and  O_7
REMARK    2  A    between atoms: O_7  and  S_8
REMARK    3  A    between atoms: S_8  and  C_11
REMARK    4  A    between atoms: C_23  and  C_24
REMARK    5  A    between atoms: C_29  and  O_30
REMARK                            x       y       z     vdW  Elec       q    Type
REMARK                         _______ _______ _______ _____ _____    ______ ____
ROOT
ATOM      1  C   UNL     1       3.192  -2.273   2.002  0.00  0.00    +0.132 C 
ATOM      2  C   UNL     1       2.281  -2.048   2.943  0.00  0.00    +0.006 C 
ATOM      3  C   UNL     1       1.486  -3.197   3.501  0.00  0.00    +0.006 C 
ATOM      4  C   UNL     1       0.948  -2.855   4.883  0.00  0.00    -0.046 C 
ATOM      5  N   UNL     1       2.044  -2.608   5.834  0.00  0.00    +0.399 N 
ATOM      6  C   UNL     1       2.881  -3.802   5.968  0.00  0.00    -0.020 C 
ATOM      7  C   UNL     1       3.481  -4.181   4.609  0.00  0.00    -0.003 C 
ATOM      8  C   UNL     1       2.379  -4.436   3.611  0.00  0.00    +0.016 C 
ATOM      9  C   UNL     1       3.025  -4.692   2.271  0.00  0.00    -0.013 C 
ATOM     10  C   UNL     1       3.400  -3.651   1.506  0.00  0.00    +0.010 C 
ATOM     11  C   UNL     1       4.057  -3.562   6.924  0.00  0.00    +0.159 C 
ATOM     12  O   UNL     1       3.554  -3.249   8.235  0.00  0.00    -0.297 OA
ATOM     13  P   UNL     1       2.423  -2.086   8.352  0.00  0.00    +0.421 P 
ATOM     14  O   UNL     1       3.083  -0.690   8.307  0.00  0.00    -0.239 OA
ATOM     15  N   UNL     1       1.441  -2.303   7.037  0.00  0.00    -0.267 NA
ATOM     16  O   UNL     1       1.614  -2.254   9.657  0.00  0.00    -0.128 OA
ATOM     17  H   UNL     1       0.477  -2.214   7.105  0.00  0.00    +0.113 HD
ATOM     18  H   UNL     1       2.596  -1.823   5.521  0.00  0.00    -0.055 HD
ENDROOT
BRANCH  10  19
ATOM     19  C   UNL     1       4.021  -3.881   0.179  0.00  0.00    +0.025 A 
ATOM     20  C   UNL     1       3.288  -3.656  -0.985  0.00  0.00    +0.012 A 
ATOM     21  C   UNL     1       3.871  -3.871  -2.217  0.00  0.00    +0.001 A 
ATOM     22  C   UNL     1       5.180  -4.310  -2.302  0.00  0.00    +0.004 A 
ATOM     23  C   UNL     1       5.916  -4.537  -1.154  0.00  0.00    +0.046 A 
ATOM     24  C   UNL     1       5.346  -4.319   0.090  0.00  0.00    +0.125 A 
BRANCH  24  25
ATOM     25  O   UNL     1       6.069  -4.537   1.219  0.00  0.00    -0.506 OA
ATOM     26  H   UNL     1       6.002  -5.438   1.562  0.00  0.00    +0.292 HD
ENDBRANCH  24  25
ENDBRANCH  10  19
BRANCH   1  27
ATOM     27  S   UNL     1       4.140  -0.941   1.346  0.00  0.00    +0.151 S 
ATOM     28  O   UNL     1       5.458  -1.436   1.154  0.00  0.00    -0.131 OA
ATOM     29  O   UNL     1       3.863   0.192   2.158  0.00  0.00    -0.131 OA
BRANCH  27  30
ATOM     30  O   UNL     1       3.586  -0.632  -0.037  0.00  0.00    -0.342 OA
BRANCH  30  34
ATOM     31  C   UNL     1      -0.017   1.378   0.010  0.00  0.00    +0.000 A 
ATOM     32  C   UNL     1       1.170   2.088   0.002  0.00  0.00    +0.004 A 
ATOM     33  C   UNL     1       2.377   1.417  -0.013  0.00  0.00    +0.048 A 
ATOM     34  C   UNL     1       2.399   0.030  -0.021  0.00  0.00    +0.157 A 
ATOM     35  C   UNL     1       1.207  -0.680  -0.013  0.00  0.00    +0.048 A 
ATOM     36  C   UNL     1       0.002  -0.004   0.002  0.00  0.00    +0.004 A 
ENDBRANCH  30  34
ENDBRANCH  27  30
ENDBRANCH   1  27
TORSDOF 5
