REMARK  Name = ZINC44943999
REMARK  5 active torsions:
REMARK  status: ('A' for Active; 'I' for Inactive)
REMARK    1  A    between atoms: C_13  and  C_15
REMARK    2  A    between atoms: C_21  and  C_23
REMARK    3  A    between atoms: N_25  and  C_26
REMARK    4  A    between atoms: C_26  and  C_27
REMARK    5  A    between atoms: C_27  and  C_28
REMARK                            x       y       z     vdW  Elec       q    Type
REMARK                         _______ _______ _______ _____ _____    ______ ____
ROOT
ATOM      1  C   UNL     1      -0.418  -6.809   1.005  0.00  0.00    +0.091 C 
ATOM      2  C   UNL     1      -1.312  -6.951  -0.229  0.00  0.00    +0.040 C 
ATOM      3  C   UNL     1      -2.168  -8.178  -0.109  0.00  0.00    -0.030 C 
ATOM      4  C   UNL     1      -1.934  -9.148   0.716  0.00  0.00    -0.030 C 
ATOM      5  C   UNL     1      -0.781  -9.175   1.675  0.00  0.00    +0.040 C 
ATOM      6  C   UNL     1       0.278  -8.152   1.262  0.00  0.00    +0.091 C 
ENDROOT
BRANCH   1  19
ATOM      7  C   UNL     1      -1.791   0.905   3.092  0.00  0.00    +0.005 A 
ATOM      8  C   UNL     1      -0.797   1.852   2.881  0.00  0.00    +0.018 A 
ATOM      9  C   UNL     1       0.465   1.436   2.508  0.00  0.00    +0.084 A 
ATOM     10  N   UNL     1       0.736   0.154   2.350  0.00  0.00    -0.350 N 
ATOM     11  C   UNL     1      -0.184  -0.778   2.541  0.00  0.00    +0.099 A 
ATOM     12  C   UNL     1      -1.478  -0.430   2.918  0.00  0.00    +0.042 A 
ATOM     13  N   UNL     1       0.145  -2.117   2.363  0.00  0.00    -0.314 N 
ATOM     14  C   UNL     1      -0.820  -3.175   2.694  0.00  0.00    +0.125 C 
ATOM     15  C   UNL     1      -1.022  -4.059   1.458  0.00  0.00    +0.126 C 
ATOM     16  N   UNL     1       0.297  -4.442   0.934  0.00  0.00    -0.298 N 
ATOM     17  C   UNL     1       1.262  -3.385   0.603  0.00  0.00    +0.126 C 
ATOM     18  C   UNL     1       1.461  -2.500   1.834  0.00  0.00    +0.125 C 
ATOM     19  C   UNL     1       0.616  -5.740   0.761  0.00  0.00    +0.220 C 
ATOM     20  O   UNL     1       1.735  -6.048   0.410  0.00  0.00    -0.275 OA
ATOM     21  H   UNL     1       1.631  -0.111   2.088  0.00  0.00    +0.166 HD
ENDBRANCH   1  19
BRANCH   6  22
ATOM     22  C   UNL     1       0.962  -8.617   0.002  0.00  0.00    +0.217 C 
ATOM     23  O   UNL     1       0.311  -9.111  -0.894  0.00  0.00    -0.275 OA
ATOM     24  N   UNL     1       2.296  -8.483  -0.129  0.00  0.00    -0.315 N 
ATOM     25  H   UNL     1       2.817  -8.088   0.588  0.00  0.00    +0.149 HD
BRANCH  24  26
ATOM     26  C   UNL     1       2.961  -8.936  -1.354  0.00  0.00    +0.109 C 
BRANCH  26  27
ATOM     27  C   UNL     1       4.464  -8.671  -1.246  0.00  0.00    +0.054 C 
BRANCH  27  28
ATOM     28  C   UNL     1       5.148  -9.137  -2.506  0.00  0.00    -0.046 A 
ATOM     29  C   UNL     1       5.612 -10.435  -2.600  0.00  0.00    +0.006 A 
ATOM     30  C   UNL     1       6.239 -10.863  -3.755  0.00  0.00    +0.038 A 
ATOM     31  C   UNL     1       6.401  -9.991  -4.818  0.00  0.00    +0.123 A 
ATOM     32  C   UNL     1       5.936  -8.690  -4.722  0.00  0.00    +0.038 A 
ATOM     33  C   UNL     1       5.305  -8.266  -3.568  0.00  0.00    +0.006 A 
ATOM     34  F   UNL     1       7.014 -10.408  -5.947  0.00  0.00    -0.205 F 
ENDBRANCH  27  28
ENDBRANCH  26  27
ENDBRANCH  24  26
ENDBRANCH   6  22
TORSDOF 5
