REMARK  Name = ZINC25187164
REMARK  10 active torsions:
REMARK  status: ('A' for Active; 'I' for Inactive)
REMARK    1  A    between atoms: C_4  and  N_7
REMARK    2  A    between atoms: C_8  and  N_17
REMARK    3  A    between atoms: C_10  and  C_12
REMARK    4  A    between atoms: C_18  and  C_20
REMARK    5  A    between atoms: C_20  and  N_21
REMARK    6  A    between atoms: N_21  and  C_22
REMARK    7  A    between atoms: N_21  and  C_35
REMARK    8  A    between atoms: C_22  and  C_23
REMARK    9  A    between atoms: C_26  and  C_29
REMARK   10  A    between atoms: N_31  and  C_32
REMARK                            x       y       z     vdW  Elec       q    Type
REMARK                         _______ _______ _______ _____ _____    ______ ____
ROOT
ATOM      1  N   UNL     1       1.546   7.381   2.874  0.00  0.00    -0.272 N 
ATOM      2  C   UNL     1       1.466   6.045   2.710  0.00  0.00    +0.202 C 
ATOM      3  O   UNL     1       1.504   5.312   3.676  0.00  0.00    -0.278 OA
ATOM      4  H   UNL     1       1.512   8.046   1.999  0.00  0.00    +0.156 HD
ENDROOT
BRANCH   1   6
ATOM      5  N   UNL     1       1.770   9.241   4.466  0.00  0.00    -0.218 N 
ATOM      6  C   UNL     1       1.674   7.920   4.154  0.00  0.00    +0.129 A 
ATOM      7  C   UNL     1       1.730   7.220   5.321  0.00  0.00    +0.069 A 
ATOM      8  C   UNL     1       1.858   8.139   6.366  0.00  0.00    +0.068 A 
ATOM      9  N   UNL     1       1.879   9.345   5.858  0.00  0.00    -0.169 NA
BRANCH   5  13
ATOM     10  C   UNL     1       1.742  12.412   1.760  0.00  0.00    +0.000 A 
ATOM     11  C   UNL     1       1.153  12.560   3.003  0.00  0.00    +0.002 A 
ATOM     12  C   UNL     1       1.161  11.511   3.901  0.00  0.00    +0.028 A 
ATOM     13  C   UNL     1       1.760  10.307   3.556  0.00  0.00    +0.067 A 
ATOM     14  C   UNL     1       2.355  10.163   2.309  0.00  0.00    +0.028 A 
ATOM     15  C   UNL     1       2.340  11.214   1.413  0.00  0.00    +0.002 A 
ENDBRANCH   5  13
BRANCH   8  16
ATOM     16  C   UNL     1       1.955   7.799   7.831  0.00  0.00    +0.040 C 
ATOM     17  C   UNL     1       2.692   6.456   8.014  0.00  0.00    +0.010 C 
ATOM     18  C   UNL     1       1.956   5.777   9.196  0.00  0.00    +0.001 C 
ATOM     19  C   UNL     1       0.476   6.162   8.945  0.00  0.00    +0.001 C 
ATOM     20  C   UNL     1       0.547   7.612   8.423  0.00  0.00    +0.010 C 
ENDBRANCH   8  16
ENDBRANCH   1   6
BRANCH   2  21
ATOM     21  C   UNL     1       1.329   5.463   1.327  0.00  0.00    +0.020 C 
BRANCH  21  22
ATOM     22  N   UNL     1       1.153   4.008   1.424  0.00  0.00    +0.390 N 
ATOM     23  H   UNL     1       0.461   3.805   2.254  0.00  0.00    -0.080 HD
BRANCH  22  24
ATOM     24  C   UNL     1       0.556   3.467   0.196  0.00  0.00    -0.068 C 
ATOM     25  C   UNL     1       0.491   4.389  -1.024  0.00  0.00    -0.017 C 
ATOM     26  C   UNL     1      -0.787   4.048  -0.252  0.00  0.00    -0.017 C 
ENDBRANCH  22  24
BRANCH  22  27
ATOM     27  C   UNL     1       2.428   3.343   1.727  0.00  0.00    -0.042 C 
BRANCH  27  28
ATOM     28  C   UNL     1       2.173   1.896   2.059  0.00  0.00    -0.064 A 
ATOM     29  C   UNL     1       2.181   0.946   1.053  0.00  0.00    +0.002 A 
ATOM     30  C   UNL     1       1.948  -0.381   1.351  0.00  0.00    +0.013 A 
ATOM     31  C   UNL     1       1.705  -0.764   2.671  0.00  0.00    +0.037 A 
ATOM     32  C   UNL     1       1.698   0.199   3.681  0.00  0.00    +0.013 A 
ATOM     33  C   UNL     1       1.932   1.522   3.370  0.00  0.00    +0.002 A 
BRANCH  31  34
ATOM     34  C   UNL     1       1.455  -2.184   2.998  0.00  0.00    +0.244 C 
ATOM     35  O   UNL     1       1.461  -3.021   2.116  0.00  0.00    -0.270 OA
ATOM     36  N   UNL     1       1.220  -2.551   4.273  0.00  0.00    -0.308 N 
ATOM     37  H   UNL     1       1.215  -1.794   5.071  0.00  0.00    +0.149 HD
BRANCH  36  38
ATOM     38  C   UNL     1       0.972  -3.958   4.597  0.00  0.00    +0.073 C 
ATOM     39  C   UNL     1      -0.167  -4.269   5.570  0.00  0.00    +0.024 C 
ATOM     40  C   UNL     1       1.287  -4.422   6.020  0.00  0.00    +0.024 C 
ENDBRANCH  36  38
ENDBRANCH  31  34
ENDBRANCH  27  28
ENDBRANCH  22  27
ENDBRANCH  21  22
ENDBRANCH   2  21
TORSDOF 10
