REMARK  Name = ZINC54614080
REMARK  13 active torsions:
REMARK  status: ('A' for Active; 'I' for Inactive)
REMARK    1  A    between atoms: C_1  and  C_2
REMARK    2  A    between atoms: C_2  and  C_3
REMARK    3  A    between atoms: C_3  and  O_4
REMARK    4  A    between atoms: O_4  and  C_5
REMARK    5  A    between atoms: C_8  and  C_14
REMARK    6  A    between atoms: C_10  and  O_11
REMARK    7  A    between atoms: O_11  and  C_12
REMARK    8  A    between atoms: C_12  and  C_13
REMARK    9  A    between atoms: C_16  and  C_25
REMARK   10  A    between atoms: C_17  and  C_24
REMARK   11  A    between atoms: N_27  and  C_28
REMARK   12  A    between atoms: C_32  and  C_35
REMARK   13  A    between atoms: C_33  and  C_34
REMARK                            x       y       z     vdW  Elec       q    Type
REMARK                         _______ _______ _______ _____ _____    ______ ____
ROOT
ATOM      1  C   UNL     1      -6.949  -4.641  -0.413  0.00  0.00    +0.179 C 
ATOM      2  C   UNL     1      -7.375  -3.890   0.821  0.00  0.00    +0.060 C 
ATOM      3  C   UNL     1      -8.277  -2.898   0.799  0.00  0.00    +0.018 C 
ATOM      4  N   UNL     1      -8.896  -2.494  -0.359  0.00  0.00    -0.286 N 
ATOM      5  C   UNL     1      -8.758  -3.308  -1.473  0.00  0.00    +0.240 A 
ATOM      6  N   UNL     1      -7.854  -4.321  -1.512  0.00  0.00    -0.201 N 
ATOM      7  N   UNL     1      -8.007  -4.913  -2.764  0.00  0.00    -0.042 NA
ATOM      8  N   UNL     1      -8.940  -4.253  -3.370  0.00  0.00    -0.021 NA
ATOM      9  N   UNL     1      -9.384  -3.306  -2.615  0.00  0.00    -0.092 NA
ATOM     10  C   UNL     1      -8.624  -2.203   2.091  0.00  0.00    +0.061 C 
ATOM     11  H   UNL     1      -9.410  -1.671  -0.395  0.00  0.00    +0.155 HD
ENDROOT
BRANCH   1  15
ATOM     12  C   UNL     1      -2.966  -3.497  -1.471  0.00  0.00    +0.162 A 
ATOM     13  C   UNL     1      -3.997  -2.574  -1.542  0.00  0.00    +0.050 A 
ATOM     14  C   UNL     1      -5.284  -2.946  -1.200  0.00  0.00    +0.010 A 
ATOM     15  C   UNL     1      -5.545  -4.240  -0.786  0.00  0.00    -0.015 A 
ATOM     16  C   UNL     1      -4.521  -5.165  -0.713  0.00  0.00    +0.055 A 
ATOM     17  C   UNL     1      -3.230  -4.800  -1.060  0.00  0.00    +0.162 A 
BRANCH  12  18
ATOM     18  O   UNL     1      -1.700  -3.131  -1.808  0.00  0.00    -0.488 OA
BRANCH  18  19
ATOM     19  C   UNL     1      -1.504  -1.777  -2.221  0.00  0.00    +0.229 C 
BRANCH  19  21
ATOM     20  C   UNL     1       0.183  -0.106  -2.998  0.00  0.00    +0.007 C 
ATOM     21  C   UNL     1      -0.028  -1.556  -2.557  0.00  0.00    +0.038 C 
ENDBRANCH  19  21
ENDBRANCH  18  19
ENDBRANCH  12  18
BRANCH  17  22
ATOM     22  O   UNL     1      -2.223  -5.711  -0.995  0.00  0.00    -0.489 OA
BRANCH  22  23
ATOM     23  C   UNL     1      -2.585  -7.058  -0.684  0.00  0.00    +0.226 C 
ATOM     24  C   UNL     1      -1.337  -7.942  -0.718  0.00  0.00    +0.048 C 
ENDBRANCH  22  23
ENDBRANCH  17  22
ENDBRANCH   1  15
BRANCH   2  25
ATOM     25  C   UNL     1      -6.797  -4.248   2.061  0.00  0.00    +0.248 C 
ATOM     26  O   UNL     1      -7.162  -5.259   2.633  0.00  0.00    -0.270 OA
ATOM     27  N   UNL     1      -5.842  -3.471   2.609  0.00  0.00    -0.281 N 
ATOM     28  H   UNL     1      -5.601  -2.630   2.190  0.00  0.00    +0.155 HD
BRANCH  27  29
ATOM     29  C   UNL     1      -5.198  -3.877   3.782  0.00  0.00    +0.037 A 
ATOM     30  C   UNL     1      -5.227  -5.211   4.166  0.00  0.00    +0.023 A 
ATOM     31  C   UNL     1      -4.590  -5.609   5.325  0.00  0.00    +0.002 A 
ATOM     32  C   UNL     1      -3.923  -4.680   6.103  0.00  0.00    +0.004 A 
ATOM     33  C   UNL     1      -3.893  -3.350   5.724  0.00  0.00    -0.046 A 
ATOM     34  C   UNL     1      -4.524  -2.947   4.563  0.00  0.00    -0.026 A 
ATOM     35  C   UNL     1      -4.485  -1.499   4.147  0.00  0.00    +0.046 C 
ATOM     36  C   UNL     1      -3.166  -2.341   6.575  0.00  0.00    +0.044 C 
ENDBRANCH  27  29
ENDBRANCH   2  25
TORSDOF 8
