REMARK  Name = ZINC26439257
REMARK  6 active torsions:
REMARK  status: ('A' for Active; 'I' for Inactive)
REMARK    1  A    between atoms: C_1  and  C_2
REMARK    2  A    between atoms: C_2  and  C_3
REMARK    3  A    between atoms: C_3  and  C_4
REMARK    4  A    between atoms: C_4  and  C_5
REMARK    5  A    between atoms: C_8  and  N_11
REMARK    6  A    between atoms: C_12  and  N_20
REMARK                            x       y       z     vdW  Elec       q    Type
REMARK                         _______ _______ _______ _____ _____    ______ ____
ROOT
ATOM      1  N   UNL     1      -0.086   3.938   0.007  0.00  0.00    -0.250 N 
ATOM      2  C   UNL     1       0.043   3.267   1.201  0.00  0.00    +0.110 A 
ATOM      3  C   UNL     1       0.107   1.901   1.199  0.00  0.00    +0.112 A 
ATOM      4  C   UNL     1       0.040   1.217  -0.025  0.00  0.00    +0.256 A 
ATOM      5  O   UNL     1       0.096  -0.001  -0.050  0.00  0.00    -0.268 OA
ATOM      6  N   UNL     1      -0.081   1.914  -1.172  0.00  0.00    -0.275 N 
ATOM      7  H   UNL     1      -0.125   1.384  -2.135  0.00  0.00    +0.173 HD
ATOM      8  C   UNL     1      -0.148   3.257  -1.153  0.00  0.00    +0.335 A 
ATOM      9  O   UNL     1      -0.262   3.866  -2.199  0.00  0.00    -0.246 OA
ENDROOT
BRANCH   1  13
ATOM     10  C   UNL     1      -0.284   8.101  -0.018  0.00  0.00    -0.047 A 
ATOM     11  C   UNL     1      -1.444   7.356   0.092  0.00  0.00    +0.005 A 
ATOM     12  C   UNL     1      -1.381   5.976   0.101  0.00  0.00    +0.026 A 
ATOM     13  C   UNL     1      -0.153   5.337  -0.002  0.00  0.00    +0.053 A 
ATOM     14  C   UNL     1       1.010   6.089  -0.108  0.00  0.00    +0.026 A 
ATOM     15  C   UNL     1       0.941   7.468  -0.121  0.00  0.00    +0.005 A 
BRANCH  10  16
ATOM     16  C   UNL     1      -0.356   9.606  -0.027  0.00  0.00    +0.035 C 
BRANCH  16  17
ATOM     17  C   UNL     1      -0.253  10.130   1.407  0.00  0.00    +0.004 C 
BRANCH  17  19
ATOM     18  C   UNL     1      -0.222  12.182   2.832  0.00  0.00    +0.004 C 
ATOM     19  C   UNL     1      -0.325  11.658   1.398  0.00  0.00    -0.003 C 
ENDBRANCH  17  19
ENDBRANCH  16  17
ENDBRANCH  10  16
ENDBRANCH   1  13
BRANCH   2  20
ATOM     20  N   UNL     1       0.105   3.961   2.382  0.00  0.00    -0.344 N 
ATOM     21  H   UNL     1       0.208   3.420   3.334  0.00  0.00    +0.144 HD
ATOM     22  H   UNL     1       0.053   5.060   2.377  0.00  0.00    +0.144 HD
ENDBRANCH   2  20
TORSDOF 5
