REMARK  Name = ZINC08291262
REMARK  6 active torsions:
REMARK  status: ('A' for Active; 'I' for Inactive)
REMARK    1  A    between atoms: C_4  and  C_7
REMARK    2  A    between atoms: C_7  and  C_9
REMARK    3  A    between atoms: C_7  and  O_15
REMARK    4  A    between atoms: N_11  and  C_12
REMARK    5  A    between atoms: O_15  and  C_16
REMARK    6  A    between atoms: C_21  and  N_22
REMARK                            x       y       z     vdW  Elec       q    Type
REMARK                         _______ _______ _______ _____ _____    ______ ____
ROOT
ATOM      1  C   UNL     1       3.932  -0.771  -0.010  0.00  0.00    +0.289 C 
ENDROOT
BRANCH   1   5
ATOM      2  C   UNL     1       0.642   1.946   0.194  0.00  0.00    +0.000 A 
ATOM      3  C   UNL     1       1.937   2.429   0.173  0.00  0.00    +0.000 A 
ATOM      4  C   UNL     1       3.002   1.550   0.107  0.00  0.00    +0.008 A 
ATOM      5  C   UNL     1       2.771   0.188   0.062  0.00  0.00    +0.002 A 
ATOM      6  C   UNL     1       1.476  -0.295   0.084  0.00  0.00    +0.008 A 
ATOM      7  C   UNL     1       0.411   0.584   0.148  0.00  0.00    +0.000 A 
ENDBRANCH   1   5
BRANCH   1   8
ATOM      8  C   UNL     1       4.205  -1.334   1.361  0.00  0.00    +0.259 C 
ATOM      9  O   UNL     1       4.046  -2.518   1.573  0.00  0.00    -0.271 OA
ATOM     10  N   UNL     1       4.625  -0.522   2.351  0.00  0.00    -0.309 N 
ATOM     11  H   UNL     1       4.752   0.424   2.182  0.00  0.00    +0.149 HD
BRANCH  10  12
ATOM     12  C   UNL     1       4.891  -1.070   3.684  0.00  0.00    +0.073 C 
ATOM     13  C   UNL     1       4.380  -0.276   4.888  0.00  0.00    +0.024 C 
ATOM     14  C   UNL     1       5.878  -0.313   4.575  0.00  0.00    +0.024 C 
ENDBRANCH  10  12
ENDBRANCH   1   8
BRANCH   1  15
ATOM     15  O   UNL     1       3.614  -1.836  -0.908  0.00  0.00    -0.473 OA
BRANCH  15  16
ATOM     16  C   UNL     1       3.841  -1.617  -2.230  0.00  0.00    +0.152 A 
ATOM     17  C   UNL     1       4.251  -0.366  -2.667  0.00  0.00    +0.048 A 
ATOM     18  C   UNL     1       4.481  -0.146  -4.011  0.00  0.00    +0.004 A 
ATOM     19  C   UNL     1       4.303  -1.171  -4.921  0.00  0.00    +0.002 A 
ATOM     20  C   UNL     1       3.893  -2.419  -4.489  0.00  0.00    +0.036 A 
ATOM     21  C   UNL     1       3.667  -2.646  -3.145  0.00  0.00    +0.168 A 
BRANCH  21  22
ATOM     22  N   UNL     1       3.235  -3.983  -2.682  0.00  0.00    +0.060 N 
ATOM     23  O   UNL     1       3.084  -4.879  -3.479  0.00  0.00    -0.126 OA
ATOM     24  O   UNL     1       3.032  -4.180  -1.506  0.00  0.00    -0.126 OA
ENDBRANCH  21  22
ENDBRANCH  15  16
ENDBRANCH   1  15
TORSDOF 6
