REMARK  Name = ZINC64651169
REMARK  5 active torsions:
REMARK  status: ('A' for Active; 'I' for Inactive)
REMARK    1  A    between atoms: C_6  and  C_11
REMARK    2  A    between atoms: N_13  and  C_14
REMARK    3  A    between atoms: C_14  and  C_15
REMARK    4  A    between atoms: N_20  and  C_22
REMARK    5  A    between atoms: C_22  and  C_23
REMARK                            x       y       z     vdW  Elec       q    Type
REMARK                         _______ _______ _______ _____ _____    ______ ____
ROOT
ATOM      1  C   UNL     1       3.393  -6.259   2.502  0.00  0.00    -0.011 C 
ATOM      2  C   UNL     1       4.214  -6.927   1.395  0.00  0.00    +0.001 C 
ATOM      3  C   UNL     1       3.937  -8.433   1.406  0.00  0.00    -0.018 C 
ATOM      4  C   UNL     1       4.265  -8.996   2.791  0.00  0.00    -0.079 C 
ATOM      5  N   UNL     1       3.429  -8.337   3.802  0.00  0.00    +0.382 N 
ATOM      6  C   UNL     1       3.740  -6.903   3.847  0.00  0.00    -0.074 C 
ATOM      7  H   UNL     1       2.456  -8.461   3.566  0.00  0.00    -0.082 HD
ENDROOT
BRANCH   1   8
ATOM      8  C   UNL     1       3.721  -4.766   2.551  0.00  0.00    +0.106 C 
BRANCH   8  11
ATOM      9  C   UNL     1       3.468  -2.806   1.125  0.00  0.00    +0.239 C 
ATOM     10  O   UNL     1       4.000  -2.144   1.991  0.00  0.00    -0.273 OA
ATOM     11  N   UNL     1       3.281  -4.128   1.308  0.00  0.00    -0.313 N 
ATOM     12  H   UNL     1       2.855  -4.658   0.616  0.00  0.00    +0.149 HD
BRANCH   9  18
ATOM     13  C   UNL     1      -0.439   0.936  -0.458  0.00  0.00    +0.001 A 
ATOM     14  C   UNL     1       0.662   1.798  -0.357  0.00  0.00    +0.002 A 
ATOM     15  C   UNL     1       1.931   1.350  -0.244  0.00  0.00    +0.026 A 
ATOM     16  C   UNL     1       2.201  -0.046  -0.222  0.00  0.00    +0.043 A 
ATOM     17  N   UNL     1       3.323  -0.716  -0.123  0.00  0.00    -0.370 N 
ATOM     18  C   UNL     1       3.016  -2.150  -0.154  0.00  0.00    +0.190 C 
ATOM     19  C   UNL     1       1.513  -2.249  -0.289  0.00  0.00    +0.016 C 
ATOM     20  C   UNL     1       1.055  -0.977  -0.327  0.00  0.00    -0.004 A 
ATOM     21  C   UNL     1      -0.293  -0.408  -0.447  0.00  0.00    +0.010 A 
ATOM     22  H   UNL     1       4.209  -0.329  -0.043  0.00  0.00    +0.161 HD
ENDBRANCH   9  18
ENDBRANCH   8  11
ENDBRANCH   1   8
BRANCH   5  23
ATOM     23  C   UNL     1       3.691  -8.935   5.118  0.00  0.00    -0.045 C 
BRANCH  23  24
ATOM     24  C   UNL     1       3.003 -10.299   5.204  0.00  0.00    +0.117 C 
ATOM     25  N   UNL     1       3.469 -11.194   4.136  0.00  0.00    -0.333 N 
ATOM     26  C   UNL     1       2.524 -11.643   3.215  0.00  0.00    +0.042 A 
ATOM     27  C   UNL     1       2.782 -12.500   2.130  0.00  0.00    +0.024 A 
ATOM     28  C   UNL     1       1.778 -12.887   1.273  0.00  0.00    +0.002 A 
ATOM     29  C   UNL     1       0.480 -12.445   1.449  0.00  0.00    +0.001 A 
ATOM     30  C   UNL     1       0.196 -11.600   2.509  0.00  0.00    +0.016 A 
ATOM     31  C   UNL     1       1.202 -11.214   3.366  0.00  0.00    +0.030 A 
ATOM     32  S   UNL     1       1.215 -10.164   4.803  0.00  0.00    -0.103 S 
ATOM     33  H   UNL     1       4.399 -11.463   4.075  0.00  0.00    +0.147 HD
ENDBRANCH  23  24
ENDBRANCH   5  23
TORSDOF 5
